MODEL 3664
MODEL 1
REMARK VINA RESULT:    -5.841      0.000      0.000
REMARK INTER + INTRA:          -7.638
REMARK INTER:                  -7.207
REMARK INTRA:                  -0.431
REMARK UNBOUND:                -0.431
REMARK  Name = No_3664-gen_results/8p0m/2024-11-26-14-13-15/
REMARK  4 active torsions:
REMARK  status: ('A' for Active; 'I' for Inactive)
REMARK    1  A    between atoms: C_1  and  C_2
REMARK    2  A    between atoms: C_1  and  N_8
REMARK    3  A    between atoms: C_3  and  C_19
REMARK    4  A    between atoms: C_5  and  N_11
REMARK                            x       y       z     vdW  Elec       q    Type
REMARK                         _______ _______ _______ _____ _____    ______ ____
ROOT
ATOM      1  C   UNL A   1     -24.397   0.233  27.322  0.00  0.00    +0.005 A 
ATOM      2  C   UNL A   1     -23.451   0.710  28.209  0.00  0.00    +0.079 A 
ATOM      3  C   UNL A   1     -23.316   0.312  29.597  0.00  0.00    +0.021 A 
ATOM      4  C   UNL A   1     -24.222  -0.636  30.124  0.00  0.00    +0.048 A 
ATOM      5  C   UNL A   1     -25.205  -1.151  29.206  0.00  0.00    +0.014 A 
ATOM      6  C   UNL A   1     -25.291  -0.787  27.883  0.00  0.00    -0.001 A 
ENDROOT
BRANCH   4   7
ATOM      7  N   UNL A   1     -24.206  -1.025  31.412  0.00  0.00    -0.304 N 
ATOM      8  C   UNL A   1     -25.311  -0.761  32.200  0.00  0.00    +0.112 C 
ATOM      9  C   UNL A   1     -22.997  -1.096  32.182  0.00  0.00    +0.112 C 
ENDBRANCH   4   7
BRANCH   2  10
ATOM     10  C   UNL A   1     -22.681   1.780  27.660  0.00  0.00    +0.388 C 
ATOM     11  O   UNL A   1     -21.634   1.675  27.257  0.00  0.00    -0.241 OA
ATOM     12  O   UNL A   1     -23.319   3.037  27.763  0.00  0.00    -0.241 OA
ENDBRANCH   2  10
BRANCH   1  13
ATOM     13  C   UNL A   1     -24.435   0.542  26.154  0.00  0.00    +0.134 C 
BRANCH  13  14
ATOM     14  N   UNL A   1     -25.559   1.179  25.650  0.00  0.00    -0.214 N 
ATOM     15  C   UNL A   1     -25.945   2.147  25.887  0.00  0.00    +0.011 C 
ATOM     16  C   UNL A   1     -26.586   2.970  25.834  0.00  0.00    -0.044 C 
ATOM     17  C   UNL A   1     -26.299   0.216  24.647  0.00  0.00    +0.241 C 
ATOM     18  C   UNL A   1     -27.791   2.913  24.911  0.00  0.00    +0.047 C 
ATOM     19  C   UNL A   1     -28.115   1.774  24.152  0.00  0.00    -0.008 C 
ATOM     20  C   UNL A   1     -27.504   0.608  24.035  0.00  0.00    +0.113 C 
ATOM     21  O   UNL A   1     -25.893  -0.916  24.511  0.00  0.00    -0.274 OA
ENDBRANCH  13  14
ENDBRANCH   1  13
TORSDOF 4
ENDMDL
ENDMDL
