MODEL 3665
MODEL 1
REMARK VINA RESULT:    -4.061      0.000      0.000
REMARK INTER + INTRA:          -4.061
REMARK INTER:                  -4.061
REMARK INTRA:                   0.000
REMARK UNBOUND:                 0.000
REMARK  Name = No_3665-gen_results/8p0m/2024-11-26-14-13-15/
REMARK  0 active torsions:
REMARK  status: ('A' for Active; 'I' for Inactive)
REMARK                            x       y       z     vdW  Elec       q    Type
REMARK                         _______ _______ _______ _____ _____    ______ ____
ROOT
ATOM      1  C   UNL A   1     -24.914  -4.208  29.098  0.00  0.00    +0.012 A 
ATOM      2  C   UNL A   1     -23.941  -3.526  28.872  0.00  0.00    +0.012 A 
ATOM      3  C   UNL A   1     -23.806  -2.207  29.302  0.00  0.00    +0.058 A 
ATOM      4  C   UNL A   1     -24.905  -1.580  30.011  0.00  0.00    +0.012 A 
ATOM      5  C   UNL A   1     -26.011  -2.433  30.230  0.00  0.00    +0.012 A 
ATOM      6  C   UNL A   1     -26.049  -3.661  29.780  0.00  0.00    +0.058 A 
ATOM      7 CL   UNL A   1     -22.448  -1.201  29.012  0.00  0.00    -0.082 Cl
ATOM      8 CL   UNL A   1     -27.487  -4.583  30.063  0.00  0.00    -0.082 Cl
ENDROOT
TORSDOF 0
ENDMDL
ENDMDL
