MODEL 3666
MODEL 1
REMARK VINA RESULT:    -6.379      0.000      0.000
REMARK INTER + INTRA:          -6.963
REMARK INTER:                  -6.752
REMARK INTRA:                  -0.210
REMARK UNBOUND:                -0.210
REMARK  Name = No_3666-gen_results/8p0m/2024-11-26-14-13-15/
REMARK  1 active torsions:
REMARK  status: ('A' for Active; 'I' for Inactive)
REMARK    1  A    between atoms: C_3  and  C_7
REMARK                            x       y       z     vdW  Elec       q    Type
REMARK                         _______ _______ _______ _____ _____    ______ ____
ROOT
ATOM      1  C   UNL A   1     -23.745   0.500  27.572  0.00  0.00    +0.041 A 
ATOM      2  C   UNL A   1     -24.424  -0.481  27.769  0.00  0.00    +0.142 A 
ATOM      3  C   UNL A   1     -24.038  -1.534  28.598  0.00  0.00    +0.045 A 
ATOM      4  C   UNL A   1     -22.729  -1.497  29.222  0.00  0.00    +0.005 A 
ATOM      5  C   UNL A   1     -21.989  -0.326  28.940  0.00  0.00    +0.012 A 
ATOM      6  C   UNL A   1     -22.435   0.609  28.140  0.00  0.00    +0.060 A 
ATOM      7 CL   UNL A   1     -21.433   1.973  27.803  0.00  0.00    -0.082 Cl
ATOM      8  F   UNL A   1     -25.699  -0.604  27.273  0.00  0.00    -0.204 F 
ENDROOT
BRANCH   3   9
ATOM      9  C   UNL A   1     -24.823  -2.760  28.895  0.00  0.00    +0.088 A 
ATOM     10  N   UNL A   1     -25.952  -2.735  29.436  0.00  0.00    -0.211 NA
ATOM     11  C   UNL A   1     -26.597  -3.828  29.819  0.00  0.00    +0.257 A 
ATOM     12  N   UNL A   1     -26.030  -5.044  29.672  0.00  0.00    -0.210 NA
ATOM     13  C   UNL A   1     -24.255  -4.100  28.777  0.00  0.00    +0.040 A 
ATOM     14  C   UNL A   1     -24.913  -5.214  29.151  0.00  0.00    +0.103 A 
ATOM     15  N   UNL A   1     -27.877  -3.735  30.338  0.00  0.00    -0.086 NA
ENDBRANCH   3   9
TORSDOF 1
ENDMDL
ENDMDL
