REMARK  Name = No_3666-gen_results/8p0m/2024-11-26-14-13-15/
REMARK  1 active torsions:
REMARK  status: ('A' for Active; 'I' for Inactive)
REMARK    1  A    between atoms: C_3  and  C_7
REMARK                            x       y       z     vdW  Elec       q    Type
REMARK                         _______ _______ _______ _____ _____    ______ ____
ROOT
ATOM      1  C   UNL A   1     -28.016  -0.814  28.878  0.00  0.00    +0.041 A 
ATOM      2  C   UNL A   1     -27.064  -0.119  28.608  0.00  0.00    +0.142 A 
ATOM      3  C   UNL A   1     -25.765  -0.390  29.036  0.00  0.00    +0.045 A 
ATOM      4  C   UNL A   1     -25.530  -1.530  29.901  0.00  0.00    +0.005 A 
ATOM      5  C   UNL A   1     -26.689  -2.289  30.181  0.00  0.00    +0.012 A 
ATOM      6  C   UNL A   1     -27.873  -1.951  29.737  0.00  0.00    +0.060 A 
ATOM      7 CL   UNL A   1     -29.241  -2.902  30.184  0.00  0.00    -0.082 Cl
ATOM      8  F   UNL A   1     -27.156   0.956  27.758  0.00  0.00    -0.204 F 
ENDROOT
BRANCH   3   9
ATOM      9  C   UNL A   1     -24.549   0.410  28.734  0.00  0.00    +0.088 A 
ATOM     10  N   UNL A   1     -24.465   1.182  27.753  0.00  0.00    -0.211 NA
ATOM     11  C   UNL A   1     -23.343   1.797  27.407  0.00  0.00    +0.257 A 
ATOM     12  N   UNL A   1     -22.203   1.578  28.096  0.00  0.00    -0.210 NA
ATOM     13  C   UNL A   1     -23.283   0.201  29.431  0.00  0.00    +0.040 A 
ATOM     14  C   UNL A   1     -22.144   0.834  29.092  0.00  0.00    +0.103 A 
ATOM     15  N   UNL A   1     -23.338   2.700  26.358  0.00  0.00    -0.086 NA
ENDBRANCH   3   9
TORSDOF 1
