REMARK  Name = No_3667-gen_results/8p0m/2024-11-26-14-13-15/
REMARK  3 active torsions:
REMARK  status: ('A' for Active; 'I' for Inactive)
REMARK    1  A    between atoms: C_3  and  C_7
REMARK    2  A    between atoms: C_9  and  C_16
REMARK    3  A    between atoms: C_10  and  C_13
REMARK                            x       y       z     vdW  Elec       q    Type
REMARK                         _______ _______ _______ _____ _____    ______ ____
ROOT
ATOM      1  C   UNL A   1     -26.399   0.295  27.228  0.00  0.00    +0.026 C 
ATOM      2  C   UNL A   1     -25.039   0.236  27.354  0.00  0.00    +0.008 C 
ATOM      3  C   UNL A   1     -26.842   1.272  26.257  0.00  0.00    +0.027 C 
ATOM      4  C   UNL A   1     -24.236   1.219  27.792  0.00  0.00    +0.044 C 
ATOM      5  C   UNL A   1     -24.486   2.411  26.855  0.00  0.00    +0.004 C 
ATOM      6  C   UNL A   1     -25.398   2.571  26.155  0.00  0.00    +0.005 C 
ATOM      7  C   UNL A   1     -27.869   2.337  26.937  0.00  0.00    +0.005 C 
ENDROOT
BRANCH   1  10
ATOM      8  C   UNL A   1     -28.016  -0.814  28.878  0.00  0.00    -0.004 A 
ATOM      9  C   UNL A   1     -28.469  -0.785  29.829  0.00  0.00    -0.000 A 
ATOM     10  C   UNL A   1     -27.136   0.236  28.535  0.00  0.00    -0.022 A 
ATOM     11  C   UNL A   1     -26.875   1.282  29.398  0.00  0.00    -0.004 A 
ATOM     12  C   UNL A   1     -28.361   0.199  30.924  0.00  0.00    -0.000 A 
ATOM     13  C   UNL A   1     -27.528   1.223  30.636  0.00  0.00    -0.000 A 
ENDBRANCH   1  10
BRANCH   3  14
ATOM     14  C   UNL A   1     -27.132   0.907  25.280  0.00  0.00    +0.010 C 
ATOM     15  C   UNL A   1     -26.979  -0.399  24.850  0.00  0.00    -0.017 C 
ATOM     16  N   UNL A   1     -27.634  -0.778  23.624  0.00  0.00    -0.229 NA
ATOM     17  C   UNL A   1     -28.005   1.546  24.276  0.00  0.00    +0.058 C 
ATOM     18  C   UNL A   1     -28.368   0.380  23.390  0.00  0.00    +0.140 C 
ENDBRANCH   3  14
BRANCH   4  19
ATOM     19  C   UNL A   1     -22.934   1.117  28.372  0.00  0.00    +0.217 C 
ATOM     20  F   UNL A   1     -22.091   1.869  27.940  0.00  0.00    -0.225 F 
ATOM     21 BR   UNL A   1     -22.622  -0.028  29.713  0.00  0.00    -0.043 Br
ENDBRANCH   4  19
TORSDOF 3
