MODEL 3667
MODEL 1
REMARK VINA RESULT:    -7.418      0.000      0.000
REMARK INTER + INTRA:          -9.074
REMARK INTER:                  -8.720
REMARK INTRA:                  -0.354
REMARK UNBOUND:                -0.354
REMARK  Name = No_3667-gen_results/8p0m/2024-11-26-14-13-15/
REMARK  3 active torsions:
REMARK  status: ('A' for Active; 'I' for Inactive)
REMARK    1  A    between atoms: C_3  and  C_7
REMARK    2  A    between atoms: C_9  and  C_16
REMARK    3  A    between atoms: C_10  and  C_13
REMARK                            x       y       z     vdW  Elec       q    Type
REMARK                         _______ _______ _______ _____ _____    ______ ____
ROOT
ATOM      1  C   UNL A   1     -25.314  -0.944  29.918  0.00  0.00    +0.026 C 
ATOM      2  C   UNL A   1     -25.249  -0.113  28.834  0.00  0.00    +0.008 C 
ATOM      3  C   UNL A   1     -24.564  -0.459  31.057  0.00  0.00    +0.027 C 
ATOM      4  C   UNL A   1     -24.146   0.198  28.134  0.00  0.00    +0.044 C 
ATOM      5  C   UNL A   1     -23.166   0.808  29.148  0.00  0.00    +0.004 C 
ATOM      6  C   UNL A   1     -23.203   0.708  30.304  0.00  0.00    +0.005 C 
ATOM      7  C   UNL A   1     -23.472  -1.565  31.542  0.00  0.00    +0.005 C 
ENDROOT
BRANCH   1  10
ATOM      8  C   UNL A   1     -24.060  -2.948  28.928  0.00  0.00    -0.004 A 
ATOM      9  C   UNL A   1     -24.049  -3.987  28.753  0.00  0.00    -0.000 A 
ATOM     10  C   UNL A   1     -25.189  -2.401  29.577  0.00  0.00    -0.022 A 
ATOM     11  C   UNL A   1     -26.258  -3.184  29.966  0.00  0.00    -0.004 A 
ATOM     12  C   UNL A   1     -25.042  -5.033  29.065  0.00  0.00    -0.000 A 
ATOM     13  C   UNL A   1     -26.141  -4.551  29.687  0.00  0.00    -0.000 A 
ENDBRANCH   1  10
BRANCH   3  14
ATOM     14  C   UNL A   1     -25.121   0.022  31.850  0.00  0.00    +0.010 C 
ATOM     15  C   UNL A   1     -25.078  -0.352  33.182  0.00  0.00    -0.017 C 
ATOM     16  N   UNL A   1     -25.680   0.536  34.143  0.00  0.00    -0.229 NA
ATOM     17  C   UNL A   1     -25.808   1.329  31.837  0.00  0.00    +0.058 C 
ATOM     18  C   UNL A   1     -25.972   1.611  33.310  0.00  0.00    +0.140 C 
ENDBRANCH   3  14
BRANCH   4  19
ATOM     19  C   UNL A   1     -24.046   0.656  26.784  0.00  0.00    +0.217 C 
ATOM     20  F   UNL A   1     -24.657   0.025  25.953  0.00  0.00    -0.225 F 
ATOM     21 BR   UNL A   1     -23.110   2.132  26.391  0.00  0.00    -0.043 Br
ENDBRANCH   4  19
TORSDOF 3
ENDMDL
ENDMDL
