REMARK  Name = No_3668-gen_results/8p0m/2024-11-26-14-13-15/
REMARK  4 active torsions:
REMARK  status: ('A' for Active; 'I' for Inactive)
REMARK    1  A    between atoms: C_3  and  C_7
REMARK    2  A    between atoms: C_5  and  C_14
REMARK    3  A    between atoms: C_6  and  O_19
REMARK    4  A    between atoms: O_19  and  C_20
REMARK                            x       y       z     vdW  Elec       q    Type
REMARK                         _______ _______ _______ _____ _____    ______ ____
ROOT
ATOM      1  C   UNL A   1     -28.016  -0.814  28.878  0.00  0.00    +0.092 A 
ATOM      2  C   UNL A   1     -27.064  -0.119  28.608  0.00  0.00    +0.015 A 
ATOM      3  C   UNL A   1     -26.972   0.714  27.506  0.00  0.00    +0.001 A 
ATOM      4  C   UNL A   1     -28.105   0.774  26.642  0.00  0.00    +0.007 A 
ATOM      5  C   UNL A   1     -29.204   0.118  27.048  0.00  0.00    +0.107 A 
ATOM      6  C   UNL A   1     -29.213  -0.609  28.128  0.00  0.00    +0.163 A 
ATOM      7 CL   UNL A   1     -28.135  -1.773  30.308  0.00  0.00    -0.079 Cl
ENDROOT
BRANCH   3   8
ATOM      8  C   UNL A   1     -25.711   1.452  27.138  0.00  0.00    +0.002 A 
ATOM      9  C   UNL A   1     -25.377   2.046  26.174  0.00  0.00    +0.000 A 
ATOM     10  C   UNL A   1     -24.075   2.719  25.978  0.00  0.00    +0.002 A 
ATOM     11  C   UNL A   1     -23.077   2.499  26.948  0.00  0.00    +0.030 A 
ATOM     12  C   UNL A   1     -23.364   1.622  28.010  0.00  0.00    +0.140 A 
ATOM     13  C   UNL A   1     -24.624   1.088  28.175  0.00  0.00    +0.030 A 
ATOM     14  F   UNL A   1     -22.382   1.467  28.874  0.00  0.00    -0.204 F 
ENDBRANCH   3   8
BRANCH   5  15
ATOM     15  C   UNL A   1     -30.415   0.256  26.189  0.00  0.00    +0.421 C 
ATOM     16  F   UNL A   1     -31.000  -0.781  26.104  0.00  0.00    -0.166 F 
ATOM     17  F   UNL A   1     -31.229   1.204  26.664  0.00  0.00    -0.166 F 
ATOM     18  F   UNL A   1     -30.089   0.608  24.925  0.00  0.00    -0.166 F 
ENDBRANCH   5  15
BRANCH   6  19
ATOM     19  O   UNL A   1     -30.332  -1.276  28.474  0.00  0.00    -0.416 OA
BRANCH  19  20
ATOM     20  C   UNL A   1     -30.429  -1.772  29.769  0.00  0.00    +0.423 C 
ATOM     21  O   UNL A   1     -31.666  -2.229  30.055  0.00  0.00    -0.237 OA
ENDBRANCH  19  20
ENDBRANCH   6  19
TORSDOF 4
