REMARK  Name = No_3669-gen_results/8p0m/2024-11-26-14-13-15/
REMARK  4 active torsions:
REMARK  status: ('A' for Active; 'I' for Inactive)
REMARK    1  A    between atoms: C_6  and  C_8
REMARK    2  A    between atoms: C_8  and  N_9
REMARK    3  A    between atoms: C_13  and  N_15
REMARK    4  A    between atoms: N_15  and  C_16
REMARK                            x       y       z     vdW  Elec       q    Type
REMARK                         _______ _______ _______ _____ _____    ______ ____
ROOT
ATOM      1  C   UNL A   1     -30.082   1.509  31.010  0.00  0.00    +0.095 C 
ATOM      2  C   UNL A   1     -29.114   2.200  32.117  0.00  0.00    +0.026 C 
ENDROOT
BRANCH   1   8
ATOM      3  C   UNL A   1     -28.016  -0.814  28.878  0.00  0.00    +0.011 A 
ATOM      4  C   UNL A   1     -27.064  -0.119  28.608  0.00  0.00    +0.058 A 
ATOM      5  C   UNL A   1     -26.929   1.171  29.008  0.00  0.00    +0.011 A 
ATOM      6  C   UNL A   1     -27.956   1.741  29.784  0.00  0.00    -0.002 A 
ATOM      7  C   UNL A   1     -29.057  -0.327  29.747  0.00  0.00    -0.002 A 
ATOM      8  C   UNL A   1     -28.983   0.972  30.152  0.00  0.00    -0.004 A 
ATOM      9 CL   UNL A   1     -25.725  -0.728  27.673  0.00  0.00    -0.082 Cl
ENDBRANCH   1   8
BRANCH   1  10
ATOM     10  N   UNL A   1     -30.873   2.109  30.732  0.00  0.00    -0.303 N 
ATOM     11  C   UNL A   1     -30.945   2.772  29.585  0.00  0.00    +0.059 C 
ATOM     12  C   UNL A   1     -32.123   3.635  29.300  0.00  0.00    +0.013 C 
ATOM     13  C   UNL A   1     -32.262   2.107  31.207  0.00  0.00    +0.117 C 
ATOM     14  C   UNL A   1     -32.939   3.086  30.403  0.00  0.00    +0.135 C 
BRANCH  14  15
ATOM     15  N   UNL A   1     -33.619   4.152  31.158  0.00  0.00    -0.232 NA
BRANCH  15  16
ATOM     16  C   UNL A   1     -34.765   4.393  31.315  0.00  0.00    +0.081 C 
ATOM     17  C   UNL A   1     -35.218   5.520  32.145  0.00  0.00    +0.019 C 
ENDBRANCH  15  16
ENDBRANCH  14  15
ENDBRANCH   1  10
TORSDOF 4
