MODEL 3669
MODEL 1
REMARK VINA RESULT:    -5.690      0.000      0.000
REMARK INTER + INTRA:          -7.544
REMARK INTER:                  -7.020
REMARK INTRA:                  -0.524
REMARK UNBOUND:                -0.524
REMARK  Name = No_3669-gen_results/8p0m/2024-11-26-14-13-15/
REMARK  4 active torsions:
REMARK  status: ('A' for Active; 'I' for Inactive)
REMARK    1  A    between atoms: C_6  and  C_8
REMARK    2  A    between atoms: C_8  and  N_9
REMARK    3  A    between atoms: C_13  and  N_15
REMARK    4  A    between atoms: N_15  and  C_16
REMARK                            x       y       z     vdW  Elec       q    Type
REMARK                         _______ _______ _______ _____ _____    ______ ____
ROOT
ATOM      1  C   UNL A   1     -23.229  -1.289  29.153  0.00  0.00    +0.095 C 
ATOM      2  C   UNL A   1     -22.893  -0.442  30.498  0.00  0.00    +0.026 C 
ENDROOT
BRANCH   1   8
ATOM      3  C   UNL A   1     -24.413   1.191  26.572  0.00  0.00    +0.011 A 
ATOM      4  C   UNL A   1     -23.481   1.960  26.525  0.00  0.00    +0.058 A 
ATOM      5  C   UNL A   1     -22.370   1.855  27.298  0.00  0.00    +0.011 A 
ATOM      6  C   UNL A   1     -22.292   0.788  28.213  0.00  0.00    -0.002 A 
ATOM      7  C   UNL A   1     -24.358   0.024  27.415  0.00  0.00    -0.002 A 
ATOM      8  C   UNL A   1     -23.277  -0.113  28.233  0.00  0.00    -0.004 A 
ATOM      9 CL   UNL A   1     -23.462   3.303  25.414  0.00  0.00    -0.082 Cl
ENDBRANCH   1   8
BRANCH   1  10
ATOM     10  N   UNL A   1     -23.948  -2.014  29.299  0.00  0.00    -0.303 N 
ATOM     11  C   UNL A   1     -23.857  -3.261  28.855  0.00  0.00    +0.059 C 
ATOM     12  C   UNL A   1     -24.970  -4.218  29.097  0.00  0.00    +0.013 C 
ATOM     13  C   UNL A   1     -25.002  -2.096  30.317  0.00  0.00    +0.117 C 
ATOM     14  C   UNL A   1     -25.640  -3.365  30.102  0.00  0.00    +0.135 C 
BRANCH  14  15
ATOM     15  N   UNL A   1     -27.094  -3.303  29.879  0.00  0.00    -0.232 NA
BRANCH  15  16
ATOM     16  C   UNL A   1     -27.949  -4.099  30.056  0.00  0.00    +0.081 C 
ATOM     17  C   UNL A   1     -28.741  -4.129  31.296  0.00  0.00    +0.019 C 
ENDBRANCH  15  16
ENDBRANCH  14  15
ENDBRANCH   1  10
TORSDOF 4
ENDMDL
ENDMDL
