MODEL 366
MODEL 1
REMARK VINA RESULT:    -7.814      0.000      0.000
REMARK INTER + INTRA:          -9.577
REMARK INTER:                  -9.184
REMARK INTRA:                  -0.393
REMARK UNBOUND:                -0.393
REMARK  Name = No_366-gen_results/8p0m/2024-11-26-14-13-15/
REMARK  3 active torsions:
REMARK  status: ('A' for Active; 'I' for Inactive)
REMARK    1  A    between atoms: C_4  and  C_11
REMARK    2  A    between atoms: C_20  and  C_28
REMARK    3  A    between atoms: C_21  and  O_27
REMARK                            x       y       z     vdW  Elec       q    Type
REMARK                         _______ _______ _______ _____ _____    ______ ____
ROOT
ATOM      1  C   UNL A   1     -10.581   1.798  38.438  0.00  0.00    +0.082 A 
ATOM      2  C   UNL A   1     -11.099   1.097  39.276  0.00  0.00    -0.005 A 
ATOM      3  C   UNL A   1     -11.424  -0.243  39.067  0.00  0.00    -0.003 A 
ATOM      4  C   UNL A   1     -12.065  -1.165  40.025  0.00  0.00    -0.000 A 
ATOM      5  C   UNL A   1     -12.423  -2.535  39.761  0.00  0.00    -0.000 A 
ATOM      6  C   UNL A   1     -10.451   1.263  37.058  0.00  0.00    +0.152 A 
ATOM      7  C   UNL A   1     -10.647  -0.073  36.779  0.00  0.00    +0.038 A 
ATOM      8  C   UNL A   1     -11.230  -0.925  37.774  0.00  0.00    +0.003 A 
ATOM      9  C   UNL A   1     -11.994  -2.991  38.487  0.00  0.00    +0.000 A 
ATOM     10  C   UNL A   1     -11.458  -2.238  37.513  0.00  0.00    +0.000 A 
ATOM     11  O   UNL A   1      -9.888   2.078  36.112  0.00  0.00    -0.469 OA
ATOM     12  C   UNL A   1     -10.582   2.297  34.915  0.00  0.00    +0.232 C 
ATOM     13  C   UNL A   1     -11.657   3.075  34.986  0.00  0.00    +0.024 C 
ATOM     14  C   UNL A   1     -11.933   3.707  36.017  0.00  0.00    +0.035 C 
ATOM     15  C   UNL A   1     -11.138   4.031  37.018  0.00  0.00    +0.153 C 
ATOM     16  C   UNL A   1     -10.352   3.825  37.734  0.00  0.00    +0.103 C 
ATOM     17  N   UNL A   1     -10.576   3.106  38.606  0.00  0.00    -0.281 N 
ATOM     18  C   UNL A   1     -10.746   3.468  39.956  0.00  0.00    +0.096 C 
ATOM     19  C   UNL A   1     -10.860   2.469  40.731  0.00  0.00    +0.026 C 
ATOM     20  C   UNL A   1     -11.222   1.407  40.661  0.00  0.00    +0.029 C 
ENDROOT
BRANCH   4  21
ATOM     21  C   UNL A   1     -12.367  -0.696  41.413  0.00  0.00    -0.000 A 
ATOM     22  C   UNL A   1     -11.509  -1.016  42.322  0.00  0.00    -0.000 A 
ATOM     23  C   UNL A   1     -11.762  -0.681  43.696  0.00  0.00    -0.000 A 
ATOM     24  C   UNL A   1     -12.925   0.106  43.968  0.00  0.00    +0.000 A 
ATOM     25  C   UNL A   1     -13.495  -0.049  41.890  0.00  0.00    -0.000 A 
ATOM     26  C   UNL A   1     -13.756   0.408  43.024  0.00  0.00    -0.000 A 
ENDBRANCH   4  21
BRANCH  14  27
ATOM     27  C   UNL A   1     -13.400   3.474  36.530  0.00  0.00    +0.003 A 
ATOM     28  C   UNL A   1     -14.395   3.457  35.658  0.00  0.00    +0.000 A 
ATOM     29  C   UNL A   1     -15.741   3.472  36.067  0.00  0.00    +0.000 A 
ATOM     30  C   UNL A   1     -16.053   3.342  37.403  0.00  0.00    +0.000 A 
ATOM     31  C   UNL A   1     -15.020   3.381  38.349  0.00  0.00    +0.000 A 
ATOM     32  C   UNL A   1     -13.743   3.487  37.907  0.00  0.00    +0.000 A 
ENDBRANCH  14  27
BRANCH  15  33
ATOM     33  O   UNL A   1     -11.717   5.236  36.984  0.00  0.00    -0.470 OA
ATOM     34  C   UNL A   1     -11.231   6.287  36.914  0.00  0.00    +0.253 C 
ENDBRANCH  15  33
TORSDOF 3
ENDMDL
ENDMDL
