REMARK  Name = No_367-gen_results/8p0m/2024-11-26-14-13-15/
REMARK  3 active torsions:
REMARK  status: ('A' for Active; 'I' for Inactive)
REMARK    1  A    between atoms: C_2  and  C_5
REMARK    2  A    between atoms: C_3  and  C_9
REMARK    3  A    between atoms: C_9  and  C_10
REMARK                            x       y       z     vdW  Elec       q    Type
REMARK                         _______ _______ _______ _____ _____    ______ ____
ROOT
ATOM      1  C   UNL A   1     -28.016  -0.814  28.878  0.00  0.00    +0.001 A 
ATOM      2  C   UNL A   1     -28.469  -0.785  29.829  0.00  0.00    +0.011 A 
ATOM      3  C   UNL A   1     -27.087   0.290  28.638  0.00  0.00    +0.039 A 
ATOM      4  C   UNL A   1     -26.768   1.027  29.472  0.00  0.00    +0.003 A 
ATOM      5  C   UNL A   1     -27.308   1.033  30.780  0.00  0.00    -0.000 A 
ATOM      6  C   UNL A   1     -28.226  -0.021  31.047  0.00  0.00    -0.002 A 
ENDROOT
BRANCH   2   7
ATOM      7  C   UNL A   1     -29.459  -1.922  30.202  0.00  0.00    +0.209 C 
ATOM      8  O   UNL A   1     -29.901  -1.847  31.473  0.00  0.00    -0.215 OA
ENDBRANCH   2   7
BRANCH   3   9
ATOM      9  C   UNL A   1     -26.374   0.346  27.238  0.00  0.00    +0.196 C 
ATOM     10  O   UNL A   1     -27.024  -0.062  26.225  0.00  0.00    -0.287 OA
BRANCH   9  11
ATOM     11  C   UNL A   1     -25.230   0.911  27.053  0.00  0.00    +0.039 A 
ATOM     12  C   UNL A   1     -24.618   1.236  25.943  0.00  0.00    +0.003 A 
ATOM     13  C   UNL A   1     -23.348   1.912  25.799  0.00  0.00    +0.000 A 
ATOM     14  C   UNL A   1     -22.697   2.187  27.057  0.00  0.00    +0.000 A 
ATOM     15  C   UNL A   1     -24.239   1.327  28.147  0.00  0.00    +0.003 A 
ATOM     16  C   UNL A   1     -23.145   1.710  28.071  0.00  0.00    +0.000 A 
ENDBRANCH   9  11
ENDBRANCH   3   9
TORSDOF 3
