REMARK  Name = No_3670-gen_results/8p0m/2024-11-26-14-13-15/
REMARK  1 active torsions:
REMARK  status: ('A' for Active; 'I' for Inactive)
REMARK    1  A    between atoms: C_2  and  C_10
REMARK                            x       y       z     vdW  Elec       q    Type
REMARK                         _______ _______ _______ _____ _____    ______ ____
ROOT
ATOM      1  C   UNL A   1     -28.016  -0.814  28.878  0.00  0.00    +0.019 A 
ATOM      2  C   UNL A   1     -27.064  -0.119  28.608  0.00  0.00    +0.002 A 
ATOM      3  C   UNL A   1     -27.001   0.691  27.491  0.00  0.00    +0.000 A 
ATOM      4  C   UNL A   1     -28.137   0.736  26.635  0.00  0.00    +0.003 A 
ATOM      5  C   UNL A   1     -29.236   0.076  27.069  0.00  0.00    +0.031 A 
ATOM      6  C   UNL A   1     -29.218  -0.643  28.175  0.00  0.00    +0.084 A 
ATOM      7  C   UNL A   1     -30.415   0.159  26.182  0.00  0.00    +0.062 A 
ATOM      8  N   UNL A   1     -31.373  -0.505  26.485  0.00  0.00    -0.228 NA
ATOM      9  C   UNL A   1     -30.373   0.917  24.942  0.00  0.00    +0.052 C 
ATOM     10  C   UNL A   1     -31.697  -1.175  27.459  0.00  0.00    +0.199 A 
ATOM     11  N   UNL A   1     -30.721  -1.264  28.408  0.00  0.00    -0.224 NA
ENDROOT
BRANCH   2  12
ATOM     12  C   UNL A   1     -25.884  -0.298  29.595  0.00  0.00    +0.000 A 
ATOM     13  C   UNL A   1     -25.139   0.695  30.025  0.00  0.00    +0.000 A 
ATOM     14  C   UNL A   1     -23.932   0.498  30.792  0.00  0.00    +0.000 A 
ATOM     15  C   UNL A   1     -23.615  -0.841  31.140  0.00  0.00    +0.000 A 
ATOM     16  C   UNL A   1     -25.405  -1.637  29.869  0.00  0.00    +0.000 A 
ATOM     17  C   UNL A   1     -24.311  -1.852  30.623  0.00  0.00    +0.000 A 
ENDBRANCH   2  12
TORSDOF 1
