MODEL 3670
MODEL 1
REMARK VINA RESULT:    -6.566      0.000      0.000
REMARK INTER + INTRA:          -7.305
REMARK INTER:                  -6.950
REMARK INTRA:                  -0.355
REMARK UNBOUND:                -0.355
REMARK  Name = No_3670-gen_results/8p0m/2024-11-26-14-13-15/
REMARK  1 active torsions:
REMARK  status: ('A' for Active; 'I' for Inactive)
REMARK    1  A    between atoms: C_2  and  C_10
REMARK                            x       y       z     vdW  Elec       q    Type
REMARK                         _______ _______ _______ _____ _____    ______ ____
ROOT
ATOM      1  C   UNL A   1     -25.061  -0.933  27.965  0.00  0.00    +0.019 A 
ATOM      2  C   UNL A   1     -24.574  -1.539  28.892  0.00  0.00    +0.002 A 
ATOM      3  C   UNL A   1     -23.291  -1.324  29.356  0.00  0.00    +0.000 A 
ATOM      4  C   UNL A   1     -22.518  -0.305  28.731  0.00  0.00    +0.003 A 
ATOM      5  C   UNL A   1     -23.164   0.457  27.818  0.00  0.00    +0.031 A 
ATOM      6  C   UNL A   1     -24.409   0.203  27.464  0.00  0.00    +0.084 A 
ATOM      7  C   UNL A   1     -22.354   1.529  27.202  0.00  0.00    +0.062 A 
ATOM      8  N   UNL A   1     -22.866   2.154  26.309  0.00  0.00    -0.228 NA
ATOM      9  C   UNL A   1     -20.966   1.737  27.582  0.00  0.00    +0.052 C 
ATOM     10  C   UNL A   1     -23.992   2.227  25.829  0.00  0.00    +0.199 A 
ATOM     11  N   UNL A   1     -24.875   1.341  26.374  0.00  0.00    -0.224 NA
ENDROOT
BRANCH   2  12
ATOM     12  C   UNL A   1     -25.504  -2.646  29.448  0.00  0.00    +0.000 A 
ATOM     13  C   UNL A   1     -25.297  -3.930  29.262  0.00  0.00    +0.000 A 
ATOM     14  C   UNL A   1     -26.263  -4.942  29.620  0.00  0.00    +0.000 A 
ATOM     15  C   UNL A   1     -27.441  -4.490  30.270  0.00  0.00    +0.000 A 
ATOM     16  C   UNL A   1     -26.796  -2.264  29.980  0.00  0.00    +0.000 A 
ATOM     17  C   UNL A   1     -27.696  -3.186  30.369  0.00  0.00    +0.000 A 
ENDBRANCH   2  12
TORSDOF 1
ENDMDL
ENDMDL
