MODEL 3671
MODEL 1
REMARK VINA RESULT:    -7.320      0.000      0.000
REMARK INTER + INTRA:          -8.334
REMARK INTER:                  -7.748
REMARK INTRA:                  -0.586
REMARK UNBOUND:                -0.586
REMARK  Name = No_3671-gen_results/8p0m/2024-11-26-14-13-15/
REMARK  1 active torsions:
REMARK  status: ('A' for Active; 'I' for Inactive)
REMARK    1  A    between atoms: C_8  and  C_16
REMARK                            x       y       z     vdW  Elec       q    Type
REMARK                         _______ _______ _______ _____ _____    ______ ____
ROOT
ATOM      1  C   UNL A   1     -26.997 -10.448   7.531  0.00  0.00    +0.136 A 
ATOM      2  C   UNL A   1     -26.987 -11.366   7.015  0.00  0.00    +0.029 A 
ATOM      3  C   UNL A   1     -27.870 -10.406   8.765  0.00  0.00    +0.008 A 
ATOM      4  C   UNL A   1     -28.171  -9.240   9.558  0.00  0.00    +0.055 C 
ATOM      5  C   UNL A   1     -27.486 -12.699   7.377  0.00  0.00    +0.002 A 
ATOM      6  C   UNL A   1     -28.270 -12.748   8.509  0.00  0.00    -0.003 A 
ATOM      7  C   UNL A   1     -28.468 -11.619   9.263  0.00  0.00    -0.000 A 
ATOM      8  C   UNL A   1     -28.544  -8.056   8.949  0.00  0.00    -0.016 C 
ATOM      9  C   UNL A   1     -29.180  -7.087   9.625  0.00  0.00    -0.004 C 
ATOM     10  C   UNL A   1     -30.364  -6.805   9.787  0.00  0.00    -0.000 C 
ATOM     11  C   UNL A   1     -31.386  -7.614  10.155  0.00  0.00    -0.000 C 
ATOM     12  C   UNL A   1     -31.557  -8.594  10.848  0.00  0.00    -0.000 C 
ATOM     13  C   UNL A   1     -30.891  -9.710  10.610  0.00  0.00    -0.000 C 
ATOM     14  C   UNL A   1     -31.212 -10.897  11.507  0.00  0.00    -0.002 C 
ATOM     15  C   UNL A   1     -30.409 -12.025  11.197  0.00  0.00    +0.003 C 
ATOM     16  F   UNL A   1     -25.967 -10.214   8.180  0.00  0.00    -0.204 F 
ATOM     17  C   UNL A   1     -30.898 -13.148  12.122  0.00  0.00    +0.015 C 
ATOM     18  C   UNL A   1     -30.184 -14.359  11.687  0.00  0.00    +0.081 C 
ATOM     19  N   UNL A   1     -29.500 -14.266  10.510  0.00  0.00    -0.229 NA
ATOM     20  C   UNL A   1     -29.765 -12.574  10.171  0.00  0.00    +0.137 C 
ENDROOT
BRANCH   8  21
ATOM     21  C   UNL A   1     -28.333  -7.836   7.551  0.00  0.00    +0.024 A 
ATOM     22  C   UNL A   1     -29.210  -8.118   6.688  0.00  0.00    +0.002 A 
ATOM     23  C   UNL A   1     -28.994  -7.840   5.247  0.00  0.00    +0.000 A 
ATOM     24  C   UNL A   1     -27.883  -7.243   4.858  0.00  0.00    +0.002 A 
ATOM     25  C   UNL A   1     -26.983  -6.868   5.803  0.00  0.00    +0.030 A 
ATOM     26  C   UNL A   1     -27.126  -7.161   7.103  0.00  0.00    +0.140 A 
ATOM     27  F   UNL A   1     -27.230  -5.969   7.756  0.00  0.00    -0.204 F 
ENDBRANCH   8  21
TORSDOF 1
ENDMDL
ENDMDL
