REMARK  Name = No_3671-gen_results/8p0m/2024-11-26-14-13-15/
REMARK  1 active torsions:
REMARK  status: ('A' for Active; 'I' for Inactive)
REMARK    1  A    between atoms: C_8  and  C_16
REMARK                            x       y       z     vdW  Elec       q    Type
REMARK                         _______ _______ _______ _____ _____    ______ ____
ROOT
ATOM      1  C   UNL A   1     -28.016  -0.814  28.878  0.00  0.00    +0.136 A 
ATOM      2  C   UNL A   1     -28.469  -0.785  29.829  0.00  0.00    +0.029 A 
ATOM      3  C   UNL A   1     -26.504  -0.778  28.877  0.00  0.00    +0.008 A 
ATOM      4  C   UNL A   1     -25.654  -0.660  27.719  0.00  0.00    +0.055 C 
ATOM      5  C   UNL A   1     -27.918  -0.937  31.182  0.00  0.00    +0.002 A 
ATOM      6  C   UNL A   1     -26.542  -0.940  31.261  0.00  0.00    -0.003 A 
ATOM      7  C   UNL A   1     -25.783  -0.893  30.120  0.00  0.00    -0.000 A 
ATOM      8  C   UNL A   1     -25.926   0.282  26.744  0.00  0.00    -0.016 C 
ATOM      9  C   UNL A   1     -24.990   0.678  25.868  0.00  0.00    -0.004 C 
ATOM     10  C   UNL A   1     -24.189   1.608  25.848  0.00  0.00    -0.000 C 
ATOM     11  C   UNL A   1     -23.330   2.008  26.816  0.00  0.00    -0.000 C 
ATOM     12  C   UNL A   1     -22.680   1.509  27.709  0.00  0.00    -0.000 C 
ATOM     13  C   UNL A   1     -23.273   0.812  28.663  0.00  0.00    -0.000 C 
ATOM     14  C   UNL A   1     -22.375   0.266  29.763  0.00  0.00    -0.002 C 
ATOM     15  C   UNL A   1     -23.104  -0.504  30.706  0.00  0.00    +0.003 C 
ATOM     16  F   UNL A   1     -28.048  -1.926  28.329  0.00  0.00    -0.204 F 
ATOM     17  C   UNL A   1     -22.087  -0.915  31.780  0.00  0.00    +0.015 C 
ATOM     18  C   UNL A   1     -22.872  -1.568  32.840  0.00  0.00    +0.081 C 
ATOM     19  N   UNL A   1     -24.228  -1.449  32.747  0.00  0.00    -0.229 NA
ATOM     20  C   UNL A   1     -24.326  -0.606  31.221  0.00  0.00    +0.137 C 
ENDROOT
BRANCH   8  21
ATOM     21  C   UNL A   1     -27.199   0.931  26.666  0.00  0.00    +0.024 A 
ATOM     22  C   UNL A   1     -27.376   1.979  25.985  0.00  0.00    +0.002 A 
ATOM     23  C   UNL A   1     -28.712   2.614  25.876  0.00  0.00    +0.000 A 
ATOM     24  C   UNL A   1     -29.751   2.049  26.463  0.00  0.00    +0.002 A 
ATOM     25  C   UNL A   1     -29.566   0.877  27.123  0.00  0.00    +0.030 A 
ATOM     26  C   UNL A   1     -28.360   0.316  27.287  0.00  0.00    +0.140 A 
ATOM     27  F   UNL A   1     -28.404  -0.883  26.641  0.00  0.00    -0.204 F 
ENDBRANCH   8  21
TORSDOF 1
