MODEL 3672
MODEL 1
REMARK VINA RESULT:    -5.254      0.000      0.000
REMARK INTER + INTRA:          -6.212
REMARK INTER:                  -5.868
REMARK INTRA:                  -0.344
REMARK UNBOUND:                -0.344
REMARK  Name = No_3672-gen_results/8p0m/2024-11-26-14-13-15/
REMARK  2 active torsions:
REMARK  status: ('A' for Active; 'I' for Inactive)
REMARK    1  A    between atoms: C_2  and  C_4
REMARK    2  A    between atoms: C_4  and  C_6
REMARK                            x       y       z     vdW  Elec       q    Type
REMARK                         _______ _______ _______ _____ _____    ______ ____
ROOT
ATOM      1  C   UNL A   1     -24.457  -2.497  28.900  0.00  0.00    -0.014 A 
ATOM      2  C   UNL A   1     -23.941  -3.811  28.551  0.00  0.00    -0.004 A 
ATOM      3  C   UNL A   1     -24.701  -4.961  28.912  0.00  0.00    -0.000 A 
ATOM      4  C   UNL A   1     -25.922  -4.873  29.593  0.00  0.00    -0.000 A 
ATOM      5  C   UNL A   1     -26.425  -3.573  29.880  0.00  0.00    -0.000 A 
ATOM      6  C   UNL A   1     -25.732  -2.434  29.536  0.00  0.00    -0.004 A 
ENDROOT
BRANCH   1   7
ATOM      7  C   UNL A   1     -23.792  -1.297  28.668  0.00  0.00    +0.130 C 
BRANCH   7   9
ATOM      8  F   UNL A   1     -21.622  -1.276  29.027  0.00  0.00    -0.170 F 
ATOM      9  C   UNL A   1     -22.596  -0.934  29.523  0.00  0.00    +0.402 C 
ATOM     10  F   UNL A   1     -22.736  -1.197  30.662  0.00  0.00    -0.170 F 
ATOM     11  F   UNL A   1     -22.561   0.489  29.412  0.00  0.00    -0.170 F 
ENDBRANCH   7   9
ENDBRANCH   1   7
TORSDOF 2
ENDMDL
ENDMDL
