REMARK  Name = No_3672-gen_results/8p0m/2024-11-26-14-13-15/
REMARK  2 active torsions:
REMARK  status: ('A' for Active; 'I' for Inactive)
REMARK    1  A    between atoms: C_2  and  C_4
REMARK    2  A    between atoms: C_4  and  C_6
REMARK                            x       y       z     vdW  Elec       q    Type
REMARK                         _______ _______ _______ _____ _____    ______ ____
ROOT
ATOM      1  C   UNL A   1     -25.377   0.407  27.401  0.00  0.00    -0.014 A 
ATOM      2  C   UNL A   1     -24.747   1.281  26.425  0.00  0.00    -0.004 A 
ATOM      3  C   UNL A   1     -23.358   1.567  26.560  0.00  0.00    -0.000 A 
ATOM      4  C   UNL A   1     -22.579   1.042  27.599  0.00  0.00    -0.000 A 
ATOM      5  C   UNL A   1     -23.211   0.153  28.513  0.00  0.00    -0.000 A 
ATOM      6  C   UNL A   1     -24.547  -0.164  28.411  0.00  0.00    -0.004 A 
ENDROOT
BRANCH   1   7
ATOM      7  C   UNL A   1     -26.733   0.096  27.429  0.00  0.00    +0.130 C 
BRANCH   7   9
ATOM      8  F   UNL A   1     -28.073  -1.254  28.532  0.00  0.00    -0.170 F 
ATOM      9  C   UNL A   1     -27.359  -0.379  28.722  0.00  0.00    +0.402 C 
ATOM     10  F   UNL A   1     -27.758   0.497  29.401  0.00  0.00    -0.170 F 
ATOM     11  F   UNL A   1     -26.252  -0.975  29.398  0.00  0.00    -0.170 F 
ENDBRANCH   7   9
ENDBRANCH   1   7
TORSDOF 2
