MODEL 3673
MODEL 1
REMARK VINA RESULT:    -6.382      0.000      0.000
REMARK INTER + INTRA:          -7.606
REMARK INTER:                  -7.128
REMARK INTRA:                  -0.478
REMARK UNBOUND:                -0.478
REMARK  Name = No_3673-gen_results/8p0m/2024-11-26-14-13-15/
REMARK  2 active torsions:
REMARK  status: ('A' for Active; 'I' for Inactive)
REMARK    1  A    between atoms: C_2  and  C_3
REMARK    2  A    between atoms: N_4  and  C_15
REMARK                            x       y       z     vdW  Elec       q    Type
REMARK                         _______ _______ _______ _____ _____    ______ ____
ROOT
ATOM      1  C   UNL A   1     -24.553  -2.633  29.358  0.00  0.00    +0.099 C 
ATOM      2  C   UNL A   1     -25.796  -2.863  29.785  0.00  0.00    -0.018 A 
ATOM      3  C   UNL A   1     -23.831  -3.623  28.607  0.00  0.00    +0.014 C 
ATOM      4  C   UNL A   1     -26.674  -2.048  30.512  0.00  0.00    -0.004 A 
ATOM      5  C   UNL A   1     -27.962  -2.355  30.829  0.00  0.00    -0.000 A 
ATOM      6  C   UNL A   1     -28.318  -3.718  30.670  0.00  0.00    -0.000 A 
ATOM      7  C   UNL A   1     -27.490  -4.699  30.167  0.00  0.00    -0.005 A 
ATOM      8  C   UNL A   1     -26.262  -4.295  29.723  0.00  0.00    -0.026 A 
ATOM      9  C   UNL A   1     -25.402  -5.228  29.142  0.00  0.00    +0.026 C 
ATOM     10  C   UNL A   1     -24.194  -4.912  28.585  0.00  0.00    +0.005 C 
ENDROOT
BRANCH   1  12
ATOM     11  O   UNL A   1     -23.356  -1.267  30.622  0.00  0.00    -0.274 OA
ATOM     12  C   UNL A   1     -23.980  -1.415  29.665  0.00  0.00    +0.233 C 
ATOM     13  N   UNL A   1     -24.109  -0.391  28.611  0.00  0.00    -0.256 N 
ATOM     14  C   UNL A   1     -23.527   0.864  28.872  0.00  0.00    +0.120 C 
BRANCH  13  15
ATOM     15  C   UNL A   1     -24.806  -0.599  27.416  0.00  0.00    +0.063 C 
ATOM     16  C   UNL A   1     -25.791   0.155  27.181  0.00  0.00    -0.010 C 
ATOM     17  C   UNL A   1     -26.878   0.301  27.904  0.00  0.00    +0.032 C 
ENDBRANCH  13  15
ENDBRANCH   1  12
TORSDOF 2
ENDMDL
ENDMDL
