REMARK  Name = No_3673-gen_results/8p0m/2024-11-26-14-13-15/
REMARK  2 active torsions:
REMARK  status: ('A' for Active; 'I' for Inactive)
REMARK    1  A    between atoms: C_2  and  C_3
REMARK    2  A    between atoms: N_4  and  C_15
REMARK                            x       y       z     vdW  Elec       q    Type
REMARK                         _______ _______ _______ _____ _____    ______ ____
ROOT
ATOM      1  C   UNL A   1     -26.380  -0.087  27.939  0.00  0.00    +0.099 C 
ATOM      2  C   UNL A   1     -25.177  -0.439  28.395  0.00  0.00    -0.018 A 
ATOM      3  C   UNL A   1     -26.526   0.604  26.687  0.00  0.00    +0.014 C 
ATOM      4  C   UNL A   1     -24.810  -1.118  29.565  0.00  0.00    -0.004 A 
ATOM      5  C   UNL A   1     -23.547  -1.500  29.898  0.00  0.00    -0.000 A 
ATOM      6  C   UNL A   1     -22.511  -0.891  29.145  0.00  0.00    -0.000 A 
ATOM      7  C   UNL A   1     -22.703  -0.023  28.092  0.00  0.00    -0.005 A 
ATOM      8  C   UNL A   1     -23.996   0.199  27.709  0.00  0.00    -0.026 A 
ATOM      9  C   UNL A   1     -24.255   1.016  26.608  0.00  0.00    +0.026 C 
ATOM     10  C   UNL A   1     -25.503   1.228  26.089  0.00  0.00    +0.005 C 
ENDROOT
BRANCH   1  12
ATOM     11  O   UNL A   1     -28.123  -1.335  28.487  0.00  0.00    -0.274 OA
ATOM     12  C   UNL A   1     -27.481  -0.404  28.709  0.00  0.00    +0.233 C 
ATOM     13  N   UNL A   1     -27.666   0.447  29.899  0.00  0.00    -0.256 N 
ATOM     14  C   UNL A   1     -28.769   0.152  30.724  0.00  0.00    +0.120 C 
BRANCH  13  15
ATOM     15  C   UNL A   1     -26.840   1.533  30.206  0.00  0.00    +0.063 C 
ATOM     16  C   UNL A   1     -26.090   1.424  31.215  0.00  0.00    -0.010 C 
ATOM     17  C   UNL A   1     -26.449   1.220  32.462  0.00  0.00    +0.032 C 
ENDBRANCH  13  15
ENDBRANCH   1  12
TORSDOF 2
