MODEL 3674
MODEL 1
REMARK VINA RESULT:    -7.818      0.000      0.000
REMARK INTER + INTRA:          -9.549
REMARK INTER:                  -8.732
REMARK INTRA:                  -0.817
REMARK UNBOUND:                -0.817
REMARK  Name = No_3674-gen_results/8p0m/2024-11-26-14-13-15/
REMARK  2 active torsions:
REMARK  status: ('A' for Active; 'I' for Inactive)
REMARK    1  A    between atoms: C_4  and  C_7
REMARK    2  A    between atoms: C_7  and  N_8
REMARK                            x       y       z     vdW  Elec       q    Type
REMARK                         _______ _______ _______ _____ _____    ______ ____
ROOT
ATOM      1  N   UNL A   1     -23.480  -1.573  29.931  0.00  0.00    -0.302 N 
ATOM      2  C   UNL A   1     -23.427  -1.060  31.207  0.00  0.00    +0.111 C 
ATOM      3  C   UNL A   1     -24.312  -2.668  29.725  0.00  0.00    +0.052 A 
ATOM      4  C   UNL A   1     -24.429  -0.252  31.681  0.00  0.00    +0.097 C 
ATOM      5  C   UNL A   1     -24.078  -3.728  29.222  0.00  0.00    +0.015 A 
ATOM      6  C   UNL A   1     -25.066  -4.855  29.109  0.00  0.00    +0.001 A 
ATOM      7  C   UNL A   1     -26.315  -4.590  29.618  0.00  0.00    +0.000 A 
ATOM      8  C   UNL A   1     -26.646  -3.316  30.023  0.00  0.00    +0.006 A 
ATOM      9  C   UNL A   1     -25.692  -2.369  30.218  0.00  0.00    +0.068 A 
ATOM     10  C   UNL A   1     -26.035  -1.228  31.018  0.00  0.00    +0.266 C 
ATOM     11  C   UNL A   1     -24.851  -0.291  33.100  0.00  0.00    +0.024 C 
ATOM     12  O   UNL A   1     -27.026  -0.724  31.265  0.00  0.00    -0.268 OA
ATOM     13  C   UNL A   1     -24.807   0.956  30.973  0.00  0.00    +0.024 C 
ATOM     14  N   UNL A   1     -25.370  -0.504  31.381  0.00  0.00    -0.203 NA
ENDROOT
BRANCH   1  15
ATOM     15  C   UNL A   1     -22.625  -1.114  28.937  0.00  0.00    +0.118 C 
BRANCH  15  19
ATOM     16  C   UNL A   1     -24.886   0.961  26.615  0.00  0.00    -0.000 A 
ATOM     17  C   UNL A   1     -24.248   1.798  26.561  0.00  0.00    -0.000 A 
ATOM     18  C   UNL A   1     -24.366  -0.201  27.432  0.00  0.00    -0.003 A 
ATOM     19  C   UNL A   1     -23.171  -0.050  28.166  0.00  0.00    -0.002 A 
ATOM     20  C   UNL A   1     -23.000   2.216  27.240  0.00  0.00    -0.000 A 
ATOM     21  C   UNL A   1     -22.495   1.174  28.006  0.00  0.00    -0.003 A 
ENDBRANCH  15  19
ENDBRANCH   1  15
TORSDOF 2
ENDMDL
ENDMDL
