REMARK  Name = No_3674-gen_results/8p0m/2024-11-26-14-13-15/
REMARK  2 active torsions:
REMARK  status: ('A' for Active; 'I' for Inactive)
REMARK    1  A    between atoms: C_4  and  C_7
REMARK    2  A    between atoms: C_7  and  N_8
REMARK                            x       y       z     vdW  Elec       q    Type
REMARK                         _______ _______ _______ _____ _____    ______ ____
ROOT
ATOM      1  N   UNL A   1     -23.867   0.458  29.914  0.00  0.00    -0.302 N 
ATOM      2  C   UNL A   1     -22.698   0.617  29.206  0.00  0.00    +0.111 C 
ATOM      3  C   UNL A   1     -24.413   1.597  30.497  0.00  0.00    +0.052 A 
ATOM      4  C   UNL A   1     -22.712   1.130  27.934  0.00  0.00    +0.097 C 
ATOM      5  C   UNL A   1     -24.759   1.794  31.625  0.00  0.00    +0.015 A 
ATOM      6  C   UNL A   1     -25.289   3.104  32.138  0.00  0.00    +0.001 A 
ATOM      7  C   UNL A   1     -25.378   4.105  31.201  0.00  0.00    +0.000 A 
ATOM      8  C   UNL A   1     -25.163   3.833  29.868  0.00  0.00    +0.006 A 
ATOM      9  C   UNL A   1     -24.574   2.675  29.472  0.00  0.00    +0.068 A 
ATOM     10  C   UNL A   1     -24.008   2.628  28.154  0.00  0.00    +0.266 C 
ATOM     11  C   UNL A   1     -21.621   1.997  27.435  0.00  0.00    +0.024 C 
ATOM     12  O   UNL A   1     -24.220   3.210  27.198  0.00  0.00    -0.268 OA
ATOM     13  C   UNL A   1     -23.519   0.518  26.895  0.00  0.00    +0.024 C 
ATOM     14  N   UNL A   1     -23.393   1.872  27.771  0.00  0.00    -0.203 NA
ENDROOT
BRANCH   1  15
ATOM     15  C   UNL A   1     -24.389  -0.805  30.164  0.00  0.00    +0.118 C 
BRANCH  15  19
ATOM     16  C   UNL A   1     -28.016  -0.814  28.878  0.00  0.00    -0.000 A 
ATOM     17  C   UNL A   1     -28.469  -0.785  29.829  0.00  0.00    -0.000 A 
ATOM     18  C   UNL A   1     -26.504  -0.778  28.877  0.00  0.00    -0.003 A 
ATOM     19  C   UNL A   1     -25.810  -0.853  30.103  0.00  0.00    -0.002 A 
ATOM     20  C   UNL A   1     -27.991  -0.892  31.226  0.00  0.00    -0.000 A 
ATOM     21  C   UNL A   1     -26.604  -0.868  31.265  0.00  0.00    -0.003 A 
ENDBRANCH  15  19
ENDBRANCH   1  15
TORSDOF 2
