MODEL 3675
MODEL 1
REMARK VINA RESULT:    -4.344      0.000      0.000
REMARK INTER + INTRA:          -4.344
REMARK INTER:                  -4.344
REMARK INTRA:                   0.000
REMARK UNBOUND:                 0.000
REMARK  Name = No_3675-gen_results/8p0m/2024-11-26-14-13-15/
REMARK  0 active torsions:
REMARK  status: ('A' for Active; 'I' for Inactive)
REMARK                            x       y       z     vdW  Elec       q    Type
REMARK                         _______ _______ _______ _____ _____    ______ ____
ROOT
ATOM      1  C   UNL A   1     -24.154  -4.852  28.571  0.00  0.00    +0.000 A 
ATOM      2  C   UNL A   1     -24.988  -5.298  29.036  0.00  0.00    +0.000 A 
ATOM      3  C   UNL A   1     -24.092  -3.396  28.754  0.00  0.00    +0.000 A 
ATOM      4  C   UNL A   1     -25.091  -2.699  29.295  0.00  0.00    +0.000 A 
ATOM      5  C   UNL A   1     -26.181  -4.764  29.647  0.00  0.00    +0.000 A 
ATOM      6  C   UNL A   1     -26.115  -3.409  29.786  0.00  0.00    +0.000 A 
ENDROOT
TORSDOF 0
ENDMDL
ENDMDL
