MODEL 3676
MODEL 1
REMARK VINA RESULT:    -5.269      0.000      0.000
REMARK INTER + INTRA:          -5.724
REMARK INTER:                  -5.577
REMARK INTRA:                  -0.147
REMARK UNBOUND:                -0.147
REMARK  Name = No_3676-gen_results/8p0m/2024-11-26-14-13-15/
REMARK  1 active torsions:
REMARK  status: ('A' for Active; 'I' for Inactive)
REMARK    1  A    between atoms: C_4  and  C_7
REMARK                            x       y       z     vdW  Elec       q    Type
REMARK                         _______ _______ _______ _____ _____    ______ ____
ROOT
ATOM      1  C   UNL A   1     -26.516  -3.879  29.930  0.00  0.00    -0.000 A 
ATOM      2  C   UNL A   1     -26.207  -4.844  29.640  0.00  0.00    -0.000 A 
ATOM      3  C   UNL A   1     -25.529  -2.798  29.777  0.00  0.00    -0.000 A 
ATOM      4  C   UNL A   1     -24.279  -3.043  29.136  0.00  0.00    -0.000 A 
ATOM      5  C   UNL A   1     -24.042  -4.340  28.757  0.00  0.00    -0.000 A 
ATOM      6  C   UNL A   1     -24.974  -5.299  28.944  0.00  0.00    -0.000 A 
ENDROOT
BRANCH   4   7
ATOM      7  C   UNL A   1     -23.308  -1.994  28.962  0.00  0.00    -0.005 C 
ATOM      8  C   UNL A   1     -23.578  -0.783  28.662  0.00  0.00    -0.026 C 
ATOM      9  C   UNL A   1     -22.583   0.296  28.697  0.00  0.00    +0.031 C 
ENDBRANCH   4   7
TORSDOF 1
ENDMDL
ENDMDL
