MODEL 3677
MODEL 1
REMARK VINA RESULT:    -7.459      0.000      0.000
REMARK INTER + INTRA:          -8.917
REMARK INTER:                  -8.332
REMARK INTRA:                  -0.586
REMARK UNBOUND:                -0.586
REMARK  Name = No_3677-gen_results/8p0m/2024-11-26-14-13-15/
REMARK  2 active torsions:
REMARK  status: ('A' for Active; 'I' for Inactive)
REMARK    1  A    between atoms: C_3  and  C_7
REMARK    2  A    between atoms: C_9  and  C_17
REMARK                            x       y       z     vdW  Elec       q    Type
REMARK                         _______ _______ _______ _____ _____    ______ ____
ROOT
ATOM      1  C   UNL A   1     -24.362  -0.884  29.164  0.00  0.00    +0.006 A 
ATOM      2  C   UNL A   1     -24.661  -0.241  27.954  0.00  0.00    +0.000 A 
ATOM      3  C   UNL A   1     -23.686  -0.236  30.175  0.00  0.00    +0.080 A 
ATOM      4  C   UNL A   1     -23.437   1.114  30.064  0.00  0.00    +0.007 A 
ATOM      5  C   UNL A   1     -25.436  -0.833  26.885  0.00  0.00    +0.000 A 
ATOM      6  C   UNL A   1     -25.465  -0.149  25.699  0.00  0.00    +0.000 A 
ATOM      7  C   UNL A   1     -23.731   1.812  28.869  0.00  0.00    +0.000 A 
ATOM      8  C   UNL A   1     -24.341   1.158  27.833  0.00  0.00    +0.000 A 
ATOM      9  C   UNL A   1     -24.486   0.737  25.318  0.00  0.00    +0.000 A 
ATOM     10  C   UNL A   1     -24.084   1.579  26.447  0.00  0.00    +0.000 A 
ENDROOT
BRANCH   1  13
ATOM     11  C   UNL A   1     -26.052  -2.722  29.745  0.00  0.00    +0.000 A 
ATOM     12  C   UNL A   1     -26.271  -3.753  29.750  0.00  0.00    +0.000 A 
ATOM     13  C   UNL A   1     -24.793  -2.318  29.249  0.00  0.00    +0.000 A 
ATOM     14  C   UNL A   1     -23.861  -3.229  28.792  0.00  0.00    +0.000 A 
ATOM     15  C   UNL A   1     -24.233  -4.563  28.828  0.00  0.00    +0.000 A 
ATOM     16  C   UNL A   1     -25.487  -4.907  29.286  0.00  0.00    +0.000 A 
ENDBRANCH   1  13
BRANCH   3  17
ATOM     17  C   UNL A   1     -23.474  -0.898  31.450  0.00  0.00    +0.388 C 
ATOM     18  O   UNL A   1     -22.402  -1.201  31.599  0.00  0.00    -0.241 OA
ATOM     19  O   UNL A   1     -24.395  -1.178  32.256  0.00  0.00    -0.241 OA
ENDBRANCH   3  17
TORSDOF 2
ENDMDL
ENDMDL
