REMARK  Name = No_3677-gen_results/8p0m/2024-11-26-14-13-15/
REMARK  2 active torsions:
REMARK  status: ('A' for Active; 'I' for Inactive)
REMARK    1  A    between atoms: C_3  and  C_7
REMARK    2  A    between atoms: C_9  and  C_17
REMARK                            x       y       z     vdW  Elec       q    Type
REMARK                         _______ _______ _______ _____ _____    ______ ____
ROOT
ATOM      1  C   UNL A   1     -26.408   0.307  27.226  0.00  0.00    +0.006 A 
ATOM      2  C   UNL A   1     -25.011   0.390  27.323  0.00  0.00    +0.000 A 
ATOM      3  C   UNL A   1     -27.046   0.329  26.005  0.00  0.00    +0.080 A 
ATOM      4  C   UNL A   1     -26.297   0.270  24.850  0.00  0.00    +0.007 A 
ATOM      5  C   UNL A   1     -24.272   0.292  28.564  0.00  0.00    +0.000 A 
ATOM      6  C   UNL A   1     -22.937   0.592  28.506  0.00  0.00    +0.000 A 
ATOM      7  C   UNL A   1     -24.885   0.338  24.895  0.00  0.00    +0.000 A 
ATOM      8  C   UNL A   1     -24.245   0.387  26.104  0.00  0.00    +0.000 A 
ATOM      9  C   UNL A   1     -22.389   1.398  27.537  0.00  0.00    +0.000 A 
ATOM     10  C   UNL A   1     -22.955   1.084  26.224  0.00  0.00    +0.000 A 
ENDROOT
BRANCH   1  13
ATOM     11  C   UNL A   1     -28.016  -0.814  28.878  0.00  0.00    +0.000 A 
ATOM     12  C   UNL A   1     -28.469  -0.785  29.829  0.00  0.00    +0.000 A 
ATOM     13  C   UNL A   1     -27.136   0.236  28.535  0.00  0.00    +0.000 A 
ATOM     14  C   UNL A   1     -26.875   1.282  29.398  0.00  0.00    +0.000 A 
ATOM     15  C   UNL A   1     -27.507   1.238  30.630  0.00  0.00    +0.000 A 
ATOM     16  C   UNL A   1     -28.329   0.174  30.935  0.00  0.00    +0.000 A 
ENDBRANCH   1  13
BRANCH   3  17
ATOM     17  C   UNL A   1     -28.485   0.147  25.932  0.00  0.00    +0.388 C 
ATOM     18  O   UNL A   1     -29.017   1.086  25.619  0.00  0.00    -0.241 OA
ATOM     19  O   UNL A   1     -29.075  -0.911  26.264  0.00  0.00    -0.241 OA
ENDBRANCH   3  17
TORSDOF 2
