REMARK  Name = No_3678-gen_results/8p0m/2024-11-26-14-13-15/
REMARK  4 active torsions:
REMARK  status: ('A' for Active; 'I' for Inactive)
REMARK    1  A    between atoms: C_6  and  C_8
REMARK    2  A    between atoms: N_9  and  C_11
REMARK    3  A    between atoms: C_11  and  C_12
REMARK    4  A    between atoms: C_16  and  C_18
REMARK                            x       y       z     vdW  Elec       q    Type
REMARK                         _______ _______ _______ _____ _____    ______ ____
ROOT
ATOM      1  C   UNL A   1     -32.438  -2.727  29.973  0.00  0.00    -0.001 A 
ATOM      2  C   UNL A   1     -33.179  -3.243  29.368  0.00  0.00    -0.003 A 
ATOM      3  C   UNL A   1     -34.352  -2.773  28.528  0.00  0.00    -0.000 A 
ATOM      4  C   UNL A   1     -34.532  -1.396  28.544  0.00  0.00    -0.000 A 
ATOM      5  C   UNL A   1     -33.683  -0.603  29.213  0.00  0.00    -0.000 A 
ATOM      6  C   UNL A   1     -32.612  -1.125  29.901  0.00  0.00    -0.003 A 
ENDROOT
BRANCH   5   7
ATOM      7  C   UNL A   1     -33.880   0.876  29.208  0.00  0.00    -0.000 A 
ATOM      8  C   UNL A   1     -33.446   1.819  29.126  0.00  0.00    -0.000 A 
ATOM      9  C   UNL A   1     -33.944   3.161  29.221  0.00  0.00    -0.000 A 
ATOM     10  C   UNL A   1     -35.312   3.227  29.312  0.00  0.00    +0.000 A 
ATOM     11  C   UNL A   1     -36.026   2.108  29.392  0.00  0.00    -0.000 A 
ATOM     12  C   UNL A   1     -35.463   0.895  29.389  0.00  0.00    -0.000 A 
ENDBRANCH   5   7
BRANCH   1  13
ATOM     13  C   UNL A   1     -31.378  -3.056  30.635  0.00  0.00    +0.142 C 
BRANCH  13  15
ATOM     14  C   UNL A   1     -29.026  -2.816  30.158  0.00  0.00    +0.265 C 
ATOM     15  N   UNL A   1     -30.206  -2.272  30.264  0.00  0.00    -0.197 NA
ATOM     16  O   UNL A   1     -28.863  -4.027  30.446  0.00  0.00    -0.268 OA
BRANCH  14  22
ATOM     17  C   UNL A   1     -28.016  -0.814  28.878  0.00  0.00    +0.005 A 
ATOM     18  C   UNL A   1     -27.064  -0.119  28.608  0.00  0.00    +0.011 A 
ATOM     19  C   UNL A   1     -25.765  -0.390  29.036  0.00  0.00    +0.058 A 
ATOM     20  C   UNL A   1     -25.530  -1.530  29.901  0.00  0.00    +0.011 A 
ATOM     21  C   UNL A   1     -26.689  -2.289  30.181  0.00  0.00    +0.005 A 
ATOM     22  C   UNL A   1     -27.873  -1.951  29.737  0.00  0.00    +0.055 A 
ATOM     23 CL   UNL A   1     -24.382   0.559  28.679  0.00  0.00    -0.082 Cl
ENDBRANCH  14  22
ENDBRANCH  13  15
ENDBRANCH   1  13
TORSDOF 4
