MODEL 3678
MODEL 1
REMARK VINA RESULT:    -8.142      0.000      0.000
REMARK INTER + INTRA:         -11.054
REMARK INTER:                 -10.046
REMARK INTRA:                  -1.008
REMARK UNBOUND:                -1.008
REMARK  Name = No_3678-gen_results/8p0m/2024-11-26-14-13-15/
REMARK  4 active torsions:
REMARK  status: ('A' for Active; 'I' for Inactive)
REMARK    1  A    between atoms: C_6  and  C_8
REMARK    2  A    between atoms: N_9  and  C_11
REMARK    3  A    between atoms: C_11  and  C_12
REMARK    4  A    between atoms: C_16  and  C_18
REMARK                            x       y       z     vdW  Elec       q    Type
REMARK                         _______ _______ _______ _____ _____    ______ ____
ROOT
ATOM      1  C   UNL A   1     -23.029   1.005  27.589  0.00  0.00    -0.001 A 
ATOM      2  C   UNL A   1     -22.066   0.837  28.065  0.00  0.00    -0.003 A 
ATOM      3  C   UNL A   1     -21.532  -0.241  28.990  0.00  0.00    -0.000 A 
ATOM      4  C   UNL A   1     -22.471  -1.211  29.315  0.00  0.00    -0.000 A 
ATOM      5  C   UNL A   1     -23.702  -1.176  28.785  0.00  0.00    -0.000 A 
ATOM      6  C   UNL A   1     -24.072  -0.183  27.907  0.00  0.00    -0.003 A 
ENDROOT
BRANCH   5   7
ATOM      7  C   UNL A   1     -24.696  -2.234  29.131  0.00  0.00    -0.000 A 
ATOM      8  C   UNL A   1     -25.645  -2.462  29.492  0.00  0.00    -0.000 A 
ATOM      9  C   UNL A   1     -26.342  -3.684  29.774  0.00  0.00    -0.000 A 
ATOM     10  C   UNL A   1     -25.663  -4.803  29.360  0.00  0.00    +0.000 A 
ATOM     11  C   UNL A   1     -24.444  -4.685  28.841  0.00  0.00    -0.000 A 
ATOM     12  C   UNL A   1     -23.834  -3.504  28.702  0.00  0.00    -0.000 A 
ENDBRANCH   5   7
BRANCH   1  13
ATOM     13  C   UNL A   1     -23.516   1.844  26.736  0.00  0.00    +0.142 C 
BRANCH  13  15
ATOM     14  C   UNL A   1     -25.670   2.210  25.715  0.00  0.00    +0.265 C 
ATOM     15  N   UNL A   1     -24.752   1.378  26.118  0.00  0.00    -0.197 NA
ATOM     16  O   UNL A   1     -25.537   3.442  25.919  0.00  0.00    -0.268 OA
BRANCH  14  22
ATOM     17  C   UNL A   1     -27.077   0.266  24.762  0.00  0.00    +0.005 A 
ATOM     18  C   UNL A   1     -28.107  -0.138  24.275  0.00  0.00    +0.011 A 
ATOM     19  C   UNL A   1     -29.161   0.694  23.900  0.00  0.00    +0.058 A 
ATOM     20  C   UNL A   1     -29.061   2.119  24.153  0.00  0.00    +0.011 A 
ATOM     21  C   UNL A   1     -27.834   2.516  24.731  0.00  0.00    +0.005 A 
ATOM     22  C   UNL A   1     -26.901   1.657  25.056  0.00  0.00    +0.055 A 
ATOM     23 CL   UNL A   1     -30.640   0.174  23.204  0.00  0.00    -0.082 Cl
ENDBRANCH  14  22
ENDBRANCH  13  15
ENDBRANCH   1  13
TORSDOF 4
ENDMDL
ENDMDL
