REMARK  Name = No_3679-gen_results/8p0m/2024-11-26-14-13-15/
REMARK  4 active torsions:
REMARK  status: ('A' for Active; 'I' for Inactive)
REMARK    1  A    between atoms: C_1  and  C_2
REMARK    2  A    between atoms: C_3  and  C_20
REMARK    3  A    between atoms: C_5  and  C_12
REMARK    4  A    between atoms: C_11  and  C_16
REMARK                            x       y       z     vdW  Elec       q    Type
REMARK                         _______ _______ _______ _____ _____    ______ ____
ROOT
ATOM      1  C   UNL A   1     -27.064  -0.119  28.608  0.00  0.00    +0.060 A 
ATOM      2  C   UNL A   1     -26.929   1.171  29.008  0.00  0.00    +0.084 A 
ATOM      3  C   UNL A   1     -25.770   2.034  28.688  0.00  0.00    +0.011 A 
ATOM      4  C   UNL A   1     -24.714   1.443  27.919  0.00  0.00    +0.072 A 
ATOM      5  C   UNL A   1     -24.859   0.078  27.584  0.00  0.00    +0.004 A 
ATOM      6  C   UNL A   1     -25.965  -0.661  27.916  0.00  0.00    +0.005 A 
ENDROOT
BRANCH   1   7
ATOM      7  C   UNL A   1     -28.016  -0.814  28.878  0.00  0.00    +0.255 C 
ATOM      8  N   UNL A   1     -27.982  -1.637  30.075  0.00  0.00    -0.216 N 
ATOM      9  O   UNL A   1     -29.032  -0.782  28.370  0.00  0.00    -0.270 OA
ATOM     10  C   UNL A   1     -26.780  -1.813  30.927  0.00  0.00    +0.124 C 
ATOM     11  C   UNL A   1     -29.092  -2.463  30.494  0.00  0.00    +0.335 C 
ATOM     12  O   UNL A   1     -29.257  -3.505  29.799  0.00  0.00    -0.262 OA
BRANCH  11  13
ATOM     13  C   UNL A   1     -29.653  -2.201  31.724  0.00  0.00    +0.441 C 
ATOM     14  O   UNL A   1     -29.072  -1.285  32.240  0.00  0.00    -0.235 OA
ATOM     15  O   UNL A   1     -30.632  -2.880  32.043  0.00  0.00    -0.235 OA
ENDBRANCH  11  13
ENDBRANCH   1   7
BRANCH   4  16
ATOM     16  C   UNL A   1     -23.512   2.152  27.547  0.00  0.00    +0.419 C 
ATOM     17  F   UNL A   1     -23.267   2.896  28.182  0.00  0.00    -0.166 F 
ATOM     18  F   UNL A   1     -23.673   2.618  26.226  0.00  0.00    -0.166 F 
ATOM     19  F   UNL A   1     -22.449   1.260  27.356  0.00  0.00    -0.166 F 
ENDBRANCH   4  16
BRANCH   2  20
ATOM     20  C   UNL A   1     -27.915   1.973  29.818  0.00  0.00    +0.388 C 
ATOM     21  O   UNL A   1     -27.831   2.349  30.740  0.00  0.00    -0.241 OA
ATOM     22  O   UNL A   1     -29.069   2.077  29.049  0.00  0.00    -0.241 OA
ENDBRANCH   2  20
TORSDOF 4
