MODEL 3679
MODEL 1
REMARK VINA RESULT:    -6.442      0.000      0.000
REMARK INTER + INTRA:          -8.614
REMARK INTER:                  -7.949
REMARK INTRA:                  -0.665
REMARK UNBOUND:                -0.665
REMARK  Name = No_3679-gen_results/8p0m/2024-11-26-14-13-15/
REMARK  4 active torsions:
REMARK  status: ('A' for Active; 'I' for Inactive)
REMARK    1  A    between atoms: C_1  and  C_2
REMARK    2  A    between atoms: C_3  and  C_20
REMARK    3  A    between atoms: C_5  and  C_12
REMARK    4  A    between atoms: C_11  and  C_16
REMARK                            x       y       z     vdW  Elec       q    Type
REMARK                         _______ _______ _______ _____ _____    ______ ____
ROOT
ATOM      1  C   UNL A   1      -7.112   0.528   9.037  0.00  0.00    +0.060 A 
ATOM      2  C   UNL A   1      -7.491   0.037  10.244  0.00  0.00    +0.084 A 
ATOM      3  C   UNL A   1      -8.549   0.624  11.096  0.00  0.00    +0.011 A 
ATOM      4  C   UNL A   1      -9.195   1.807  10.607  0.00  0.00    +0.072 A 
ATOM      5  C   UNL A   1      -8.722   2.328   9.381  0.00  0.00    +0.004 A 
ATOM      6  C   UNL A   1      -7.734   1.728   8.644  0.00  0.00    +0.005 A 
ENDROOT
BRANCH   1   7
ATOM      7  C   UNL A   1      -6.244   0.040   8.351  0.00  0.00    +0.255 C 
ATOM      8  N   UNL A   1      -4.851   0.303   8.669  0.00  0.00    -0.216 N 
ATOM      9  O   UNL A   1      -6.392  -0.753   7.550  0.00  0.00    -0.270 OA
ATOM     10  C   UNL A   1      -4.404   1.272   9.699  0.00  0.00    +0.124 C 
ATOM     11  C   UNL A   1      -3.752  -0.275   7.928  0.00  0.00    +0.335 C 
ATOM     12  O   UNL A   1      -3.572   0.231   6.785  0.00  0.00    -0.262 OA
BRANCH  11  13
ATOM     13  C   UNL A   1      -2.870  -1.077   8.618  0.00  0.00    +0.441 C 
ATOM     14  O   UNL A   1      -3.464  -2.006   9.094  0.00  0.00    -0.235 OA
ATOM     15  O   UNL A   1      -1.681  -0.749   8.586  0.00  0.00    -0.235 OA
ENDBRANCH  11  13
ENDBRANCH   1   7
BRANCH   4  16
ATOM     16  C   UNL A   1     -10.230   2.504  11.334  0.00  0.00    +0.419 C 
ATOM     17  F   UNL A   1     -11.136   2.457  10.895  0.00  0.00    -0.166 F 
ATOM     18  F   UNL A   1      -9.805   3.834  11.527  0.00  0.00    -0.166 F 
ATOM     19  F   UNL A   1     -10.275   2.074  12.667  0.00  0.00    -0.166 F 
ENDBRANCH   4  16
BRANCH   2  20
ATOM     20  C   UNL A   1      -6.942  -1.185  10.934  0.00  0.00    +0.388 C 
ATOM     21  O   UNL A   1      -6.167  -1.275  11.558  0.00  0.00    -0.241 OA
ATOM     22  O   UNL A   1      -7.706  -2.263  10.499  0.00  0.00    -0.241 OA
ENDBRANCH   2  20
TORSDOF 4
ENDMDL
ENDMDL
