MODEL 367
MODEL 1
REMARK VINA RESULT:    -6.925      0.000      0.000
REMARK INTER + INTRA:          -8.702
REMARK INTER:                  -8.140
REMARK INTRA:                  -0.562
REMARK UNBOUND:                -0.562
REMARK  Name = No_367-gen_results/8p0m/2024-11-26-14-13-15/
REMARK  3 active torsions:
REMARK  status: ('A' for Active; 'I' for Inactive)
REMARK    1  A    between atoms: C_2  and  C_5
REMARK    2  A    between atoms: C_3  and  C_9
REMARK    3  A    between atoms: C_9  and  C_10
REMARK                            x       y       z     vdW  Elec       q    Type
REMARK                         _______ _______ _______ _____ _____    ______ ____
ROOT
ATOM      1  C   UNL A   1     -25.637  -2.352  29.987  0.00  0.00    +0.001 A 
ATOM      2  C   UNL A   1     -26.096  -3.299  29.942  0.00  0.00    +0.011 A 
ATOM      3  C   UNL A   1     -24.265  -2.342  29.482  0.00  0.00    +0.039 A 
ATOM      4  C   UNL A   1     -23.793  -3.252  28.943  0.00  0.00    +0.003 A 
ATOM      5  C   UNL A   1     -24.425  -4.511  28.804  0.00  0.00    -0.000 A 
ATOM      6  C   UNL A   1     -25.759  -4.562  29.295  0.00  0.00    -0.002 A 
ENDROOT
BRANCH   2   7
ATOM      7  C   UNL A   1     -27.565  -3.424  30.433  0.00  0.00    +0.209 C 
ATOM      8  O   UNL A   1     -28.258  -4.390  29.797  0.00  0.00    -0.215 OA
ENDBRANCH   2   7
BRANCH   3   9
ATOM      9  C   UNL A   1     -23.486  -0.977  29.525  0.00  0.00    +0.196 C 
ATOM     10  O   UNL A   1     -22.727  -0.758  30.520  0.00  0.00    -0.287 OA
BRANCH   9  11
ATOM     11  C   UNL A   1     -23.474  -0.143  28.541  0.00  0.00    +0.039 A 
ATOM     12  C   UNL A   1     -24.296  -0.015  27.531  0.00  0.00    +0.003 A 
ATOM     13  C   UNL A   1     -24.254   0.973  26.477  0.00  0.00    +0.000 A 
ATOM     14  C   UNL A   1     -23.122   1.864  26.568  0.00  0.00    +0.000 A 
ATOM     15  C   UNL A   1     -22.414   0.935  28.283  0.00  0.00    +0.003 A 
ATOM     16  C   UNL A   1     -22.248   1.629  27.366  0.00  0.00    +0.000 A 
ENDBRANCH   9  11
ENDBRANCH   3   9
TORSDOF 3
ENDMDL
ENDMDL
