REMARK  Name = No_368-gen_results/8p0m/2024-11-26-14-13-15/
REMARK  3 active torsions:
REMARK  status: ('A' for Active; 'I' for Inactive)
REMARK    1  A    between atoms: C_1  and  C_2
REMARK    2  A    between atoms: C_2  and  C_6
REMARK    3  A    between atoms: C_7  and  C_8
REMARK                            x       y       z     vdW  Elec       q    Type
REMARK                         _______ _______ _______ _____ _____    ______ ____
ROOT
ATOM      1  C   UNL A   1     -27.064  -0.119  28.608  0.00  0.00    +0.249 C 
ATOM      2  F   UNL A   1     -27.043   0.244  27.428  0.00  0.00    -0.226 F 
ENDROOT
BRANCH   1   3
ATOM      3  C   UNL A   1     -28.016  -0.814  28.878  0.00  0.00    +0.355 C 
ATOM      4  F   UNL A   1     -29.007  -0.532  28.223  0.00  0.00    -0.195 F 
ATOM      5  F   UNL A   1     -28.355  -0.625  30.285  0.00  0.00    -0.195 F 
ENDBRANCH   1   3
BRANCH   1   6
ATOM      6  C   UNL A   1     -25.741  -0.044  29.316  0.00  0.00    +0.014 C 
ATOM      7  C   UNL A   1     -25.600  -0.058  30.452  0.00  0.00    -0.002 C 
BRANCH   7   8
ATOM      8  C   UNL A   1     -24.258   0.142  31.097  0.00  0.00    -0.005 C 
ATOM      9  C   UNL A   1     -23.177   0.308  30.254  0.00  0.00    -0.026 C 
ATOM     10  C   UNL A   1     -23.359   0.342  28.902  0.00  0.00    +0.031 C 
ENDBRANCH   7   8
ENDBRANCH   1   6
TORSDOF 3
