MODEL 3680
MODEL 1
REMARK VINA RESULT:    -6.733      0.000      0.000
REMARK INTER + INTRA:         -10.583
REMARK INTER:                  -9.095
REMARK INTRA:                  -1.488
REMARK UNBOUND:                -1.488
REMARK  Name = No_3680-gen_results/8p0m/2024-11-26-14-13-15/
REMARK  6 active torsions:
REMARK  status: ('A' for Active; 'I' for Inactive)
REMARK    1  A    between atoms: C_2  and  C_7
REMARK    2  A    between atoms: C_6  and  O_17
REMARK    3  A    between atoms: C_11  and  C_13
REMARK    4  A    between atoms: O_17  and  C_18
REMARK    5  A    between atoms: C_18  and  C_19
REMARK    6  A    between atoms: C_19  and  C_20
REMARK                            x       y       z     vdW  Elec       q    Type
REMARK                         _______ _______ _______ _____ _____    ______ ____
ROOT
ATOM      1  C   UNL A   1     -25.690  -2.310  29.488  0.00  0.00    +0.037 A 
ATOM      2  C   UNL A   1     -24.556  -2.539  29.135  0.00  0.00    +0.003 A 
ATOM      3  C   UNL A   1     -24.116  -3.843  28.935  0.00  0.00    +0.000 A 
ATOM      4  C   UNL A   1     -24.983  -4.965  29.188  0.00  0.00    +0.003 A 
ATOM      5  C   UNL A   1     -26.269  -4.610  29.616  0.00  0.00    +0.037 A 
ATOM      6  C   UNL A   1     -26.631  -3.362  29.805  0.00  0.00    +0.139 A 
ENDROOT
BRANCH   2   7
ATOM      7  C   UNL A   1     -23.520  -1.509  28.855  0.00  0.00    +0.000 A 
ATOM      8  C   UNL A   1     -22.594  -1.345  29.255  0.00  0.00    -0.000 A 
ATOM      9  C   UNL A   1     -21.603  -0.231  29.015  0.00  0.00    -0.000 A 
ATOM     10  C   UNL A   1     -21.993   0.786  28.165  0.00  0.00    +0.004 A 
ATOM     11  C   UNL A   1     -23.270   0.738  27.602  0.00  0.00    +0.071 A 
ATOM     12  C   UNL A   1     -24.071  -0.335  27.865  0.00  0.00    +0.004 A 
BRANCH  11  13
ATOM     13  C   UNL A   1     -23.685   1.775  26.667  0.00  0.00    +0.419 C 
ATOM     14  F   UNL A   1     -24.215   2.818  27.099  0.00  0.00    -0.166 F 
ATOM     15  F   UNL A   1     -22.552   2.299  26.011  0.00  0.00    -0.166 F 
ATOM     16  F   UNL A   1     -24.398   1.242  25.645  0.00  0.00    -0.166 F 
ENDBRANCH  11  13
ENDBRANCH   2   7
BRANCH   6  17
ATOM     17  O   UNL A   1     -27.896  -3.136  30.258  0.00  0.00    -0.475 OA
BRANCH  17  18
ATOM     18  C   UNL A   1     -28.180  -2.044  30.960  0.00  0.00    +0.210 C 
BRANCH  18  19
ATOM     19  C   UNL A   1     -28.879  -1.146  30.227  0.00  0.00    +0.073 C 
BRANCH  19  20
ATOM     20  C   UNL A   1     -28.401   0.015  29.852  0.00  0.00    -0.027 C 
ATOM     21  C   UNL A   1     -28.058   0.156  28.581  0.00  0.00    -0.030 C 
ATOM     22  C   UNL A   1     -27.440   1.453  28.059  0.00  0.00    +0.030 C 
ENDBRANCH  19  20
ENDBRANCH  18  19
ENDBRANCH  17  18
ENDBRANCH   6  17
TORSDOF 6
ENDMDL
ENDMDL
