MODEL 3681
MODEL 1
REMARK VINA RESULT:    -5.021      0.000      0.000
REMARK INTER + INTRA:          -5.793
REMARK INTER:                  -5.608
REMARK INTRA:                  -0.185
REMARK UNBOUND:                -0.185
REMARK  Name = No_3681-gen_results/8p0m/2024-11-26-14-13-15/
REMARK  2 active torsions:
REMARK  status: ('A' for Active; 'I' for Inactive)
REMARK    1  A    between atoms: C_2  and  O_7
REMARK    2  A    between atoms: O_7  and  C_8
REMARK                            x       y       z     vdW  Elec       q    Type
REMARK                         _______ _______ _______ _____ _____    ______ ____
ROOT
ATOM      1  C   UNL A   1     -24.955  -2.684  29.903  0.00  0.00    +0.037 A 
ATOM      2  C   UNL A   1     -24.251  -2.854  29.138  0.00  0.00    +0.145 A 
ATOM      3  C   UNL A   1     -26.210  -3.412  29.717  0.00  0.00    +0.003 A 
ATOM      4  C   UNL A   1     -26.247  -4.638  29.818  0.00  0.00    +0.000 A 
ATOM      5  C   UNL A   1     -23.923  -4.346  28.753  0.00  0.00    +0.037 A 
ATOM      6  C   UNL A   1     -25.062  -5.203  28.905  0.00  0.00    +0.003 A 
ENDROOT
BRANCH   2   7
ATOM      7  O   UNL A   1     -23.036  -2.170  28.977  0.00  0.00    -0.451 OA
BRANCH   7   8
ATOM      8  C   UNL A   1     -23.175  -0.893  28.604  0.00  0.00    +0.175 C 
ATOM      9  C   UNL A   1     -22.389  -0.048  28.718  0.00  0.00    +0.015 C 
ATOM     10  C   UNL A   1     -22.555   1.319  28.208  0.00  0.00    +0.034 C 
ENDBRANCH   7   8
ENDBRANCH   2   7
TORSDOF 2
ENDMDL
ENDMDL
