MODEL 3682
MODEL 1
REMARK VINA RESULT:    -6.606      0.000      0.000
REMARK INTER + INTRA:          -8.208
REMARK INTER:                  -7.765
REMARK INTRA:                  -0.443
REMARK UNBOUND:                -0.443
REMARK  Name = No_3682-gen_results/8p0m/2024-11-26-14-13-15/
REMARK  3 active torsions:
REMARK  status: ('A' for Active; 'I' for Inactive)
REMARK    1  A    between atoms: C_3  and  C_7
REMARK    2  A    between atoms: C_8  and  C_13
REMARK    3  A    between atoms: C_13  and  N_14
REMARK                            x       y       z     vdW  Elec       q    Type
REMARK                         _______ _______ _______ _____ _____    ______ ____
ROOT
ATOM      1  C   UNL A   1     -24.340  -1.130  28.339  0.00  0.00    -0.002 A 
ATOM      2  C   UNL A   1     -23.442  -0.408  29.051  0.00  0.00    -0.001 A 
ATOM      3  C   UNL A   1     -23.106   0.890  28.681  0.00  0.00    -0.003 A 
ATOM      4  C   UNL A   1     -23.674   1.487  27.516  0.00  0.00    -0.000 A 
ATOM      5  C   UNL A   1     -24.884  -0.444  27.221  0.00  0.00    -0.000 A 
ATOM      6  C   UNL A   1     -24.551   0.776  26.875  0.00  0.00    -0.000 A 
ENDROOT
BRANCH   1   9
ATOM      7  C   UNL A   1     -24.440  -4.779  28.841  0.00  0.00    -0.000 A 
ATOM      8  C   UNL A   1     -24.060  -3.690  28.481  0.00  0.00    -0.000 A 
ATOM      9  C   UNL A   1     -24.750  -2.506  28.742  0.00  0.00    -0.000 A 
ATOM     10  C   UNL A   1     -26.025  -2.570  29.430  0.00  0.00    -0.000 A 
ATOM     11  C   UNL A   1     -26.435  -3.848  29.809  0.00  0.00    -0.000 A 
ATOM     12  C   UNL A   1     -25.723  -4.917  29.511  0.00  0.00    -0.000 A 
ENDBRANCH   1   9
BRANCH   2  13
ATOM     13  C   UNL A   1     -22.740  -1.013  30.248  0.00  0.00    +0.140 C 
BRANCH  13  14
ATOM     14  N   UNL A   1     -23.276  -0.989  31.451  0.00  0.00    -0.212 NA
ATOM     15  C   UNL A   1     -22.990  -1.185  32.471  0.00  0.00    +0.205 C 
ATOM     16  N   UNL A   1     -23.906  -1.174  33.529  0.00  0.00    -0.127 NA
ENDBRANCH  13  14
ENDBRANCH   2  13
TORSDOF 3
ENDMDL
ENDMDL
