REMARK  Name = No_3683-gen_results/8p0m/2024-11-26-14-13-15/
REMARK  0 active torsions:
REMARK  status: ('A' for Active; 'I' for Inactive)
REMARK                            x       y       z     vdW  Elec       q    Type
REMARK                         _______ _______ _______ _____ _____    ______ ____
ROOT
ATOM      1  O   UNL A   1     -28.123  -1.335  28.487  0.00  0.00    -0.273 OA
ATOM      2  C   UNL A   1     -27.064  -0.824  28.869  0.00  0.00    +0.246 C 
ATOM      3  C   UNL A   1     -25.946  -1.040  28.849  0.00  0.00    +0.113 C 
ATOM      4  C   UNL A   1     -24.760  -0.156  29.164  0.00  0.00    -0.015 A 
ATOM      5  C   UNL A   1     -23.389  -0.455  29.016  0.00  0.00    -0.004 A 
ATOM      6  N   UNL A   1     -27.340   0.383  29.763  0.00  0.00    -0.200 NA
ATOM      7  C   UNL A   1     -26.421   1.277  30.189  0.00  0.00    +0.141 C 
ATOM      8  C   UNL A   1     -25.064   1.055  29.932  0.00  0.00    -0.004 A 
ATOM      9  C   UNL A   1     -22.360   0.091  29.590  0.00  0.00    -0.000 A 
ATOM     10  C   UNL A   1     -22.733   1.429  30.241  0.00  0.00    -0.000 A 
ATOM     11  C   UNL A   1     -24.001   1.780  30.443  0.00  0.00    -0.003 A 
ENDROOT
TORSDOF 0
