MODEL 3683
MODEL 1
REMARK VINA RESULT:    -5.759      0.000      0.000
REMARK INTER + INTRA:          -5.759
REMARK INTER:                  -5.759
REMARK INTRA:                   0.000
REMARK UNBOUND:                 0.000
REMARK  Name = No_3683-gen_results/8p0m/2024-11-26-14-13-15/
REMARK  0 active torsions:
REMARK  status: ('A' for Active; 'I' for Inactive)
REMARK                            x       y       z     vdW  Elec       q    Type
REMARK                         _______ _______ _______ _____ _____    ______ ____
ROOT
ATOM      1  O   UNL A   1     -26.748 -12.650  33.978  0.00  0.00    -0.273 OA
ATOM      2  C   UNL A   1     -27.415 -12.142  33.069  0.00  0.00    +0.246 C 
ATOM      3  C   UNL A   1     -27.568 -12.254  31.946  0.00  0.00    +0.113 C 
ATOM      4  C   UNL A   1     -28.630 -11.690  31.029  0.00  0.00    -0.015 A 
ATOM      5  C   UNL A   1     -28.824 -11.955  29.657  0.00  0.00    -0.004 A 
ATOM      6  N   UNL A   1     -28.144 -10.896  33.567  0.00  0.00    -0.200 NA
ATOM      7  C   UNL A   1     -29.100 -10.219  32.894  0.00  0.00    +0.141 C 
ATOM      8  C   UNL A   1     -29.393 -10.561  31.570  0.00  0.00    -0.004 A 
ATOM      9  C   UNL A   1     -29.454 -11.253  28.764  0.00  0.00    -0.000 A 
ATOM     10  C   UNL A   1     -30.347 -10.192  29.420  0.00  0.00    -0.000 A 
ATOM     11  C   UNL A   1     -30.214  -9.861  30.702  0.00  0.00    -0.003 A 
ENDROOT
TORSDOF 0
ENDMDL
ENDMDL
