REMARK  Name = No_3684-gen_results/8p0m/2024-11-26-14-13-15/
REMARK  8 active torsions:
REMARK  status: ('A' for Active; 'I' for Inactive)
REMARK    1  A    between atoms: N_14  and  C_15
REMARK    2  A    between atoms: C_19  and  C_21
REMARK    3  A    between atoms: C_21  and  N_22
REMARK    4  A    between atoms: N_22  and  C_23
REMARK    5  A    between atoms: N_22  and  C_29
REMARK    6  A    between atoms: C_29  and  C_30
REMARK    7  A    between atoms: C_31  and  C_32
REMARK    8  A    between atoms: C_33  and  C_34
REMARK                            x       y       z     vdW  Elec       q    Type
REMARK                         _______ _______ _______ _____ _____    ______ ____
ROOT
ATOM      1  C   UNL A   1     -30.582  -1.899  29.923  0.00  0.00    +0.072 A 
ATOM      2  C   UNL A   1     -30.666  -1.114  31.029  0.00  0.00    +0.017 A 
ATOM      3  C   UNL A   1     -30.238  -1.639  32.102  0.00  0.00    +0.001 A 
ATOM      4  C   UNL A   1     -30.013  -3.056  32.224  0.00  0.00    -0.003 A 
ATOM      5  C   UNL A   1     -29.825  -3.769  31.030  0.00  0.00    -0.001 A 
ATOM      6  C   UNL A   1     -30.063  -3.101  29.804  0.00  0.00    +0.014 A 
ENDROOT
BRANCH   1  20
ATOM      7  C   UNL A   1     -28.016  -0.814  28.878  0.00  0.00    +0.018 A 
ATOM      8  C   UNL A   1     -27.064  -0.119  28.608  0.00  0.00    +0.001 A 
ATOM      9  C   UNL A   1     -27.001   0.691  27.491  0.00  0.00    -0.003 A 
ATOM     10  C   UNL A   1     -28.137   0.736  26.635  0.00  0.00    -0.007 A 
ATOM     11  C   UNL A   1     -29.236   0.076  27.069  0.00  0.00    +0.067 A 
ATOM     12  C   UNL A   1     -29.218  -0.643  28.175  0.00  0.00    +0.085 A 
ATOM     13  N   UNL A   1     -30.352   0.156  26.243  0.00  0.00    -0.240 N 
ATOM     14  C   UNL A   1     -30.269   0.123  24.937  0.00  0.00    +0.100 C 
ATOM     15  C   UNL A   1     -29.205   0.903  24.393  0.00  0.00    +0.027 C 
ATOM     16  C   UNL A   1     -27.919   0.904  25.164  0.00  0.00    +0.029 C 
ATOM     17  C   UNL A   1     -31.662  -0.187  26.816  0.00  0.00    +0.345 C 
ATOM     18  O   UNL A   1     -32.441   0.538  26.544  0.00  0.00    -0.249 OA
ATOM     19  N   UNL A   1     -31.720  -1.023  27.901  0.00  0.00    -0.088 NA
ATOM     20  N   UNL A   1     -30.451  -1.147  28.657  0.00  0.00    -0.194 N 
ENDBRANCH   1  20
BRANCH   5  21
ATOM     21  C   UNL A   1     -29.370  -5.160  31.072  0.00  0.00    +0.118 C 
BRANCH  21  22
ATOM     22  N   UNL A   1     -30.192  -6.074  31.489  0.00  0.00    -0.300 N 
BRANCH  22  23
ATOM     23  C   UNL A   1     -30.042  -6.638  32.639  0.00  0.00    +0.048 A 
ATOM     24  C   UNL A   1     -29.300  -6.157  33.620  0.00  0.00    +0.015 A 
ATOM     25  C   UNL A   1     -29.238  -6.849  34.891  0.00  0.00    +0.001 A 
ATOM     26  C   UNL A   1     -29.768  -8.069  34.988  0.00  0.00    +0.000 A 
ATOM     27  C   UNL A   1     -30.742  -7.896  32.797  0.00  0.00    +0.015 A 
ATOM     28  C   UNL A   1     -30.603  -8.572  34.020  0.00  0.00    +0.001 A 
ENDBRANCH  22  23
BRANCH  22  29
ATOM     29  C   UNL A   1     -31.244  -6.389  30.607  0.00  0.00    +0.118 C 
BRANCH  29  30
ATOM     30  C   UNL A   1     -31.575  -5.649  29.694  0.00  0.00    -0.005 C 
ATOM     31  C   UNL A   1     -32.634  -5.801  29.020  0.00  0.00    -0.003 C 
BRANCH  31  32
ATOM     32  C   UNL A   1     -33.075  -4.884  27.918  0.00  0.00    -0.000 C 
ATOM     33  C   UNL A   1     -32.135  -3.877  27.633  0.00  0.00    -0.000 C 
BRANCH  33  34
ATOM     34  C   UNL A   1     -32.640  -3.019  26.552  0.00  0.00    -0.000 C 
ATOM     35  C   UNL A   1     -33.592  -3.735  25.731  0.00  0.00    -0.000 C 
ENDBRANCH  33  34
ENDBRANCH  31  32
ENDBRANCH  29  30
ENDBRANCH  22  29
ENDBRANCH  21  22
ENDBRANCH   5  21
TORSDOF 8
