MODEL 3684
MODEL 1
REMARK VINA RESULT:    -7.784      0.000      0.000
REMARK INTER + INTRA:         -13.988
REMARK INTER:                 -11.425
REMARK INTRA:                  -2.563
REMARK UNBOUND:                -2.563
REMARK  Name = No_3684-gen_results/8p0m/2024-11-26-14-13-15/
REMARK  8 active torsions:
REMARK  status: ('A' for Active; 'I' for Inactive)
REMARK    1  A    between atoms: N_14  and  C_15
REMARK    2  A    between atoms: C_19  and  C_21
REMARK    3  A    between atoms: C_21  and  N_22
REMARK    4  A    between atoms: N_22  and  C_23
REMARK    5  A    between atoms: N_22  and  C_29
REMARK    6  A    between atoms: C_29  and  C_30
REMARK    7  A    between atoms: C_31  and  C_32
REMARK    8  A    between atoms: C_33  and  C_34
REMARK                            x       y       z     vdW  Elec       q    Type
REMARK                         _______ _______ _______ _____ _____    ______ ____
ROOT
ATOM      1  C   UNL A   1     -24.240   1.437  27.284  0.00  0.00    +0.072 A 
ATOM      2  C   UNL A   1     -23.230   2.243  26.862  0.00  0.00    +0.017 A 
ATOM      3  C   UNL A   1     -22.059   1.836  27.136  0.00  0.00    +0.001 A 
ATOM      4  C   UNL A   1     -21.816   0.804  28.111  0.00  0.00    -0.003 A 
ATOM      5  C   UNL A   1     -22.889  -0.053  28.402  0.00  0.00    -0.001 A 
ATOM      6  C   UNL A   1     -24.166   0.268  27.881  0.00  0.00    +0.014 A 
ENDROOT
BRANCH   1  20
ATOM      7  C   UNL A   1     -26.413   3.418  27.737  0.00  0.00    +0.018 A 
ATOM      8  C   UNL A   1     -27.415   3.993  28.094  0.00  0.00    +0.001 A 
ATOM      9  C   UNL A   1     -28.605   3.963  27.393  0.00  0.00    -0.003 A 
ATOM     10  C   UNL A   1     -28.660   3.178  26.207  0.00  0.00    -0.007 A 
ATOM     11  C   UNL A   1     -27.570   2.420  25.943  0.00  0.00    +0.067 A 
ATOM     12  C   UNL A   1     -26.488   2.483  26.694  0.00  0.00    +0.085 A 
ATOM     13  N   UNL A   1     -27.648   1.630  24.802  0.00  0.00    -0.240 N 
ATOM     14  C   UNL A   1     -28.215   2.039  23.695  0.00  0.00    +0.100 C 
ATOM     15  C   UNL A   1     -29.443   2.741  23.885  0.00  0.00    +0.027 C 
ATOM     16  C   UNL A   1     -29.511   3.655  25.072  0.00  0.00    +0.029 C 
ATOM     17  C   UNL A   1     -26.700   0.514  24.667  0.00  0.00    +0.345 C 
ATOM     18  O   UNL A   1     -27.186  -0.412  24.333  0.00  0.00    -0.249 OA
ATOM     19  N   UNL A   1     -25.503   0.569  25.335  0.00  0.00    -0.088 NA
ATOM     20  N   UNL A   1     -25.467   1.528  26.464  0.00  0.00    -0.194 N 
ENDBRANCH   1  20
BRANCH   5  21
ATOM     21  C   UNL A   1     -22.666  -1.257  29.204  0.00  0.00    +0.118 C 
BRANCH  21  22
ATOM     22  N   UNL A   1     -23.532  -1.566  30.121  0.00  0.00    -0.300 N 
BRANCH  22  23
ATOM     23  C   UNL A   1     -24.433  -2.466  29.918  0.00  0.00    +0.048 A 
ATOM     24  C   UNL A   1     -25.676  -2.397  30.359  0.00  0.00    +0.015 A 
ATOM     25  C   UNL A   1     -26.622  -3.444  30.034  0.00  0.00    +0.001 A 
ATOM     26  C   UNL A   1     -26.174  -4.565  29.466  0.00  0.00    +0.000 A 
ATOM     27  C   UNL A   1     -23.983  -3.621  29.169  0.00  0.00    +0.015 A 
ATOM     28  C   UNL A   1     -24.911  -4.648  28.932  0.00  0.00    +0.001 A 
ENDBRANCH  22  23
BRANCH  22  29
ATOM     29  C   UNL A   1     -23.407  -0.859  31.333  0.00  0.00    +0.118 C 
BRANCH  29  30
ATOM     30  C   UNL A   1     -23.803   0.289  31.464  0.00  0.00    -0.005 C 
ATOM     31  C   UNL A   1     -24.867   0.595  32.075  0.00  0.00    -0.003 C 
BRANCH  31  32
ATOM     32  C   UNL A   1     -25.352   2.000  32.276  0.00  0.00    -0.000 C 
ATOM     33  C   UNL A   1     -25.176   2.810  31.139  0.00  0.00    -0.000 C 
BRANCH  33  34
ATOM     34  C   UNL A   1     -25.667   4.167  31.416  0.00  0.00    -0.000 C 
ATOM     35  C   UNL A   1     -26.974   4.123  32.036  0.00  0.00    -0.000 C 
ENDBRANCH  33  34
ENDBRANCH  31  32
ENDBRANCH  29  30
ENDBRANCH  22  29
ENDBRANCH  21  22
ENDBRANCH   5  21
TORSDOF 8
ENDMDL
ENDMDL
