MODEL 3685
MODEL 1
REMARK VINA RESULT:    -8.164      0.000      0.000
REMARK INTER + INTRA:         -12.135
REMARK INTER:                 -10.550
REMARK INTRA:                  -1.584
REMARK UNBOUND:                -1.584
REMARK  Name = No_3685-gen_results/8p0m/2024-11-26-14-13-15/
REMARK  5 active torsions:
REMARK  status: ('A' for Active; 'I' for Inactive)
REMARK    1  A    between atoms: C_2  and  C_7
REMARK    2  A    between atoms: C_6  and  C_22
REMARK    3  A    between atoms: C_7  and  C_8
REMARK    4  A    between atoms: C_7  and  C_9
REMARK    5  A    between atoms: C_9  and  N_15
REMARK                            x       y       z     vdW  Elec       q    Type
REMARK                         _______ _______ _______ _____ _____    ______ ____
ROOT
ATOM      1  C   UNL A   1     -24.064  -1.014  28.697  0.00  0.00    +0.075 C 
ENDROOT
BRANCH   1   3
ATOM      2  C   UNL A   1     -25.810  -2.514  29.372  0.00  0.00    +0.001 A 
ATOM      3  C   UNL A   1     -24.688  -2.340  28.955  0.00  0.00    -0.016 A 
ATOM      4  C   UNL A   1     -23.859  -3.415  28.654  0.00  0.00    -0.004 A 
ATOM      5  C   UNL A   1     -24.295  -4.770  28.871  0.00  0.00    -0.000 A 
ATOM      6  C   UNL A   1     -25.597  -4.880  29.377  0.00  0.00    +0.004 A 
ATOM      7  C   UNL A   1     -26.334  -3.830  29.662  0.00  0.00    +0.055 A 
BRANCH   7   8
ATOM      8  C   UNL A   1     -27.659  -4.015  30.293  0.00  0.00    +0.265 C 
ATOM      9  O   UNL A   1     -27.978  -5.137  30.730  0.00  0.00    -0.268 OA
ATOM     10  N   UNL A   1     -28.528  -3.004  30.391  0.00  0.00    -0.200 NA
ATOM     11  C   UNL A   1     -29.669  -2.899  30.795  0.00  0.00    +0.139 C 
ENDBRANCH   7   8
ENDBRANCH   1   3
BRANCH   1  12
ATOM     12  C   UNL A   1     -24.229  -0.237  27.770  0.00  0.00    -0.016 A 
ATOM     13  C   UNL A   1     -23.423   0.921  27.567  0.00  0.00    -0.004 A 
ATOM     14  C   UNL A   1     -25.249  -0.391  26.716  0.00  0.00    -0.004 A 
ATOM     15  C   UNL A   1     -25.318   0.575  25.666  0.00  0.00    -0.000 A 
ATOM     16  C   UNL A   1     -23.585   1.941  26.543  0.00  0.00    -0.000 A 
ATOM     17  C   UNL A   1     -24.559   1.709  25.552  0.00  0.00    -0.000 A 
ENDBRANCH   1  12
BRANCH   1  18
ATOM     18  C   UNL A   1     -23.140  -0.597  29.764  0.00  0.00    +0.147 C 
ATOM     19 CL   UNL A   1     -21.590  -0.793  29.583  0.00  0.00    -0.096 Cl
BRANCH  18  20
ATOM     20  N   UNL A   1     -23.498  -0.303  30.965  0.00  0.00    -0.261 NA
ATOM     21  C   UNL A   1     -24.567   0.376  31.277  0.00  0.00    +0.073 C 
ATOM     22  C   UNL A   1     -25.210   0.555  32.107  0.00  0.00    +0.017 C 
ATOM     23  C   UNL A   1     -24.934  -0.252  33.276  0.00  0.00    +0.003 C 
ATOM     24  C   UNL A   1     -23.821  -1.153  33.159  0.00  0.00    +0.017 C 
ATOM     25  C   UNL A   1     -23.111  -1.155  32.038  0.00  0.00    +0.073 C 
ENDBRANCH  18  20
ENDBRANCH   1  18
TORSDOF 5
ENDMDL
ENDMDL
