REMARK  Name = No_3685-gen_results/8p0m/2024-11-26-14-13-15/
REMARK  5 active torsions:
REMARK  status: ('A' for Active; 'I' for Inactive)
REMARK    1  A    between atoms: C_2  and  C_7
REMARK    2  A    between atoms: C_6  and  C_22
REMARK    3  A    between atoms: C_7  and  C_8
REMARK    4  A    between atoms: C_7  and  C_9
REMARK    5  A    between atoms: C_9  and  N_15
REMARK                            x       y       z     vdW  Elec       q    Type
REMARK                         _______ _______ _______ _____ _____    ______ ____
ROOT
ATOM      1  C   UNL A   1     -27.106   1.102  27.759  0.00  0.00    +0.075 C 
ENDROOT
BRANCH   1   3
ATOM      2  C   UNL A   1     -28.016  -0.814  28.878  0.00  0.00    +0.001 A 
ATOM      3  C   UNL A   1     -27.064  -0.119  28.608  0.00  0.00    -0.016 A 
ATOM      4  C   UNL A   1     -25.792  -0.430  29.076  0.00  0.00    -0.004 A 
ATOM      5  C   UNL A   1     -25.576  -1.565  29.936  0.00  0.00    -0.000 A 
ATOM      6  C   UNL A   1     -26.735  -2.300  30.217  0.00  0.00    +0.004 A 
ATOM      7  C   UNL A   1     -27.918  -1.954  29.763  0.00  0.00    +0.055 A 
BRANCH   7   8
ATOM      8  C   UNL A   1     -29.116  -2.713  30.185  0.00  0.00    +0.265 C 
ATOM      9  O   UNL A   1     -29.038  -3.947  30.333  0.00  0.00    -0.268 OA
ATOM     10  N   UNL A   1     -30.286  -2.102  30.397  0.00  0.00    -0.200 NA
ATOM     11  C   UNL A   1     -31.404  -2.481  30.681  0.00  0.00    +0.139 C 
ENDBRANCH   7   8
ENDBRANCH   1   3
BRANCH   1  12
ATOM     12  C   UNL A   1     -26.716   2.235  27.994  0.00  0.00    -0.016 A 
ATOM     13  C   UNL A   1     -26.032   2.594  29.191  0.00  0.00    -0.004 A 
ATOM     14  C   UNL A   1     -26.861   3.380  27.076  0.00  0.00    -0.004 A 
ATOM     15  C   UNL A   1     -26.331   4.651  27.458  0.00  0.00    -0.000 A 
ATOM     16  C   UNL A   1     -25.595   3.922  29.594  0.00  0.00    -0.000 A 
ATOM     17  C   UNL A   1     -25.737   4.960  28.652  0.00  0.00    -0.000 A 
ENDBRANCH   1  12
BRANCH   1  18
ATOM     18  C   UNL A   1     -27.680   0.855  26.426  0.00  0.00    +0.147 C 
ATOM     19 CL   UNL A   1     -26.733   0.680  25.183  0.00  0.00    -0.096 Cl
BRANCH  18  20
ATOM     20  N   UNL A   1     -28.921   1.015  26.126  0.00  0.00    -0.261 NA
ATOM     21  C   UNL A   1     -29.843   1.409  26.960  0.00  0.00    +0.073 C 
ATOM     22  C   UNL A   1     -30.819   1.835  26.960  0.00  0.00    +0.017 C 
ATOM     23  C   UNL A   1     -31.314   2.223  25.656  0.00  0.00    +0.003 C 
ATOM     24  C   UNL A   1     -30.435   1.952  24.553  0.00  0.00    +0.017 C 
ATOM     25  C   UNL A   1     -29.280   1.341  24.787  0.00  0.00    +0.073 C 
ENDBRANCH  18  20
ENDBRANCH   1  18
TORSDOF 5
