MODEL 3686
MODEL 1
REMARK VINA RESULT:    -8.235      0.000      0.000
REMARK INTER + INTRA:         -14.120
REMARK INTER:                 -12.086
REMARK INTRA:                  -2.034
REMARK UNBOUND:                -2.034
REMARK  Name = No_3686-gen_results/8p0m/2024-11-26-14-13-15/
REMARK  8 active torsions:
REMARK  status: ('A' for Active; 'I' for Inactive)
REMARK    1  A    between atoms: C_2  and  C_7
REMARK    2  A    between atoms: C_4  and  C_10
REMARK    3  A    between atoms: C_7  and  O_9
REMARK    4  A    between atoms: O_9  and  C_20
REMARK    5  A    between atoms: C_10  and  C_11
REMARK    6  A    between atoms: C_11  and  C_12
REMARK    7  A    between atoms: C_20  and  C_21
REMARK    8  A    between atoms: C_20  and  N_27
REMARK                            x       y       z     vdW  Elec       q    Type
REMARK                         _______ _______ _______ _____ _____    ______ ____
ROOT
ATOM      1  C   UNL A   1     -24.908   0.097  25.705  0.00  0.00    +0.006 A 
ATOM      2  C   UNL A   1     -25.370   0.172  26.649  0.00  0.00    +0.076 A 
ATOM      3  C   UNL A   1     -25.785   0.225  24.531  0.00  0.00    -0.004 A 
ATOM      4  C   UNL A   1     -27.158   0.575  24.686  0.00  0.00    -0.022 A 
ATOM      5  C   UNL A   1     -26.735   0.580  27.079  0.00  0.00    +0.006 A 
ATOM      6  C   UNL A   1     -27.581   0.699  26.017  0.00  0.00    -0.004 A 
ENDROOT
BRANCH   2   7
ATOM      7  C   UNL A   1     -24.322  -0.045  27.798  0.00  0.00    +0.343 C 
ATOM      8  O   UNL A   1     -23.310   0.544  27.862  0.00  0.00    -0.245 OA
BRANCH   7   9
ATOM      9  O   UNL A   1     -24.812  -0.608  28.897  0.00  0.00    -0.429 OA
BRANCH   9  10
ATOM     10  C   UNL A   1     -24.368  -1.325  29.662  0.00  0.00    +0.255 C 
BRANCH  10  11
ATOM     11  C   UNL A   1     -24.647  -2.542  29.575  0.00  0.00    +0.034 A 
ATOM     12  C   UNL A   1     -23.825  -3.489  28.777  0.00  0.00    +0.001 A 
ATOM     13  C   UNL A   1     -24.181  -4.848  28.679  0.00  0.00    -0.000 A 
ATOM     14  C   UNL A   1     -25.889  -3.155  29.787  0.00  0.00    +0.001 A 
ATOM     15  C   UNL A   1     -26.296  -4.443  29.683  0.00  0.00    -0.000 A 
ATOM     16  C   UNL A   1     -25.391  -5.312  29.111  0.00  0.00    -0.000 A 
ENDBRANCH  10  11
BRANCH  10  17
ATOM     17  N   UNL A   1     -24.797  -0.757  31.029  0.00  0.00    -0.236 NA
ATOM     18  C   UNL A   1     -25.834   0.191  31.175  0.00  0.00    +0.076 C 
ATOM     19  C   UNL A   1     -24.132  -1.173  32.172  0.00  0.00    +0.076 C 
ATOM     20  C   UNL A   1     -24.390  -0.679  33.325  0.00  0.00    +0.018 C 
ATOM     21  C   UNL A   1     -26.102   0.711  32.407  0.00  0.00    +0.018 C 
ATOM     22  C   UNL A   1     -25.404   0.245  33.527  0.00  0.00    +0.003 C 
ENDBRANCH  10  17
ENDBRANCH   9  10
ENDBRANCH   7   9
ENDBRANCH   2   7
BRANCH   4  23
ATOM     23  C   UNL A   1     -28.054   0.734  23.575  0.00  0.00    +0.031 C 
BRANCH  23  24
ATOM     24  C   UNL A   1     -29.263  -0.056  23.659  0.00  0.00    +0.027 C 
ATOM     25  C   UNL A   1     -29.183  -1.520  23.438  0.00  0.00    +0.005 C 
BRANCH  24  26
ATOM     26  C   UNL A   1     -30.525   0.528  23.742  0.00  0.00    -0.021 A 
ATOM     27  C   UNL A   1     -31.334   0.048  24.674  0.00  0.00    -0.004 A 
ATOM     28  C   UNL A   1     -30.853   1.542  22.891  0.00  0.00    +0.007 A 
ATOM     29  C   UNL A   1     -32.083   2.262  23.150  0.00  0.00    +0.057 A 
ATOM     30  C   UNL A   1     -32.656   0.585  24.869  0.00  0.00    +0.001 A 
ATOM     31  C   UNL A   1     -33.030   1.605  24.024  0.00  0.00    +0.011 A 
ATOM     32 CL   UNL A   1     -32.587   3.545  22.250  0.00  0.00    -0.082 Cl
ENDBRANCH  24  26
ENDBRANCH  23  24
ENDBRANCH   4  23
TORSDOF 8
ENDMDL
ENDMDL
