REMARK  Name = No_3686-gen_results/8p0m/2024-11-26-14-13-15/
REMARK  8 active torsions:
REMARK  status: ('A' for Active; 'I' for Inactive)
REMARK    1  A    between atoms: C_2  and  C_7
REMARK    2  A    between atoms: C_4  and  C_10
REMARK    3  A    between atoms: C_7  and  O_9
REMARK    4  A    between atoms: O_9  and  C_20
REMARK    5  A    between atoms: C_10  and  C_11
REMARK    6  A    between atoms: C_11  and  C_12
REMARK    7  A    between atoms: C_20  and  C_21
REMARK    8  A    between atoms: C_20  and  N_27
REMARK                            x       y       z     vdW  Elec       q    Type
REMARK                         _______ _______ _______ _____ _____    ______ ____
ROOT
ATOM      1  C   UNL A   1     -28.016  -0.814  28.878  0.00  0.00    +0.006 A 
ATOM      2  C   UNL A   1     -28.469  -0.785  29.829  0.00  0.00    +0.076 A 
ATOM      3  C   UNL A   1     -26.546  -0.876  28.850  0.00  0.00    -0.004 A 
ATOM      4  C   UNL A   1     -25.804  -1.032  30.057  0.00  0.00    -0.022 A 
ATOM      5  C   UNL A   1     -27.944  -0.987  31.207  0.00  0.00    +0.006 A 
ATOM      6  C   UNL A   1     -26.582  -1.039  31.223  0.00  0.00    -0.004 A 
ENDROOT
BRANCH   2   7
ATOM      7  C   UNL A   1     -30.028  -0.659  29.697  0.00  0.00    +0.343 C 
ATOM      8  O   UNL A   1     -30.776  -1.416  30.189  0.00  0.00    -0.245 OA
BRANCH   7   9
ATOM      9  O   UNL A   1     -30.461   0.552  29.364  0.00  0.00    -0.429 OA
BRANCH   9  10
ATOM     10  C   UNL A   1     -31.495   0.965  29.127  0.00  0.00    +0.255 C 
BRANCH  10  11
ATOM     11  C   UNL A   1     -31.754   1.291  27.947  0.00  0.00    +0.034 A 
ATOM     12  C   UNL A   1     -33.104   1.754  27.531  0.00  0.00    +0.001 A 
ATOM     13  C   UNL A   1     -33.369   2.090  26.189  0.00  0.00    -0.000 A 
ATOM     14  C   UNL A   1     -31.073   0.913  26.782  0.00  0.00    +0.001 A 
ATOM     15  C   UNL A   1     -31.295   1.179  25.473  0.00  0.00    -0.000 A 
ATOM     16  C   UNL A   1     -32.492   1.799  25.183  0.00  0.00    -0.000 A 
ENDBRANCH  10  11
BRANCH  10  17
ATOM     17  N   UNL A   1     -31.667   2.164  30.081  0.00  0.00    -0.236 NA
ATOM     18  C   UNL A   1     -32.520   2.134  31.206  0.00  0.00    +0.076 C 
ATOM     19  C   UNL A   1     -30.972   3.336  29.824  0.00  0.00    +0.076 C 
ATOM     20  C   UNL A   1     -31.133   4.390  30.534  0.00  0.00    +0.018 C 
ATOM     21  C   UNL A   1     -32.685   3.261  31.956  0.00  0.00    +0.018 C 
ATOM     22  C   UNL A   1     -31.949   4.413  31.655  0.00  0.00    +0.003 C 
ENDBRANCH  10  17
ENDBRANCH   9  10
ENDBRANCH   7   9
ENDBRANCH   2   7
BRANCH   4  23
ATOM     23  C   UNL A   1     -24.371  -1.119  30.087  0.00  0.00    +0.031 C 
BRANCH  23  24
ATOM     24  C   UNL A   1     -23.690   0.157  30.093  0.00  0.00    +0.027 C 
ATOM     25  C   UNL A   1     -23.601   0.920  31.361  0.00  0.00    +0.005 C 
BRANCH  24  26
ATOM     26  C   UNL A   1     -23.288   0.787  28.917  0.00  0.00    -0.021 A 
ATOM     27  C   UNL A   1     -22.004   0.687  28.607  0.00  0.00    -0.004 A 
ATOM     28  C   UNL A   1     -24.210   1.448  28.161  0.00  0.00    +0.007 A 
ATOM     29  C   UNL A   1     -23.798   1.901  26.848  0.00  0.00    +0.057 A 
ATOM     30  C   UNL A   1     -21.475   1.280  27.406  0.00  0.00    +0.001 A 
ATOM     31  C   UNL A   1     -22.371   1.965  26.618  0.00  0.00    +0.011 A 
ATOM     32 CL   UNL A   1     -24.809   2.662  25.795  0.00  0.00    -0.082 Cl
ENDBRANCH  24  26
ENDBRANCH  23  24
ENDBRANCH   4  23
TORSDOF 8
