MODEL 3687
MODEL 1
REMARK VINA RESULT:    -6.865      0.000      0.000
REMARK INTER + INTRA:         -13.922
REMARK INTER:                 -10.076
REMARK INTRA:                  -3.846
REMARK UNBOUND:                -3.846
REMARK  Name = No_3687-gen_results/8p0m/2024-11-26-14-13-15/
REMARK  8 active torsions:
REMARK  status: ('A' for Active; 'I' for Inactive)
REMARK    1  A    between atoms: C_4  and  C_11
REMARK    2  A    between atoms: C_6  and  O_16
REMARK    3  A    between atoms: N_12  and  C_14
REMARK    4  A    between atoms: O_16  and  C_17
REMARK    5  A    between atoms: C_22  and  C_24
REMARK    6  A    between atoms: C_24  and  O_26
REMARK    7  A    between atoms: O_26  and  C_27
REMARK    8  A    between atoms: C_27  and  C_28
REMARK                            x       y       z     vdW  Elec       q    Type
REMARK                         _______ _______ _______ _____ _____    ______ ____
ROOT
ATOM      1  O   UNL A   1     -26.984  -0.415  24.133  0.00  0.00    -0.470 OA
ENDROOT
BRANCH   1   7
ATOM      2  C   UNL A   1     -26.195  -0.725  26.390  0.00  0.00    +0.037 A 
ATOM      3  C   UNL A   1     -25.352  -0.565  27.243  0.00  0.00    +0.003 A 
ATOM      4  C   UNL A   1     -24.297   0.320  27.051  0.00  0.00    +0.005 A 
ATOM      5  C   UNL A   1     -23.194   0.596  28.016  0.00  0.00    +0.054 A 
ATOM      6  C   UNL A   1     -22.099   1.502  27.792  0.00  0.00    +0.004 A 
ATOM      7  C   UNL A   1     -26.019  -0.128  25.057  0.00  0.00    +0.139 A 
ATOM      8  C   UNL A   1     -25.047   0.811  24.811  0.00  0.00    +0.037 A 
ATOM      9  C   UNL A   1     -24.079   1.062  25.797  0.00  0.00    +0.003 A 
ATOM     10  C   UNL A   1     -22.219   2.239  26.569  0.00  0.00    +0.000 A 
ATOM     11  C   UNL A   1     -23.081   2.010  25.618  0.00  0.00    +0.000 A 
BRANCH   5  12
ATOM     12  C   UNL A   1     -23.188  -0.069  29.351  0.00  0.00    +0.253 C 
ATOM     13  N   UNL A   1     -23.863   0.373  30.246  0.00  0.00    -0.257 N 
ATOM     14  C   UNL A   1     -23.652   1.321  30.999  0.00  0.00    +0.120 C 
ATOM     15  O   UNL A   1     -22.509  -1.169  29.297  0.00  0.00    -0.270 OA
BRANCH  13  16
ATOM     16  C   UNL A   1     -24.652  -0.657  30.957  0.00  0.00    +0.032 C 
ATOM     17  C   UNL A   1     -25.761  -1.097  30.484  0.00  0.00    +0.011 C 
ATOM     18  C   UNL A   1     -24.118  -1.130  32.240  0.00  0.00    +0.048 C 
ENDBRANCH  13  16
ENDBRANCH   5  12
ENDBRANCH   1   7
BRANCH   1  19
ATOM     19  C   UNL A   1     -28.177   0.209  24.186  0.00  0.00    +0.243 C 
ATOM     20  C   UNL A   1     -29.184  -0.621  23.722  0.00  0.00    +0.282 C 
ATOM     21  O   UNL A   1     -29.033  -1.685  23.314  0.00  0.00    -0.269 OA
ATOM     22  N   UNL A   1     -30.393   0.031  23.352  0.00  0.00    -0.202 NA
ATOM     23  C   UNL A   1     -30.729   1.348  23.743  0.00  0.00    +0.126 C 
ATOM     24  C   UNL A   1     -29.571   2.071  23.994  0.00  0.00    +0.125 C 
ATOM     25  C   UNL A   1     -28.335   1.593  24.342  0.00  0.00    +0.066 C 
BRANCH  24  26
ATOM     26  C   UNL A   1     -29.759   3.555  24.344  0.00  0.00    +0.319 C 
ATOM     27  O   UNL A   1     -30.645   4.124  24.409  0.00  0.00    -0.250 OA
BRANCH  26  28
ATOM     28  O   UNL A   1     -28.592   4.031  24.839  0.00  0.00    -0.444 OA
BRANCH  28  29
ATOM     29  C   UNL A   1     -28.626   4.602  26.133  0.00  0.00    +0.235 C 
BRANCH  29  30
ATOM     30  C   UNL A   1     -27.783   4.056  26.877  0.00  0.00    +0.021 A 
ATOM     31  C   UNL A   1     -26.462   3.953  26.604  0.00  0.00    -0.001 A 
ATOM     32  C   UNL A   1     -25.506   4.154  27.589  0.00  0.00    -0.000 A 
ATOM     33  C   UNL A   1     -25.297   3.484  28.354  0.00  0.00    -0.000 A 
ATOM     34  C   UNL A   1     -26.506   2.666  28.853  0.00  0.00    -0.000 A 
ATOM     35  C   UNL A   1     -27.876   3.162  28.107  0.00  0.00    -0.001 A 
ENDBRANCH  29  30
ENDBRANCH  28  29
ENDBRANCH  26  28
ENDBRANCH  24  26
ENDBRANCH   1  19
TORSDOF 8
ENDMDL
ENDMDL
