REMARK  Name = No_3687-gen_results/8p0m/2024-11-26-14-13-15/
REMARK  8 active torsions:
REMARK  status: ('A' for Active; 'I' for Inactive)
REMARK    1  A    between atoms: C_4  and  C_11
REMARK    2  A    between atoms: C_6  and  O_16
REMARK    3  A    between atoms: N_12  and  C_14
REMARK    4  A    between atoms: O_16  and  C_17
REMARK    5  A    between atoms: C_22  and  C_24
REMARK    6  A    between atoms: C_24  and  O_26
REMARK    7  A    between atoms: O_26  and  C_27
REMARK    8  A    between atoms: C_27  and  C_28
REMARK                            x       y       z     vdW  Elec       q    Type
REMARK                         _______ _______ _______ _____ _____    ______ ____
ROOT
ATOM      1  O   UNL A   1     -29.022  -2.591  30.160  0.00  0.00    -0.470 OA
ENDROOT
BRANCH   1   7
ATOM      2  C   UNL A   1     -28.016  -0.814  28.878  0.00  0.00    +0.037 A 
ATOM      3  C   UNL A   1     -27.064  -0.119  28.608  0.00  0.00    +0.003 A 
ATOM      4  C   UNL A   1     -25.792  -0.430  29.076  0.00  0.00    +0.005 A 
ATOM      5  C   UNL A   1     -24.546   0.349  28.823  0.00  0.00    +0.054 A 
ATOM      6  C   UNL A   1     -23.241   0.022  29.332  0.00  0.00    +0.004 A 
ATOM      7  C   UNL A   1     -27.882  -1.899  29.863  0.00  0.00    +0.139 A 
ATOM      8  C   UNL A   1     -26.653  -2.314  30.314  0.00  0.00    +0.037 A 
ATOM      9  C   UNL A   1     -25.515  -1.561  29.979  0.00  0.00    +0.003 A 
ATOM     10  C   UNL A   1     -23.207  -1.229  30.031  0.00  0.00    +0.000 A 
ATOM     11  C   UNL A   1     -24.243  -1.936  30.388  0.00  0.00    +0.000 A 
BRANCH   5  12
ATOM     12  C   UNL A   1     -24.589   1.561  27.954  0.00  0.00    +0.253 C 
ATOM     13  N   UNL A   1     -24.887   1.456  26.791  0.00  0.00    -0.257 N 
ATOM     14  C   UNL A   1     -24.207   1.102  25.831  0.00  0.00    +0.120 C 
ATOM     15  O   UNL A   1     -24.410   2.626  28.666  0.00  0.00    -0.270 OA
BRANCH  13  16
ATOM     16  C   UNL A   1     -25.892   2.447  26.346  0.00  0.00    +0.032 C 
ATOM     17  C   UNL A   1     -25.724   3.705  26.538  0.00  0.00    +0.011 C 
ATOM     18  C   UNL A   1     -27.100   1.919  25.700  0.00  0.00    +0.048 C 
ENDBRANCH  13  16
ENDBRANCH   5  12
ENDBRANCH   1   7
BRANCH   1  19
ATOM     19  C   UNL A   1     -30.088  -1.948  30.675  0.00  0.00    +0.243 C 
ATOM     20  C   UNL A   1     -30.678  -2.703  31.675  0.00  0.00    +0.282 C 
ATOM     21  O   UNL A   1     -30.336  -3.749  32.008  0.00  0.00    -0.269 OA
ATOM     22  N   UNL A   1     -32.011  -2.338  32.013  0.00  0.00    -0.202 NA
ATOM     23  C   UNL A   1     -32.602  -1.102  31.660  0.00  0.00    +0.126 C 
ATOM     24  C   UNL A   1     -31.983  -0.594  30.526  0.00  0.00    +0.125 C 
ATOM     25  C   UNL A   1     -30.722  -0.859  30.061  0.00  0.00    +0.066 C 
BRANCH  24  26
ATOM     26  C   UNL A   1     -32.571   0.706  29.957  0.00  0.00    +0.319 C 
ATOM     27  O   UNL A   1     -33.224   1.403  30.405  0.00  0.00    -0.250 OA
BRANCH  26  28
ATOM     28  O   UNL A   1     -31.912   1.011  28.814  0.00  0.00    -0.444 OA
BRANCH  28  29
ATOM     29  C   UNL A   1     -32.613   1.773  27.849  0.00  0.00    +0.235 C 
BRANCH  29  30
ATOM     30  C   UNL A   1     -31.977   1.815  26.774  0.00  0.00    +0.021 A 
ATOM     31  C   UNL A   1     -30.655   1.556  26.647  0.00  0.00    -0.001 A 
ATOM     32  C   UNL A   1     -30.166   0.819  25.578  0.00  0.00    -0.000 A 
ATOM     33  C   UNL A   1     -30.087   1.172  24.605  0.00  0.00    -0.000 A 
ATOM     34  C   UNL A   1     -31.177   2.180  24.186  0.00  0.00    -0.000 A 
ATOM     35  C   UNL A   1     -32.282   2.353  25.382  0.00  0.00    -0.001 A 
ENDBRANCH  29  30
ENDBRANCH  28  29
ENDBRANCH  26  28
ENDBRANCH  24  26
ENDBRANCH   1  19
TORSDOF 8
