MODEL 3688
MODEL 1
REMARK VINA RESULT:    -6.076      0.000      0.000
REMARK INTER + INTRA:          -8.113
REMARK INTER:                  -7.496
REMARK INTRA:                  -0.617
REMARK UNBOUND:                -0.617
REMARK  Name = No_3688-gen_results/8p0m/2024-11-26-14-13-15/
REMARK  4 active torsions:
REMARK  status: ('A' for Active; 'I' for Inactive)
REMARK    1  A    between atoms: C_3  and  C_7
REMARK    2  A    between atoms: C_6  and  C_13
REMARK    3  A    between atoms: C_13  and  N_14
REMARK    4  A    between atoms: N_14  and  C_15
REMARK                            x       y       z     vdW  Elec       q    Type
REMARK                         _______ _______ _______ _____ _____    ______ ____
ROOT
ATOM      1  C   UNL A   1     -29.382 -10.097  32.554  0.00  0.00    -0.003 A 
ATOM      2  C   UNL A   1     -29.722 -10.159  31.396  0.00  0.00    -0.000 A 
ATOM      3  C   UNL A   1     -29.226 -11.102  30.496  0.00  0.00    -0.000 A 
ATOM      4  C   UNL A   1     -28.204 -12.031  30.939  0.00  0.00    -0.000 A 
ATOM      5  C   UNL A   1     -27.829 -11.911  32.276  0.00  0.00    -0.003 A 
ATOM      6  C   UNL A   1     -28.343 -10.980  33.056  0.00  0.00    -0.001 A 
ENDROOT
BRANCH   3   7
ATOM      7  C   UNL A   1     -29.596 -11.249  29.052  0.00  0.00    -0.000 A 
ATOM      8  C   UNL A   1     -28.949 -12.056  28.259  0.00  0.00    -0.000 A 
ATOM      9  C   UNL A   1     -29.251 -12.125  26.866  0.00  0.00    +0.000 A 
ATOM     10  C   UNL A   1     -30.106 -11.240  26.255  0.00  0.00    +0.000 A 
ATOM     11  C   UNL A   1     -30.549 -10.313  28.436  0.00  0.00    -0.000 A 
ATOM     12  C   UNL A   1     -30.793 -10.362  27.044  0.00  0.00    +0.000 A 
ENDBRANCH   3   7
BRANCH   6  13
ATOM     13  C   UNL A   1     -27.784 -11.032  34.430  0.00  0.00    +0.139 C 
BRANCH  13  14
ATOM     14  N   UNL A   1     -27.051 -10.417  34.792  0.00  0.00    -0.232 NA
BRANCH  14  15
ATOM     15  C   UNL A   1     -26.777  -9.299  34.997  0.00  0.00    +0.081 C 
ATOM     16  C   UNL A   1     -27.485  -8.367  35.818  0.00  0.00    +0.019 C 
ENDBRANCH  14  15
ENDBRANCH  13  14
ENDBRANCH   6  13
TORSDOF 4
ENDMDL
ENDMDL
