MODEL 3689
MODEL 1
REMARK VINA RESULT:    -4.412      0.000      0.000
REMARK INTER + INTRA:          -5.137
REMARK INTER:                  -4.928
REMARK INTRA:                  -0.209
REMARK UNBOUND:                -0.209
REMARK  Name = No_3689-gen_results/8p0m/2024-11-26-14-13-15/
REMARK  3 active torsions:
REMARK  status: ('A' for Active; 'I' for Inactive)
REMARK    1  A    between atoms: C_1  and  C_3
REMARK    2  A    between atoms: C_2  and  C_5
REMARK    3  A    between atoms: C_4  and  C_6
REMARK                            x       y       z     vdW  Elec       q    Type
REMARK                         _______ _______ _______ _____ _____    ______ ____
ROOT
ATOM      1  C   UNL A   1     -24.200  -2.072  29.876  0.00  0.00    -0.000 C 
ATOM      2  C   UNL A   1     -24.525  -3.055  29.683  0.00  0.00    -0.000 C 
ENDROOT
BRANCH   1   3
ATOM      3  C   UNL A   1     -23.115  -1.558  29.024  0.00  0.00    -0.003 C 
ATOM      4  C   UNL A   1     -22.347  -0.698  29.439  0.00  0.00    -0.009 C 
BRANCH   4   5
ATOM      5  C   UNL A   1     -21.224  -0.093  28.647  0.00  0.00    +0.121 C 
ATOM      6 CL   UNL A   1     -21.347  -0.633  29.041  0.00  0.00    -0.108 Cl
ENDBRANCH   4   5
ENDBRANCH   1   3
BRANCH   2   7
ATOM      7  C   UNL A   1     -24.132  -4.049  28.667  0.00  0.00    -0.000 C 
ATOM      8  C   UNL A   1     -24.717  -5.285  28.916  0.00  0.00    -0.000 C 
ENDBRANCH   2   7
TORSDOF 3
ENDMDL
ENDMDL
