REMARK  Name = No_3689-gen_results/8p0m/2024-11-26-14-13-15/
REMARK  3 active torsions:
REMARK  status: ('A' for Active; 'I' for Inactive)
REMARK    1  A    between atoms: C_1  and  C_3
REMARK    2  A    between atoms: C_2  and  C_5
REMARK    3  A    between atoms: C_4  and  C_6
REMARK                            x       y       z     vdW  Elec       q    Type
REMARK                         _______ _______ _______ _____ _____    ______ ____
ROOT
ATOM      1  C   UNL A   1     -28.016  -0.814  28.878  0.00  0.00    -0.000 C 
ATOM      2  C   UNL A   1     -28.469  -0.785  29.829  0.00  0.00    -0.000 C 
ENDROOT
BRANCH   1   3
ATOM      3  C   UNL A   1     -26.546  -0.876  28.850  0.00  0.00    -0.003 C 
ATOM      4  C   UNL A   1     -25.897  -0.827  29.889  0.00  0.00    -0.009 C 
BRANCH   4   5
ATOM      5  C   UNL A   1     -24.399  -0.861  29.970  0.00  0.00    +0.121 C 
ATOM      6 CL   UNL A   1     -24.894  -0.935  29.510  0.00  0.00    -0.108 Cl
ENDBRANCH   4   5
ENDBRANCH   1   3
BRANCH   2   7
ATOM      7  C   UNL A   1     -27.913  -0.839  31.194  0.00  0.00    -0.000 C 
ATOM      8  C   UNL A   1     -26.523  -0.857  31.173  0.00  0.00    -0.000 C 
ENDBRANCH   2   7
TORSDOF 3
