MODEL 368
MODEL 1
REMARK VINA RESULT:    -4.695      0.000      0.000
REMARK INTER + INTRA:          -5.728
REMARK INTER:                  -5.519
REMARK INTRA:                  -0.209
REMARK UNBOUND:                -0.209
REMARK  Name = No_368-gen_results/8p0m/2024-11-26-14-13-15/
REMARK  3 active torsions:
REMARK  status: ('A' for Active; 'I' for Inactive)
REMARK    1  A    between atoms: C_1  and  C_2
REMARK    2  A    between atoms: C_2  and  C_6
REMARK    3  A    between atoms: C_7  and  C_8
REMARK                            x       y       z     vdW  Elec       q    Type
REMARK                         _______ _______ _______ _____ _____    ______ ____
ROOT
ATOM      1  C   UNL A   1     -24.532  -4.194  28.797  0.00  0.00    +0.249 C 
ATOM      2  F   UNL A   1     -23.472  -4.489  28.237  0.00  0.00    -0.226 F 
ENDROOT
BRANCH   1   3
ATOM      3  C   UNL A   1     -25.085  -5.143  29.303  0.00  0.00    +0.355 C 
ATOM      4  F   UNL A   1     -25.005  -6.154  28.624  0.00  0.00    -0.195 F 
ATOM      5  F   UNL A   1     -26.503  -4.835  29.460  0.00  0.00    -0.195 F 
ENDBRANCH   1   3
BRANCH   1   6
ATOM      6  C   UNL A   1     -24.680  -2.741  29.146  0.00  0.00    +0.014 C 
ATOM      7  C   UNL A   1     -23.852  -2.079  29.578  0.00  0.00    -0.002 C 
BRANCH   7   8
ATOM      8  C   UNL A   1     -24.101  -0.664  30.017  0.00  0.00    -0.005 C 
ATOM      9  C   UNL A   1     -23.688  -0.322  31.290  0.00  0.00    -0.026 C 
ATOM     10  C   UNL A   1     -23.034  -1.233  32.068  0.00  0.00    +0.031 C 
ENDBRANCH   7   8
ENDBRANCH   1   6
TORSDOF 3
ENDMDL
ENDMDL
