REMARK  Name = No_369-gen_results/8p0m/2024-11-26-14-13-15/
REMARK  2 active torsions:
REMARK  status: ('A' for Active; 'I' for Inactive)
REMARK    1  A    between atoms: C_3  and  C_4
REMARK    2  A    between atoms: C_12  and  O_14
REMARK                            x       y       z     vdW  Elec       q    Type
REMARK                         _______ _______ _______ _____ _____    ______ ____
ROOT
ATOM      1  C   UNL A   1     -24.546   0.349  28.823  0.00  0.00    +0.030 A 
ATOM      2  C   UNL A   1     -23.241   0.022  29.332  0.00  0.00    +0.002 A 
ATOM      3  C   UNL A   1     -22.170   0.796  28.955  0.00  0.00    +0.003 A 
ATOM      4  C   UNL A   1     -22.132   1.752  27.992  0.00  0.00    +0.039 A 
ATOM      5  C   UNL A   1     -24.537   1.382  27.794  0.00  0.00    +0.174 A 
ATOM      6  C   UNL A   1     -23.347   2.045  27.432  0.00  0.00    +0.166 A 
ATOM      7  F   UNL A   1     -25.530   1.570  27.067  0.00  0.00    -0.201 F 
ENDROOT
BRANCH   1  10
ATOM      8  C   UNL A   1     -28.016  -0.814  28.878  0.00  0.00    +0.011 A 
ATOM      9  C   UNL A   1     -27.064  -0.119  28.608  0.00  0.00    +0.001 A 
ATOM     10  C   UNL A   1     -25.792  -0.430  29.076  0.00  0.00    +0.002 A 
ATOM     11  C   UNL A   1     -27.882  -1.899  29.863  0.00  0.00    +0.058 A 
ATOM     12  C   UNL A   1     -26.671  -2.327  30.321  0.00  0.00    +0.011 A 
ATOM     13  C   UNL A   1     -25.526  -1.569  29.982  0.00  0.00    +0.001 A 
ATOM     14 CL   UNL A   1     -29.256  -2.840  30.344  0.00  0.00    -0.082 Cl
ENDBRANCH   1  10
BRANCH   6  15
ATOM     15  O   UNL A   1     -23.458   3.000  26.473  0.00  0.00    -0.469 OA
ATOM     16  C   UNL A   1     -24.634   2.780  25.684  0.00  0.00    +0.253 C 
ENDBRANCH   6  15
TORSDOF 2
