MODEL 3690
MODEL 1
REMARK VINA RESULT:    -5.820      0.000      0.000
REMARK INTER + INTRA:          -6.809
REMARK INTER:                  -6.501
REMARK INTRA:                  -0.308
REMARK UNBOUND:                -0.308
REMARK  Name = No_3690-gen_results/8p0m/2024-11-26-14-13-15/
REMARK  2 active torsions:
REMARK  status: ('A' for Active; 'I' for Inactive)
REMARK    1  A    between atoms: C_3  and  C_7
REMARK    2  A    between atoms: C_5  and  C_12
REMARK                            x       y       z     vdW  Elec       q    Type
REMARK                         _______ _______ _______ _____ _____    ______ ____
ROOT
ATOM      1  C   UNL A   1     -23.991   1.173  29.520  0.00  0.00    +0.015 A 
ATOM      2  C   UNL A   1     -24.501   1.959  29.038  0.00  0.00    +0.058 A 
ATOM      3  C   UNL A   1     -22.955   0.526  28.811  0.00  0.00    +0.072 A 
ATOM      4  C   UNL A   1     -22.616   0.888  27.522  0.00  0.00    +0.008 A 
ATOM      5  C   UNL A   1     -23.331   1.936  26.966  0.00  0.00    +0.072 A 
ATOM      6  C   UNL A   1     -24.309   2.562  27.710  0.00  0.00    +0.015 A 
ATOM      7 CL   UNL A   1     -25.751   2.921  29.968  0.00  0.00    -0.082 Cl
ENDROOT
BRANCH   3   8
ATOM      8  C   UNL A   1     -22.136  -0.591  29.385  0.00  0.00    +0.419 C 
ATOM      9  F   UNL A   1     -21.979  -0.582  30.536  0.00  0.00    -0.166 F 
ATOM     10  F   UNL A   1     -22.637  -1.882  29.031  0.00  0.00    -0.166 F 
ATOM     11  F   UNL A   1     -20.867  -0.626  28.670  0.00  0.00    -0.166 F 
ENDBRANCH   3   8
BRANCH   5  12
ATOM     12  C   UNL A   1     -23.033   2.358  25.561  0.00  0.00    +0.419 C 
ATOM     13  F   UNL A   1     -23.408   3.462  25.270  0.00  0.00    -0.166 F 
ATOM     14  F   UNL A   1     -23.593   1.463  24.678  0.00  0.00    -0.166 F 
ATOM     15  F   UNL A   1     -21.667   2.239  25.388  0.00  0.00    -0.166 F 
ENDBRANCH   5  12
TORSDOF 2
ENDMDL
ENDMDL
