REMARK  Name = No_3690-gen_results/8p0m/2024-11-26-14-13-15/
REMARK  2 active torsions:
REMARK  status: ('A' for Active; 'I' for Inactive)
REMARK    1  A    between atoms: C_3  and  C_7
REMARK    2  A    between atoms: C_5  and  C_12
REMARK                            x       y       z     vdW  Elec       q    Type
REMARK                         _______ _______ _______ _____ _____    ______ ____
ROOT
ATOM      1  C   UNL A   1     -28.016  -0.814  28.878  0.00  0.00    +0.015 A 
ATOM      2  C   UNL A   1     -28.469  -0.785  29.829  0.00  0.00    +0.058 A 
ATOM      3  C   UNL A   1     -27.136   0.236  28.535  0.00  0.00    +0.072 A 
ATOM      4  C   UNL A   1     -26.875   1.282  29.398  0.00  0.00    +0.008 A 
ATOM      5  C   UNL A   1     -27.507   1.238  30.630  0.00  0.00    +0.072 A 
ATOM      6  C   UNL A   1     -28.329   0.174  30.935  0.00  0.00    +0.015 A 
ATOM      7 CL   UNL A   1     -29.503  -2.195  30.373  0.00  0.00    -0.082 Cl
ENDROOT
BRANCH   3   8
ATOM      8  C   UNL A   1     -26.408   0.307  27.226  0.00  0.00    +0.419 C 
ATOM      9  F   UNL A   1     -27.019   0.035  26.276  0.00  0.00    -0.166 F 
ATOM     10  F   UNL A   1     -25.806   1.583  26.997  0.00  0.00    -0.166 F 
ATOM     11  F   UNL A   1     -25.204  -0.505  27.340  0.00  0.00    -0.166 F 
ENDBRANCH   3   8
BRANCH   5  12
ATOM     12  C   UNL A   1     -27.290   2.357  31.601  0.00  0.00    +0.419 C 
ATOM     13  F   UNL A   1     -26.517   2.118  32.489  0.00  0.00    -0.166 F 
ATOM     14  F   UNL A   1     -28.493   2.726  32.160  0.00  0.00    -0.166 F 
ATOM     15  F   UNL A   1     -26.876   3.451  30.866  0.00  0.00    -0.166 F 
ENDBRANCH   5  12
TORSDOF 2
