REMARK  Name = No_3691-gen_results/8p0m/2024-11-26-14-13-15/
REMARK  3 active torsions:
REMARK  status: ('A' for Active; 'I' for Inactive)
REMARK    1  A    between atoms: C_2  and  O_7
REMARK    2  A    between atoms: O_7  and  C_8
REMARK    3  A    between atoms: C_8  and  C_9
REMARK                            x       y       z     vdW  Elec       q    Type
REMARK                         _______ _______ _______ _____ _____    ______ ____
ROOT
ATOM      1  C   UNL A   1     -30.536  -0.112  28.945  0.00  0.00    +0.346 C 
ATOM      2  O   UNL A   1     -30.302  -0.419  27.683  0.00  0.00    -0.244 OA
ENDROOT
BRANCH   1   3
ATOM      3  C   UNL A   1     -31.485   0.796  29.294  0.00  0.00    +0.076 A 
ATOM      4  C   UNL A   1     -31.875   0.968  30.441  0.00  0.00    +0.006 A 
ATOM      5  C   UNL A   1     -32.884   2.008  30.833  0.00  0.00    +0.000 A 
ATOM      6  C   UNL A   1     -33.409   2.732  29.754  0.00  0.00    +0.000 A 
ATOM      7  C   UNL A   1     -32.044   1.615  28.224  0.00  0.00    +0.006 A 
ATOM      8  C   UNL A   1     -32.973   2.554  28.502  0.00  0.00    +0.000 A 
ENDBRANCH   1   3
BRANCH   1   9
ATOM      9  O   UNL A   1     -29.939  -0.819  29.836  0.00  0.00    -0.421 OA
BRANCH   9  11
ATOM     10  C   UNL A   1     -28.016  -0.814  28.878  0.00  0.00    +0.038 A 
ATOM     11  C   UNL A   1     -28.469  -0.785  29.829  0.00  0.00    +0.149 A 
ATOM     12  C   UNL A   1     -26.504  -0.778  28.877  0.00  0.00    +0.003 A 
ATOM     13  C   UNL A   1     -25.810  -0.853  30.103  0.00  0.00    +0.000 A 
ATOM     14  C   UNL A   1     -27.991  -0.892  31.226  0.00  0.00    +0.038 A 
ATOM     15  C   UNL A   1     -26.604  -0.868  31.265  0.00  0.00    +0.003 A 
ENDBRANCH   9  11
ENDBRANCH   1   9
TORSDOF 3
