MODEL 3691
MODEL 1
REMARK VINA RESULT:    -6.844      0.000      0.000
REMARK INTER + INTRA:          -8.411
REMARK INTER:                  -8.044
REMARK INTRA:                  -0.367
REMARK UNBOUND:                -0.367
REMARK  Name = No_3691-gen_results/8p0m/2024-11-26-14-13-15/
REMARK  3 active torsions:
REMARK  status: ('A' for Active; 'I' for Inactive)
REMARK    1  A    between atoms: C_2  and  O_7
REMARK    2  A    between atoms: O_7  and  C_8
REMARK    3  A    between atoms: C_8  and  C_9
REMARK                            x       y       z     vdW  Elec       q    Type
REMARK                         _______ _______ _______ _____ _____    ______ ____
ROOT
ATOM      1  C   UNL A   1     -23.581  -1.614  28.937  0.00  0.00    +0.346 C 
ATOM      2  O   UNL A   1     -22.263  -1.693  28.920  0.00  0.00    -0.244 OA
ENDROOT
BRANCH   1   3
ATOM      3  C   UNL A   1     -24.359  -2.716  29.100  0.00  0.00    +0.076 A 
ATOM      4  C   UNL A   1     -24.009  -3.849  28.794  0.00  0.00    +0.006 A 
ATOM      5  C   UNL A   1     -24.848  -5.072  29.024  0.00  0.00    +0.000 A 
ATOM      6  C   UNL A   1     -26.116  -4.805  29.560  0.00  0.00    +0.000 A 
ATOM      7  C   UNL A   1     -25.676  -2.516  29.693  0.00  0.00    +0.006 A 
ATOM      8  C   UNL A   1     -26.492  -3.569  29.907  0.00  0.00    +0.000 A 
ENDBRANCH   1   3
BRANCH   1   9
ATOM      9  O   UNL A   1     -24.093  -0.436  28.949  0.00  0.00    -0.421 OA
BRANCH   9  11
ATOM     10  C   UNL A   1     -23.142   1.175  27.893  0.00  0.00    +0.038 A 
ATOM     11  C   UNL A   1     -23.847   0.402  27.766  0.00  0.00    +0.149 A 
ATOM     12  C   UNL A   1     -22.892   2.034  26.674  0.00  0.00    +0.003 A 
ATOM     13  C   UNL A   1     -23.691   1.852  25.525  0.00  0.00    +0.000 A 
ATOM     14  C   UNL A   1     -24.819   0.027  26.715  0.00  0.00    +0.038 A 
ATOM     15  C   UNL A   1     -24.624   0.800  25.579  0.00  0.00    +0.003 A 
ENDBRANCH   9  11
ENDBRANCH   1   9
TORSDOF 3
ENDMDL
ENDMDL
