MODEL 3692
MODEL 1
REMARK VINA RESULT:    -5.801      0.000      0.000
REMARK INTER + INTRA:         -13.500
REMARK INTER:                  -7.836
REMARK INTRA:                  -5.664
REMARK UNBOUND:                -5.664
REMARK  Name = No_3692-gen_results/8p0m/2024-11-26-14-13-15/
REMARK  6 active torsions:
REMARK  status: ('A' for Active; 'I' for Inactive)
REMARK    1  A    between atoms: C_2  and  O_7
REMARK    2  A    between atoms: O_7  and  C_8
REMARK    3  A    between atoms: C_10  and  C_14
REMARK    4  A    between atoms: C_14  and  C_16
REMARK    5  A    between atoms: C_16  and  C_17
REMARK    6  A    between atoms: C_18  and  C_23
REMARK                            x       y       z     vdW  Elec       q    Type
REMARK                         _______ _______ _______ _____ _____    ______ ____
ROOT
ATOM      1  C   UNL A   1     -21.868 -22.123   8.130  0.00  0.00    -0.015 C 
ATOM      2  C   UNL A   1     -22.010 -22.877   8.893  0.00  0.00    -0.004 C 
ENDROOT
BRANCH   1   5
ATOM      3  C   UNL A   1     -22.943 -22.427   5.794  0.00  0.00    +0.145 A 
ATOM      4  C   UNL A   1     -23.830 -22.002   4.832  0.00  0.00    +0.037 A 
ATOM      5  C   UNL A   1     -22.860 -21.795   7.058  0.00  0.00    +0.031 A 
ATOM      6  C   UNL A   1     -23.578 -20.593   7.222  0.00  0.00    +0.003 A 
ATOM      7  C   UNL A   1     -24.445 -20.109   6.294  0.00  0.00    +0.000 A 
ATOM      8  C   UNL A   1     -24.619 -20.899   5.088  0.00  0.00    +0.003 A 
BRANCH   3   9
ATOM      9  O   UNL A   1     -22.232 -23.672   5.629  0.00  0.00    -0.454 OA
BRANCH   9  11
ATOM     10  C   UNL A   1     -20.516 -23.012   4.285  0.00  0.00    +0.037 A 
ATOM     11  C   UNL A   1     -20.892 -23.675   5.224  0.00  0.00    +0.145 A 
ATOM     12  C   UNL A   1     -20.076 -24.455   5.977  0.00  0.00    +0.037 A 
ATOM     13  C   UNL A   1     -18.707 -24.502   5.650  0.00  0.00    +0.003 A 
ATOM     14  C   UNL A   1     -19.116 -22.938   3.953  0.00  0.00    +0.003 A 
ATOM     15  C   UNL A   1     -18.258 -23.726   4.660  0.00  0.00    +0.000 A 
ENDBRANCH   9  11
ENDBRANCH   3   9
ENDBRANCH   1   5
BRANCH   1  16
ATOM     16  C   UNL A   1     -20.771 -21.123   8.261  0.00  0.00    +0.053 C 
BRANCH  16  17
ATOM     17  C   UNL A   1     -19.660 -21.172   7.458  0.00  0.00    -0.018 A 
ATOM     18  C   UNL A   1     -19.295 -20.064   6.670  0.00  0.00    -0.004 A 
ATOM     19  C   UNL A   1     -18.032 -20.084   5.973  0.00  0.00    -0.000 A 
ATOM     20  C   UNL A   1     -17.086 -20.842   6.529  0.00  0.00    -0.000 A 
ATOM     21  C   UNL A   1     -17.297 -21.570   7.697  0.00  0.00    -0.000 A 
ATOM     22  C   UNL A   1     -18.573 -21.765   8.160  0.00  0.00    -0.004 A 
BRANCH  18  23
ATOM     23  C   UNL A   1     -20.364 -19.191   6.042  0.00  0.00    -0.000 A 
ATOM     24  C   UNL A   1     -20.791 -19.607   4.734  0.00  0.00    -0.000 A 
ATOM     25  C   UNL A   1     -21.702 -18.760   4.227  0.00  0.00    -0.000 A 
ATOM     26  C   UNL A   1     -22.112 -17.649   4.839  0.00  0.00    -0.000 A 
ATOM     27  C   UNL A   1     -21.601 -17.270   5.998  0.00  0.00    -0.000 A 
ATOM     28  C   UNL A   1     -20.667 -18.077   6.607  0.00  0.00    -0.000 A 
ENDBRANCH  18  23
ENDBRANCH  16  17
ENDBRANCH   1  16
TORSDOF 6
ENDMDL
ENDMDL
