REMARK  Name = No_3692-gen_results/8p0m/2024-11-26-14-13-15/
REMARK  6 active torsions:
REMARK  status: ('A' for Active; 'I' for Inactive)
REMARK    1  A    between atoms: C_2  and  O_7
REMARK    2  A    between atoms: O_7  and  C_8
REMARK    3  A    between atoms: C_10  and  C_14
REMARK    4  A    between atoms: C_14  and  C_16
REMARK    5  A    between atoms: C_16  and  C_17
REMARK    6  A    between atoms: C_18  and  C_23
REMARK                            x       y       z     vdW  Elec       q    Type
REMARK                         _______ _______ _______ _____ _____    ______ ____
ROOT
ATOM      1  C   UNL A   1     -24.707   1.896  26.937  0.00  0.00    -0.015 C 
ATOM      2  C   UNL A   1     -24.830   1.939  25.862  0.00  0.00    -0.004 C 
ENDROOT
BRANCH   1   5
ATOM      3  C   UNL A   1     -24.632  -0.333  28.253  0.00  0.00    +0.145 A 
ATOM      4  C   UNL A   1     -23.921  -1.252  28.990  0.00  0.00    +0.037 A 
ATOM      5  C   UNL A   1     -24.006   0.797  27.672  0.00  0.00    +0.031 A 
ATOM      6  C   UNL A   1     -22.670   1.050  28.043  0.00  0.00    +0.003 A 
ATOM      7  C   UNL A   1     -21.928   0.194  28.793  0.00  0.00    +0.000 A 
ATOM      8  C   UNL A   1     -22.576  -1.037  29.212  0.00  0.00    +0.003 A 
BRANCH   3   9
ATOM      9  O   UNL A   1     -25.991  -0.612  27.857  0.00  0.00    -0.454 OA
BRANCH   9  11
ATOM     10  C   UNL A   1     -28.016  -0.814  28.878  0.00  0.00    +0.037 A 
ATOM     11  C   UNL A   1     -27.064  -0.119  28.608  0.00  0.00    +0.145 A 
ATOM     12  C   UNL A   1     -26.929   1.171  29.008  0.00  0.00    +0.037 A 
ATOM     13  C   UNL A   1     -27.956   1.741  29.784  0.00  0.00    +0.003 A 
ATOM     14  C   UNL A   1     -29.057  -0.327  29.747  0.00  0.00    +0.003 A 
ATOM     15  C   UNL A   1     -28.983   0.972  30.152  0.00  0.00    +0.000 A 
ENDBRANCH   9  11
ENDBRANCH   3   9
ENDBRANCH   1   5
BRANCH   1  16
ATOM     16  C   UNL A   1     -24.977   3.101  27.770  0.00  0.00    +0.053 C 
BRANCH  16  17
ATOM     17  C   UNL A   1     -25.377   4.285  27.206  0.00  0.00    -0.018 A 
ATOM     18  C   UNL A   1     -25.680   5.398  28.013  0.00  0.00    -0.004 A 
ATOM     19  C   UNL A   1     -25.929   6.673  27.385  0.00  0.00    -0.000 A 
ATOM     20  C   UNL A   1     -25.337   6.852  26.204  0.00  0.00    -0.000 A 
ATOM     21  C   UNL A   1     -24.537   5.880  25.610  0.00  0.00    -0.000 A 
ATOM     22  C   UNL A   1     -24.564   4.592  26.079  0.00  0.00    -0.004 A 
BRANCH  18  23
ATOM     23  C   UNL A   1     -26.344   5.203  29.362  0.00  0.00    -0.000 A 
ATOM     24  C   UNL A   1     -26.141   6.278  30.295  0.00  0.00    -0.000 A 
ATOM     25  C   UNL A   1     -26.719   6.012  31.478  0.00  0.00    -0.000 A 
ATOM     26  C   UNL A   1     -27.350   4.872  31.762  0.00  0.00    -0.000 A 
ATOM     27  C   UNL A   1     -27.411   3.881  30.890  0.00  0.00    -0.000 A 
ATOM     28  C   UNL A   1     -26.858   4.059  29.642  0.00  0.00    -0.000 A 
ENDBRANCH  18  23
ENDBRANCH  16  17
ENDBRANCH   1  16
TORSDOF 6
