MODEL 3693
MODEL 1
REMARK VINA RESULT:    -7.210      0.000      0.000
REMARK INTER + INTRA:          -9.758
REMARK INTER:                  -8.896
REMARK INTRA:                  -0.862
REMARK UNBOUND:                -0.862
REMARK  Name = No_3693-gen_results/8p0m/2024-11-26-14-13-15/
REMARK  4 active torsions:
REMARK  status: ('A' for Active; 'I' for Inactive)
REMARK    1  A    between atoms: C_1  and  C_6
REMARK    2  A    between atoms: C_3  and  C_13
REMARK    3  A    between atoms: C_5  and  C_10
REMARK    4  A    between atoms: C_17  and  C_19
REMARK                            x       y       z     vdW  Elec       q    Type
REMARK                         _______ _______ _______ _____ _____    ______ ____
ROOT
ATOM      1  C   UNL A   1     -24.828  -3.618  29.293  0.00  0.00    +0.080 A 
ATOM      2  C   UNL A   1     -23.970  -2.819  28.999  0.00  0.00    +0.007 A 
ATOM      3  C   UNL A   1     -24.054  -1.450  29.192  0.00  0.00    +0.000 A 
ATOM      4  C   UNL A   1     -25.238  -0.955  29.813  0.00  0.00    -0.001 A 
ATOM      5  C   UNL A   1     -26.107  -1.884  30.261  0.00  0.00    +0.021 A 
ATOM      6  C   UNL A   1     -25.892  -3.171  30.034  0.00  0.00    +0.006 A 
ENDROOT
BRANCH   3   7
ATOM      7  C   UNL A   1     -23.020  -0.491  28.648  0.00  0.00    +0.000 A 
ATOM      8  C   UNL A   1     -21.824  -0.390  28.886  0.00  0.00    +0.000 A 
ATOM      9  C   UNL A   1     -20.885   0.510  28.280  0.00  0.00    +0.000 A 
ATOM     10  C   UNL A   1     -21.433   1.477  27.389  0.00  0.00    +0.007 A 
ATOM     11  C   UNL A   1     -22.833   1.477  27.183  0.00  0.00    +0.080 A 
ATOM     12  C   UNL A   1     -23.643   0.493  27.729  0.00  0.00    +0.007 A 
BRANCH  11  13
ATOM     13  C   UNL A   1     -23.343   2.464  26.206  0.00  0.00    +0.388 C 
ATOM     14  O   UNL A   1     -22.705   2.538  25.067  0.00  0.00    -0.241 OA
ATOM     15  O   UNL A   1     -24.356   3.171  26.444  0.00  0.00    -0.241 OA
ENDBRANCH  11  13
ENDBRANCH   3   7
BRANCH   1  16
ATOM     16  C   UNL A   1     -24.600  -5.024  29.104  0.00  0.00    +0.388 C 
ATOM     17  O   UNL A   1     -25.240  -5.854  29.257  0.00  0.00    -0.241 OA
ATOM     18  O   UNL A   1     -23.564  -5.230  28.125  0.00  0.00    -0.241 OA
ENDBRANCH   1  16
BRANCH   5  19
ATOM     19  C   UNL A   1     -27.315  -1.368  30.941  0.00  0.00    +0.239 C 
ATOM     20 BR   UNL A   1     -28.291  -1.398  30.487  0.00  0.00    -0.038 Br
ATOM     21  F   UNL A   1     -26.945  -0.808  32.105  0.00  0.00    -0.220 F 
ENDBRANCH   5  19
TORSDOF 4
ENDMDL
ENDMDL
