MODEL 3694
MODEL 1
REMARK VINA RESULT:    -8.458      0.000      0.000
REMARK INTER + INTRA:         -11.794
REMARK INTER:                 -10.930
REMARK INTRA:                  -0.864
REMARK UNBOUND:                -0.864
REMARK  Name = No_3694-gen_results/8p0m/2024-11-26-14-13-15/
REMARK  5 active torsions:
REMARK  status: ('A' for Active; 'I' for Inactive)
REMARK    1  A    between atoms: C_1  and  C_2
REMARK    2  A    between atoms: C_1  and  N_8
REMARK    3  A    between atoms: C_3  and  O_18
REMARK    4  A    between atoms: C_17  and  C_20
REMARK    5  A    between atoms: C_20  and  C_21
REMARK                            x       y       z     vdW  Elec       q    Type
REMARK                         _______ _______ _______ _____ _____    ______ ____
ROOT
ATOM      1  C   UNL A   1     -25.639   1.966  27.081  0.00  0.00    +0.028 A 
ATOM      2  C   UNL A   1     -24.644   2.787  26.588  0.00  0.00    +0.136 A 
ATOM      3  C   UNL A   1     -23.218   2.597  26.781  0.00  0.00    +0.037 A 
ATOM      4  C   UNL A   1     -22.776   1.493  27.543  0.00  0.00    +0.003 A 
ATOM      5  C   UNL A   1     -23.804   0.621  28.051  0.00  0.00    +0.003 A 
ATOM      6  C   UNL A   1     -25.149   0.800  27.824  0.00  0.00    +0.000 A 
ATOM      7  C   UNL A   1     -21.391   1.185  27.740  0.00  0.00    +0.000 A 
ATOM      8  C   UNL A   1     -21.063   0.126  28.566  0.00  0.00    +0.000 A 
ATOM      9  C   UNL A   1     -22.096  -0.770  28.889  0.00  0.00    +0.003 A 
ATOM     10  C   UNL A   1     -23.389  -0.525  28.793  0.00  0.00    +0.039 A 
ENDROOT
BRANCH   2  11
ATOM     11  O   UNL A   1     -24.828   3.824  25.822  0.00  0.00    -0.472 OA
ATOM     12  C   UNL A   1     -24.656   5.031  26.163  0.00  0.00    +0.253 C 
ENDBRANCH   2  11
BRANCH  10  13
ATOM     13  C   UNL A   1     -24.412  -1.418  29.381  0.00  0.00    +0.196 C 
ATOM     14  O   UNL A   1     -24.876  -0.739  30.466  0.00  0.00    -0.287 OA
BRANCH  13  15
ATOM     15  C   UNL A   1     -24.781  -2.486  29.186  0.00  0.00    +0.039 A 
ATOM     16  C   UNL A   1     -23.806  -3.557  28.707  0.00  0.00    +0.003 A 
ATOM     17  C   UNL A   1     -24.200  -4.898  28.580  0.00  0.00    +0.000 A 
ATOM     18  C   UNL A   1     -25.398  -5.292  29.162  0.00  0.00    +0.000 A 
ATOM     19  C   UNL A   1     -26.298  -4.360  29.740  0.00  0.00    +0.000 A 
ATOM     20  C   UNL A   1     -26.007  -3.038  29.789  0.00  0.00    +0.003 A 
ENDBRANCH  13  15
ENDBRANCH  10  13
BRANCH   1  21
ATOM     21  C   UNL A   1     -26.814   2.122  26.842  0.00  0.00    +0.102 C 
BRANCH  21  22
ATOM     22  N   UNL A   1     -27.346   1.624  25.663  0.00  0.00    -0.269 NA
ATOM     23  C   UNL A   1     -27.747   0.339  25.449  0.00  0.00    +0.072 C 
ATOM     24  C   UNL A   1     -28.275   0.008  24.202  0.00  0.00    +0.017 C 
ATOM     25  C   UNL A   1     -27.969   2.460  24.827  0.00  0.00    +0.072 C 
ATOM     26  C   UNL A   1     -28.449   2.166  23.543  0.00  0.00    +0.017 C 
ATOM     27  C   UNL A   1     -28.703   0.910  23.291  0.00  0.00    +0.003 C 
ENDBRANCH  21  22
ENDBRANCH   1  21
TORSDOF 5
ENDMDL
ENDMDL
