REMARK  Name = No_3694-gen_results/8p0m/2024-11-26-14-13-15/
REMARK  5 active torsions:
REMARK  status: ('A' for Active; 'I' for Inactive)
REMARK    1  A    between atoms: C_1  and  C_2
REMARK    2  A    between atoms: C_1  and  N_8
REMARK    3  A    between atoms: C_3  and  O_18
REMARK    4  A    between atoms: C_17  and  C_20
REMARK    5  A    between atoms: C_20  and  C_21
REMARK                            x       y       z     vdW  Elec       q    Type
REMARK                         _______ _______ _______ _____ _____    ______ ____
ROOT
ATOM      1  C   UNL A   1     -27.064  -0.119  28.608  0.00  0.00    +0.028 A 
ATOM      2  C   UNL A   1     -27.001   0.691  27.491  0.00  0.00    +0.136 A 
ATOM      3  C   UNL A   1     -25.855   1.482  27.083  0.00  0.00    +0.037 A 
ATOM      4  C   UNL A   1     -24.690   1.453  27.881  0.00  0.00    +0.003 A 
ATOM      5  C   UNL A   1     -24.738   0.601  29.042  0.00  0.00    +0.003 A 
ATOM      6  C   UNL A   1     -25.823  -0.169  29.389  0.00  0.00    +0.000 A 
ATOM      7  C   UNL A   1     -23.488   2.149  27.532  0.00  0.00    +0.000 A 
ATOM      8  C   UNL A   1     -22.428   2.118  28.420  0.00  0.00    +0.000 A 
ATOM      9  C   UNL A   1     -22.479   1.149  29.436  0.00  0.00    +0.003 A 
ATOM     10  C   UNL A   1     -23.564   0.520  29.849  0.00  0.00    +0.039 A 
ENDROOT
BRANCH   2  11
ATOM     11  O   UNL A   1     -27.939   0.821  26.597  0.00  0.00    -0.472 OA
ATOM     12  C   UNL A   1     -28.383   1.920  26.151  0.00  0.00    +0.253 C 
ENDBRANCH   2  11
BRANCH  10  13
ATOM     13  C   UNL A   1     -23.585  -0.299  31.081  0.00  0.00    +0.196 C 
ATOM     14  O   UNL A   1     -23.070  -1.501  30.701  0.00  0.00    -0.287 OA
BRANCH  13  15
ATOM     15  C   UNL A   1     -23.991  -0.172  32.146  0.00  0.00    +0.039 A 
ATOM     16  C   UNL A   1     -25.054   0.881  32.440  0.00  0.00    +0.003 A 
ATOM     17  C   UNL A   1     -25.659   0.975  33.702  0.00  0.00    +0.000 A 
ATOM     18  C   UNL A   1     -25.489  -0.075  34.596  0.00  0.00    +0.000 A 
ATOM     19  C   UNL A   1     -24.608  -1.155  34.331  0.00  0.00    +0.000 A 
ATOM     20  C   UNL A   1     -23.919  -1.233  33.167  0.00  0.00    +0.003 A 
ENDBRANCH  13  15
ENDBRANCH  10  13
BRANCH   1  21
ATOM     21  C   UNL A   1     -28.016  -0.814  28.878  0.00  0.00    +0.102 C 
BRANCH  21  22
ATOM     22  N   UNL A   1     -28.757  -0.548  30.019  0.00  0.00    -0.269 NA
ATOM     23  C   UNL A   1     -29.760  -1.326  30.517  0.00  0.00    +0.072 C 
ATOM     24  C   UNL A   1     -30.396  -0.917  31.688  0.00  0.00    +0.017 C 
ATOM     25  C   UNL A   1     -28.221   0.208  30.981  0.00  0.00    +0.072 C 
ATOM     26  C   UNL A   1     -28.860   0.685  32.133  0.00  0.00    +0.017 C 
ATOM     27  C   UNL A   1     -29.909   0.018  32.535  0.00  0.00    +0.003 C 
ENDBRANCH  21  22
ENDBRANCH   1  21
TORSDOF 5
