MODEL 3695
MODEL 1
REMARK VINA RESULT:    -6.562      0.000      0.000
REMARK INTER + INTRA:          -7.011
REMARK INTER:                  -6.946
REMARK INTRA:                  -0.065
REMARK UNBOUND:                -0.065
REMARK  Name = No_3695-gen_results/8p0m/2024-11-26-14-13-15/
REMARK  1 active torsions:
REMARK  status: ('A' for Active; 'I' for Inactive)
REMARK    1  A    between atoms: C_8  and  C_11
REMARK                            x       y       z     vdW  Elec       q    Type
REMARK                         _______ _______ _______ _____ _____    ______ ____
ROOT
ATOM      1  C   UNL A   1     -29.779 -11.636  28.130  0.00  0.00    +0.000 A 
ATOM      2  C   UNL A   1     -29.004 -12.011  28.978  0.00  0.00    +0.000 A 
ATOM      3  C   UNL A   1     -28.931 -11.456  30.256  0.00  0.00    +0.000 A 
ATOM      4  C   UNL A   1     -29.783 -10.330  30.586  0.00  0.00    +0.000 A 
ATOM      5  C   UNL A   1     -30.647  -9.919  29.572  0.00  0.00    +0.000 A 
ATOM      6  C   UNL A   1     -30.642 -10.495  28.385  0.00  0.00    +0.000 A 
ATOM      7  C   UNL A   1     -28.010 -11.868  31.354  0.00  0.00    +0.007 A 
ATOM      8  C   UNL A   1     -28.068 -11.408  32.581  0.00  0.00    +0.080 A 
ATOM      9  C   UNL A   1     -29.116 -10.407  32.839  0.00  0.00    +0.007 A 
ATOM     10  C   UNL A   1     -29.894  -9.849  31.906  0.00  0.00    +0.000 A 
ENDROOT
BRANCH   8  11
ATOM     11  C   UNL A   1     -27.230 -11.833  33.683  0.00  0.00    +0.388 C 
ATOM     12  O   UNL A   1     -26.754 -12.872  33.753  0.00  0.00    -0.241 OA
ATOM     13  O   UNL A   1     -26.890 -10.932  34.574  0.00  0.00    -0.241 OA
ENDBRANCH   8  11
TORSDOF 1
ENDMDL
ENDMDL
