MODEL 3696
MODEL 1
REMARK VINA RESULT:    -6.362      0.000      0.000
REMARK INTER + INTRA:          -7.953
REMARK INTER:                  -7.478
REMARK INTRA:                  -0.474
REMARK UNBOUND:                -0.474
REMARK  Name = No_3696-gen_results/8p0m/2024-11-26-14-13-15/
REMARK  3 active torsions:
REMARK  status: ('A' for Active; 'I' for Inactive)
REMARK    1  A    between atoms: C_3  and  C_7
REMARK    2  A    between atoms: C_7  and  C_9
REMARK    3  A    between atoms: C_10  and  C_11
REMARK                            x       y       z     vdW  Elec       q    Type
REMARK                         _______ _______ _______ _____ _____    ______ ____
ROOT
ATOM      1  C   UNL A   1     -23.281  -0.600  29.290  0.00  0.00    +0.124 C 
ATOM      2 CL   UNL A   1     -23.304  -0.164  30.613  0.00  0.00    -0.105 Cl
ENDROOT
BRANCH   1   5
ATOM      3  C   UNL A   1     -22.052   1.256  27.986  0.00  0.00    -0.003 A 
ATOM      4  C   UNL A   1     -22.117   1.874  27.135  0.00  0.00    -0.000 A 
ATOM      5  C   UNL A   1     -23.212   0.383  28.165  0.00  0.00    -0.003 A 
ATOM      6  C   UNL A   1     -24.263   0.375  27.282  0.00  0.00    -0.003 A 
ATOM      7  C   UNL A   1     -23.077   2.073  26.049  0.00  0.00    -0.000 A 
ATOM      8  C   UNL A   1     -24.204   1.233  26.213  0.00  0.00    -0.000 A 
ENDBRANCH   1   5
BRANCH   1   9
ATOM      9  C   UNL A   1     -23.324  -1.993  28.876  0.00  0.00    -0.006 C 
ATOM     10  C   UNL A   1     -24.344  -2.842  29.087  0.00  0.00    -0.003 C 
BRANCH  10  11
ATOM     11  C   UNL A   1     -24.151  -4.258  28.917  0.00  0.00    -0.005 C 
ATOM     12  C   UNL A   1     -25.269  -5.109  29.190  0.00  0.00    -0.026 C 
ATOM     13  C   UNL A   1     -26.465  -4.573  29.727  0.00  0.00    +0.031 C 
ENDBRANCH  10  11
ENDBRANCH   1   9
TORSDOF 3
ENDMDL
ENDMDL
