REMARK  Name = No_3697-gen_results/8p0m/2024-11-26-14-13-15/
REMARK  5 active torsions:
REMARK  status: ('A' for Active; 'I' for Inactive)
REMARK    1  A    between atoms: C_2  and  C_17
REMARK    2  A    between atoms: C_4  and  C_7
REMARK    3  A    between atoms: C_8  and  C_14
REMARK    4  A    between atoms: C_14  and  O_15
REMARK    5  A    between atoms: O_15  and  C_20
REMARK                            x       y       z     vdW  Elec       q    Type
REMARK                         _______ _______ _______ _____ _____    ______ ____
ROOT
ATOM      1  C   UNL A   1     -24.389  -0.805  30.164  0.00  0.00    +0.045 C 
ATOM      2  C   UNL A   1     -23.817   0.476  29.912  0.00  0.00    +0.106 C 
ATOM      3  C   UNL A   1     -22.501   0.545  29.410  0.00  0.00    +0.030 C 
ATOM      4  C   UNL A   1     -21.770  -0.652  29.213  0.00  0.00    +0.089 C 
ATOM      5  C   UNL A   1     -23.694  -1.821  29.252  0.00  0.00    +0.093 C 
ATOM      6  N   UNL A   1     -22.327  -1.724  29.165  0.00  0.00    -0.218 NA
ATOM      7  C   UNL A   1     -23.847  -1.262  31.659  0.00  0.00    +0.006 C 
ENDROOT
BRANCH   1  11
ATOM      8  C   UNL A   1     -28.016  -0.814  28.878  0.00  0.00    +0.006 A 
ATOM      9  C   UNL A   1     -28.469  -0.785  29.829  0.00  0.00    +0.080 A 
ATOM     10  C   UNL A   1     -26.504  -0.778  28.877  0.00  0.00    -0.004 A 
ATOM     11  C   UNL A   1     -25.810  -0.853  30.103  0.00  0.00    -0.021 A 
ATOM     12  C   UNL A   1     -27.991  -0.892  31.226  0.00  0.00    +0.006 A 
ATOM     13  C   UNL A   1     -26.604  -0.868  31.265  0.00  0.00    -0.004 A 
BRANCH   9  14
ATOM     14  C   UNL A   1     -30.078  -0.840  29.806  0.00  0.00    +0.388 C 
ATOM     15  O   UNL A   1     -30.504  -0.403  28.841  0.00  0.00    -0.241 OA
ATOM     16  O   UNL A   1     -30.756  -1.258  30.791  0.00  0.00    -0.241 OA
ENDBRANCH   9  14
ENDBRANCH   1  11
BRANCH   2  17
ATOM     17  C   UNL A   1     -24.431   1.736  30.342  0.00  0.00    +0.321 C 
ATOM     18  O   UNL A   1     -24.551   2.008  31.625  0.00  0.00    -0.250 OA
BRANCH  17  19
ATOM     19  O   UNL A   1     -24.912   2.496  29.429  0.00  0.00    -0.428 OA
BRANCH  19  20
ATOM     20  C   UNL A   1     -24.946   2.408  28.204  0.00  0.00    +0.130 C 
ATOM     21  C   UNL A   1     -25.689   1.953  27.388  0.00  0.00    +0.033 C 
ATOM     22  C   UNL A   1     -25.492   1.884  26.014  0.00  0.00    -0.001 C 
ATOM     23  C   UNL A   1     -24.244   2.453  25.561  0.00  0.00    -0.018 C 
ATOM     24  C   UNL A   1     -23.744   2.935  27.363  0.00  0.00    +0.091 C 
ENDBRANCH  19  20
ENDBRANCH  17  19
ENDBRANCH   2  17
TORSDOF 5
