MODEL 3697
MODEL 1
REMARK VINA RESULT:    -6.254      0.000      0.000
REMARK INTER + INTRA:         -10.438
REMARK INTER:                  -8.082
REMARK INTRA:                  -2.355
REMARK UNBOUND:                -2.355
REMARK  Name = No_3697-gen_results/8p0m/2024-11-26-14-13-15/
REMARK  5 active torsions:
REMARK  status: ('A' for Active; 'I' for Inactive)
REMARK    1  A    between atoms: C_2  and  C_17
REMARK    2  A    between atoms: C_4  and  C_7
REMARK    3  A    between atoms: C_8  and  C_14
REMARK    4  A    between atoms: C_14  and  O_15
REMARK    5  A    between atoms: O_15  and  C_20
REMARK                            x       y       z     vdW  Elec       q    Type
REMARK                         _______ _______ _______ _____ _____    ______ ____
ROOT
ATOM      1  C   UNL A   1     -16.722 -22.771   8.340  0.00  0.00    +0.045 C 
ATOM      2  C   UNL A   1     -16.516 -24.027   7.698  0.00  0.00    +0.106 C 
ATOM      3  C   UNL A   1     -16.196 -25.149   8.489  0.00  0.00    +0.030 C 
ATOM      4  C   UNL A   1     -16.045 -24.991   9.889  0.00  0.00    +0.089 C 
ATOM      5  C   UNL A   1     -17.170 -23.044   9.779  0.00  0.00    +0.093 C 
ATOM      6  N   UNL A   1     -16.476 -24.015  10.458  0.00  0.00    -0.218 NA
ATOM      7  C   UNL A   1     -15.218 -22.120   8.568  0.00  0.00    +0.006 C 
ENDROOT
BRANCH   1  11
ATOM      8  C   UNL A   1     -17.990 -19.975   6.019  0.00  0.00    +0.006 A 
ATOM      9  C   UNL A   1     -18.991 -20.008   6.346  0.00  0.00    +0.080 A 
ATOM     10  C   UNL A   1     -17.046 -20.925   6.722  0.00  0.00    -0.004 A 
ATOM     11  C   UNL A   1     -17.565 -21.866   7.636  0.00  0.00    -0.021 A 
ATOM     12  C   UNL A   1     -19.781 -20.893   7.232  0.00  0.00    +0.006 A 
ATOM     13  C   UNL A   1     -18.947 -21.784   7.892  0.00  0.00    -0.004 A 
BRANCH   9  14
ATOM     14  C   UNL A   1     -19.981 -19.000   5.573  0.00  0.00    +0.388 C 
ATOM     15  O   UNL A   1     -20.490 -19.504   4.684  0.00  0.00    -0.241 OA
ATOM     16  O   UNL A   1     -20.097 -17.781   5.899  0.00  0.00    -0.241 OA
ENDBRANCH   9  14
ENDBRANCH   1  11
BRANCH   2  17
ATOM     17  C   UNL A   1     -16.404 -24.185   6.245  0.00  0.00    +0.321 C 
ATOM     18  O   UNL A   1     -15.312 -23.793   5.620  0.00  0.00    -0.250 OA
BRANCH  17  19
ATOM     19  O   UNL A   1     -17.432 -24.629   5.622  0.00  0.00    -0.428 OA
BRANCH  19  20
ATOM     20  C   UNL A   1     -18.368 -24.071   5.054  0.00  0.00    +0.130 C 
ATOM     21  C   UNL A   1     -18.496 -23.255   4.192  0.00  0.00    +0.033 C 
ATOM     22  C   UNL A   1     -19.680 -22.683   3.743  0.00  0.00    -0.001 C 
ATOM     23  C   UNL A   1     -20.867 -23.169   4.407  0.00  0.00    -0.018 C 
ATOM     24  C   UNL A   1     -19.828 -24.364   5.513  0.00  0.00    +0.091 C 
ENDBRANCH  19  20
ENDBRANCH  17  19
ENDBRANCH   2  17
TORSDOF 5
ENDMDL
ENDMDL
