REMARK  Name = No_3698-gen_results/8p0m/2024-11-26-14-13-15/
REMARK  2 active torsions:
REMARK  status: ('A' for Active; 'I' for Inactive)
REMARK    1  A    between atoms: C_2  and  C_3
REMARK    2  A    between atoms: C_5  and  C_6
REMARK                            x       y       z     vdW  Elec       q    Type
REMARK                         _______ _______ _______ _____ _____    ______ ____
ROOT
ATOM      1  C   UNL A   1     -26.380  -0.087  27.939  0.00  0.00    +0.059 C 
ATOM      2  C   UNL A   1     -26.409   0.857  26.880  0.00  0.00    +0.005 C 
ENDROOT
BRANCH   2   3
ATOM      3  C   UNL A   1     -27.582   1.488  26.591  0.00  0.00    +0.000 A 
ATOM      4  C   UNL A   1     -27.579   2.302  25.419  0.00  0.00    +0.000 A 
ATOM      5  C   UNL A   1     -28.750   2.981  25.077  0.00  0.00    +0.000 A 
ATOM      6  C   UNL A   1     -29.952   2.784  25.782  0.00  0.00    +0.000 A 
ATOM      7  C   UNL A   1     -29.896   1.935  26.899  0.00  0.00    +0.000 A 
ATOM      8  C   UNL A   1     -28.791   1.337  27.251  0.00  0.00    +0.000 A 
ENDBRANCH   2   3
BRANCH   1  10
ATOM      9  O   UNL A   1     -28.123  -1.335  28.487  0.00  0.00    -0.268 OA
ATOM     10  C   UNL A   1     -27.481  -0.404  28.709  0.00  0.00    +0.265 C 
ATOM     11  N   UNL A   1     -27.666   0.447  29.899  0.00  0.00    -0.200 NA
ATOM     12  C   UNL A   1     -28.035   0.074  30.880  0.00  0.00    +0.139 C 
ENDBRANCH   1  10
TORSDOF 2
