MODEL 3698
MODEL 1
REMARK VINA RESULT:    -4.876      0.000      0.000
REMARK INTER + INTRA:          -5.601
REMARK INTER:                  -5.447
REMARK INTRA:                  -0.154
REMARK UNBOUND:                -0.154
REMARK  Name = No_3698-gen_results/8p0m/2024-11-26-14-13-15/
REMARK  2 active torsions:
REMARK  status: ('A' for Active; 'I' for Inactive)
REMARK    1  A    between atoms: C_2  and  C_3
REMARK    2  A    between atoms: C_5  and  C_6
REMARK                            x       y       z     vdW  Elec       q    Type
REMARK                         _______ _______ _______ _____ _____    ______ ____
ROOT
ATOM      1  C   UNL A   1     -24.105  -0.059  30.576  0.00  0.00    +0.059 C 
ATOM      2  C   UNL A   1     -24.622  -0.664  29.401  0.00  0.00    +0.005 C 
ENDROOT
BRANCH   2   3
ATOM      3  C   UNL A   1     -24.794  -2.016  29.376  0.00  0.00    +0.000 A 
ATOM      4  C   UNL A   1     -26.090  -2.486  29.745  0.00  0.00    +0.000 A 
ATOM      5  C   UNL A   1     -26.324  -3.862  29.748  0.00  0.00    +0.000 A 
ATOM      6  C   UNL A   1     -25.361  -4.777  29.280  0.00  0.00    +0.000 A 
ATOM      7  C   UNL A   1     -24.122  -4.243  28.890  0.00  0.00    +0.000 A 
ATOM      8  C   UNL A   1     -23.883  -2.961  28.933  0.00  0.00    +0.000 A 
ENDBRANCH   2   3
BRANCH   1  10
ATOM      9  O   UNL A   1     -22.702  -1.172  31.876  0.00  0.00    -0.268 OA
ATOM     10  C   UNL A   1     -23.768  -0.766  31.713  0.00  0.00    +0.265 C 
ATOM     11  N   UNL A   1     -24.825  -0.820  32.740  0.00  0.00    -0.200 NA
ATOM     12  C   UNL A   1     -24.632  -0.778  33.835  0.00  0.00    +0.139 C 
ENDBRANCH   1  10
TORSDOF 2
ENDMDL
ENDMDL
