REMARK  Name = No_3699-gen_results/8p0m/2024-11-26-14-13-15/
REMARK  6 active torsions:
REMARK  status: ('A' for Active; 'I' for Inactive)
REMARK    1  A    between atoms: C_4  and  C_6
REMARK    2  A    between atoms: C_8  and  C_9
REMARK    3  A    between atoms: C_9  and  C_10
REMARK    4  A    between atoms: C_10  and  C_11
REMARK    5  A    between atoms: C_12  and  C_13
REMARK    6  A    between atoms: C_13  and  C_14
REMARK                            x       y       z     vdW  Elec       q    Type
REMARK                         _______ _______ _______ _____ _____    ______ ____
ROOT
ATOM      1  C   UNL A   1     -22.334  -0.381  29.142  0.00  0.00    +0.030 C 
ENDROOT
BRANCH   1   3
ATOM      2  C   UNL A   1     -24.398  -0.836  30.177  0.00  0.00    -0.026 C 
ATOM      3  C   UNL A   1     -23.636  -0.904  29.156  0.00  0.00    -0.030 C 
ATOM      4  C   UNL A   1     -23.843  -0.765  31.549  0.00  0.00    +0.031 C 
BRANCH   2   8
ATOM      5  C   UNL A   1     -28.016  -0.814  28.878  0.00  0.00    +0.011 A 
ATOM      6  C   UNL A   1     -28.469  -0.785  29.829  0.00  0.00    +0.058 A 
ATOM      7  C   UNL A   1     -26.504  -0.778  28.877  0.00  0.00    +0.001 A 
ATOM      8  C   UNL A   1     -25.810  -0.853  30.103  0.00  0.00    -0.004 A 
ATOM      9  C   UNL A   1     -27.991  -0.892  31.226  0.00  0.00    +0.011 A 
ATOM     10  C   UNL A   1     -26.575  -0.890  31.266  0.00  0.00    +0.001 A 
ATOM     11 CL   UNL A   1     -30.306  -0.820  29.807  0.00  0.00    -0.082 Cl
ENDBRANCH   2   8
ENDBRANCH   1   3
BRANCH   1  12
ATOM     12  C   UNL A   1     -21.884   0.621  28.711  0.00  0.00    +0.030 C 
BRANCH  12  13
ATOM     13  C   UNL A   1     -22.747   1.644  28.137  0.00  0.00    -0.030 C 
ATOM     14  C   UNL A   1     -23.879   1.611  27.762  0.00  0.00    -0.026 C 
BRANCH  14  15
ATOM     15  C   UNL A   1     -24.554   2.753  27.229  0.00  0.00    +0.052 C 
BRANCH  15  16
ATOM     16  C   UNL A   1     -25.501   3.282  27.422  0.00  0.00    -0.018 A 
ATOM     17  C   UNL A   1     -26.303   2.751  28.514  0.00  0.00    -0.004 A 
ATOM     18  C   UNL A   1     -27.603   3.269  28.753  0.00  0.00    -0.000 A 
ATOM     19  C   UNL A   1     -27.971   4.348  28.032  0.00  0.00    -0.000 A 
ATOM     20  C   UNL A   1     -27.289   4.942  27.055  0.00  0.00    -0.000 A 
ATOM     21  C   UNL A   1     -26.067   4.439  26.727  0.00  0.00    -0.004 A 
ENDBRANCH  15  16
ENDBRANCH  14  15
ENDBRANCH  12  13
ENDBRANCH   1  12
TORSDOF 6
