MODEL 3699
MODEL 1
REMARK VINA RESULT:    -6.856      0.000      0.000
REMARK INTER + INTRA:         -10.560
REMARK INTER:                  -9.261
REMARK INTRA:                  -1.298
REMARK UNBOUND:                -1.298
REMARK  Name = No_3699-gen_results/8p0m/2024-11-26-14-13-15/
REMARK  6 active torsions:
REMARK  status: ('A' for Active; 'I' for Inactive)
REMARK    1  A    between atoms: C_4  and  C_6
REMARK    2  A    between atoms: C_8  and  C_9
REMARK    3  A    between atoms: C_9  and  C_10
REMARK    4  A    between atoms: C_10  and  C_11
REMARK    5  A    between atoms: C_12  and  C_13
REMARK    6  A    between atoms: C_13  and  C_14
REMARK                            x       y       z     vdW  Elec       q    Type
REMARK                         _______ _______ _______ _____ _____    ______ ____
ROOT
ATOM      1  C   UNL A   1     -10.405   2.510  34.515  0.00  0.00    +0.030 C 
ENDROOT
BRANCH   1   3
ATOM      2  C   UNL A   1     -12.740   2.585  34.801  0.00  0.00    -0.026 C 
ATOM      3  C   UNL A   1     -11.595   3.137  34.914  0.00  0.00    -0.030 C 
ATOM      4  C   UNL A   1     -13.004   1.566  33.758  0.00  0.00    +0.031 C 
BRANCH   2   8
ATOM      5  C   UNL A   1     -16.204   3.714  36.028  0.00  0.00    +0.011 A 
ATOM      6  C   UNL A   1     -15.983   3.634  37.055  0.00  0.00    +0.058 A 
ATOM      7  C   UNL A   1     -15.058   3.405  35.090  0.00  0.00    +0.001 A 
ATOM      8  C   UNL A   1     -13.848   2.906  35.618  0.00  0.00    -0.004 A 
ATOM      9  C   UNL A   1     -14.846   3.116  37.850  0.00  0.00    +0.011 A 
ATOM     10  C   UNL A   1     -13.759   2.787  37.003  0.00  0.00    +0.001 A 
ATOM     11 CL   UNL A   1     -17.386   4.023  38.176  0.00  0.00    -0.082 Cl
ENDBRANCH   2   8
ENDBRANCH   1   3
BRANCH   1  12
ATOM     12  C   UNL A   1      -9.479   2.103  35.122  0.00  0.00    +0.030 C 
BRANCH  12  13
ATOM     13  C   UNL A   1      -9.575   0.879  35.905  0.00  0.00    -0.030 C 
ATOM     14  C   UNL A   1     -10.503   0.335  36.421  0.00  0.00    -0.026 C 
BRANCH  14  15
ATOM     15  C   UNL A   1     -10.379  -0.888  37.151  0.00  0.00    +0.052 C 
BRANCH  15  16
ATOM     16  C   UNL A   1     -10.720  -1.274  38.125  0.00  0.00    -0.018 A 
ATOM     17  C   UNL A   1     -11.788  -2.260  38.069  0.00  0.00    -0.004 A 
ATOM     18  C   UNL A   1     -12.395  -2.714  39.269  0.00  0.00    -0.000 A 
ATOM     19  C   UNL A   1     -11.835  -2.307  40.427  0.00  0.00    -0.000 A 
ATOM     20  C   UNL A   1     -10.824  -1.456  40.583  0.00  0.00    -0.000 A 
ATOM     21  C   UNL A   1     -10.252  -0.925  39.467  0.00  0.00    -0.004 A 
ENDBRANCH  15  16
ENDBRANCH  14  15
ENDBRANCH  12  13
ENDBRANCH   1  12
TORSDOF 6
ENDMDL
ENDMDL
