MODEL 369
MODEL 1
REMARK VINA RESULT:    -6.455      0.000      0.000
REMARK INTER + INTRA:          -7.576
REMARK INTER:                  -7.210
REMARK INTRA:                  -0.366
REMARK UNBOUND:                -0.366
REMARK  Name = No_369-gen_results/8p0m/2024-11-26-14-13-15/
REMARK  2 active torsions:
REMARK  status: ('A' for Active; 'I' for Inactive)
REMARK    1  A    between atoms: C_3  and  C_4
REMARK    2  A    between atoms: C_12  and  O_14
REMARK                            x       y       z     vdW  Elec       q    Type
REMARK                         _______ _______ _______ _____ _____    ______ ____
ROOT
ATOM      1  C   UNL A   1     -23.244  -0.748  28.756  0.00  0.00    +0.030 A 
ATOM      2  C   UNL A   1     -21.818  -0.782  28.938  0.00  0.00    +0.002 A 
ATOM      3  C   UNL A   1     -21.068   0.281  28.495  0.00  0.00    +0.003 A 
ATOM      4  C   UNL A   1     -21.473   1.319  27.719  0.00  0.00    +0.039 A 
ATOM      5  C   UNL A   1     -23.709   0.364  27.935  0.00  0.00    +0.174 A 
ATOM      6  C   UNL A   1     -22.818   1.350  27.465  0.00  0.00    +0.166 A 
ATOM      7  F   UNL A   1     -24.859   0.371  27.459  0.00  0.00    -0.201 F 
ENDROOT
BRANCH   1  10
ATOM      8  C   UNL A   1     -24.929  -3.986  29.028  0.00  0.00    +0.011 A 
ATOM      9  C   UNL A   1     -24.105  -3.169  28.688  0.00  0.00    +0.001 A 
ATOM     10  C   UNL A   1     -24.187  -1.847  29.113  0.00  0.00    +0.002 A 
ATOM     11  C   UNL A   1     -26.141  -3.558  29.745  0.00  0.00    +0.058 A 
ATOM     12  C   UNL A   1     -26.280  -2.305  30.266  0.00  0.00    +0.011 A 
ATOM     13  C   UNL A   1     -25.306  -1.335  29.934  0.00  0.00    +0.001 A 
ATOM     14 CL   UNL A   1     -27.385  -4.695  30.149  0.00  0.00    -0.082 Cl
ENDBRANCH   1  10
BRANCH   6  15
ATOM     15  O   UNL A   1     -23.363   2.347  26.722  0.00  0.00    -0.469 OA
ATOM     16  C   UNL A   1     -22.877   2.287  25.375  0.00  0.00    +0.253 C 
ENDBRANCH   6  15
TORSDOF 2
ENDMDL
ENDMDL
