MODEL 36
MODEL 1
REMARK VINA RESULT:    -3.162      0.000      0.000
REMARK INTER + INTRA:          -3.414
REMARK INTER:                  -3.347
REMARK INTRA:                  -0.067
REMARK UNBOUND:                -0.067
REMARK  Name = No_36-gen_results/8p0m/2024-11-26-14-13-15/
REMARK  1 active torsions:
REMARK  status: ('A' for Active; 'I' for Inactive)
REMARK    1  A    between atoms: C_3  and  C_4
REMARK                            x       y       z     vdW  Elec       q    Type
REMARK                         _______ _______ _______ _____ _____    ______ ____
ROOT
ATOM      1 CL   UNL A   1     -26.158  -4.891  29.695  0.00  0.00    -0.081 Cl
ATOM      2  C   UNL A   1     -24.967  -5.291  29.172  0.00  0.00    +0.068 C 
ATOM      3  C   UNL A   1     -24.104  -4.382  28.641  0.00  0.00    +0.012 C 
ENDROOT
BRANCH   3   4
ATOM      4  C   UNL A   1     -24.462  -2.957  28.600  0.00  0.00    +0.001 C 
ATOM      5  C   UNL A   1     -23.479  -2.115  29.202  0.00  0.00    +0.000 C 
ENDBRANCH   3   4
TORSDOF 1
ENDMDL
ENDMDL
