REMARK  Name = No_37-gen_results/8p0m/2024-11-26-14-13-15/
REMARK  3 active torsions:
REMARK  status: ('A' for Active; 'I' for Inactive)
REMARK    1  A    between atoms: C_3  and  C_11
REMARK    2  A    between atoms: C_11  and  C_12
REMARK    3  A    between atoms: C_16  and  C_18
REMARK                            x       y       z     vdW  Elec       q    Type
REMARK                         _______ _______ _______ _____ _____    ______ ____
ROOT
ATOM      1  C   UNL A   1     -28.016  -0.814  28.878  0.00  0.00    -0.004 A 
ATOM      2  C   UNL A   1     -28.469  -0.785  29.829  0.00  0.00    -0.000 A 
ATOM      3  C   UNL A   1     -26.546  -0.876  28.850  0.00  0.00    -0.018 A 
ATOM      4  C   UNL A   1     -25.804  -1.032  30.057  0.00  0.00    -0.004 A 
ATOM      5  C   UNL A   1     -26.537  -1.039  31.217  0.00  0.00    -0.000 A 
ATOM      6  C   UNL A   1     -27.884  -0.953  31.186  0.00  0.00    -0.000 A 
ATOM      7  C   UNL A   1     -24.366  -1.113  30.048  0.00  0.00    -0.000 A 
ATOM      8  C   UNL A   1     -23.745  -1.369  30.812  0.00  0.00    -0.000 A 
ATOM      9  C   UNL A   1     -24.283  -1.353  32.202  0.00  0.00    -0.000 A 
ATOM     10  C   UNL A   1     -25.705  -1.194  32.375  0.00  0.00    -0.000 A 
ENDROOT
BRANCH   3  11
ATOM     11  C   UNL A   1     -25.922  -0.647  27.533  0.00  0.00    +0.053 C 
BRANCH  11  12
ATOM     12  C   UNL A   1     -25.779   0.728  27.100  0.00  0.00    -0.018 A 
ATOM     13  C   UNL A   1     -24.900   1.009  26.099  0.00  0.00    -0.004 A 
ATOM     14  C   UNL A   1     -24.656   2.346  25.661  0.00  0.00    -0.000 A 
ATOM     15  C   UNL A   1     -25.166   3.390  26.470  0.00  0.00    -0.000 A 
ATOM     16  C   UNL A   1     -25.976   3.105  27.557  0.00  0.00    -0.001 A 
ATOM     17  C   UNL A   1     -26.232   1.764  27.961  0.00  0.00    -0.004 A 
BRANCH  16  18
ATOM     18  C   UNL A   1     -26.393   4.296  28.384  0.00  0.00    -0.005 C 
ATOM     19  C   UNL A   1     -27.603   4.343  28.714  0.00  0.00    -0.026 C 
ATOM     20  C   UNL A   1     -28.086   5.443  29.546  0.00  0.00    +0.031 C 
ENDBRANCH  16  18
ENDBRANCH  11  12
ENDBRANCH   3  11
TORSDOF 3
