REMARK  Name = No_370-gen_results/8p0m/2024-11-26-14-13-15/
REMARK  2 active torsions:
REMARK  status: ('A' for Active; 'I' for Inactive)
REMARK    1  A    between atoms: C_4  and  C_7
REMARK    2  A    between atoms: C_7  and  C_8
REMARK                            x       y       z     vdW  Elec       q    Type
REMARK                         _______ _______ _______ _____ _____    ______ ____
ROOT
ATOM      1  C   UNL A   1     -28.016  -0.814  28.878  0.00  0.00    +0.011 A 
ATOM      2  C   UNL A   1     -28.469  -0.785  29.829  0.00  0.00    +0.001 A 
ATOM      3  C   UNL A   1     -26.546  -0.876  28.850  0.00  0.00    +0.054 A 
ATOM      4  C   UNL A   1     -25.804  -1.032  30.057  0.00  0.00    -0.007 A 
ATOM      5  C   UNL A   1     -26.537  -1.039  31.217  0.00  0.00    -0.003 A 
ATOM      6  C   UNL A   1     -27.884  -0.953  31.186  0.00  0.00    -0.000 A 
ATOM      7 CL   UNL A   1     -25.611  -0.741  27.377  0.00  0.00    -0.083 Cl
ENDROOT
BRANCH   4   8
ATOM      8  C   UNL A   1     -24.355  -1.112  30.035  0.00  0.00    +0.053 C 
BRANCH   8   9
ATOM      9  C   UNL A   1     -23.661   0.103  29.845  0.00  0.00    -0.018 A 
ATOM     10  C   UNL A   1     -23.953   1.233  30.452  0.00  0.00    -0.004 A 
ATOM     11  C   UNL A   1     -22.507   0.105  28.932  0.00  0.00    -0.004 A 
ATOM     12  C   UNL A   1     -22.063   1.251  28.296  0.00  0.00    -0.000 A 
ATOM     13  C   UNL A   1     -23.627   2.526  29.895  0.00  0.00    -0.000 A 
ATOM     14  C   UNL A   1     -22.521   2.508  28.876  0.00  0.00    -0.000 A 
ENDBRANCH   8   9
ENDBRANCH   4   8
TORSDOF 2
