MODEL 3700
MODEL 1
REMARK VINA RESULT:    -6.917      0.000      0.000
REMARK INTER + INTRA:          -6.917
REMARK INTER:                  -6.917
REMARK INTRA:                   0.000
REMARK UNBOUND:                 0.000
REMARK  Name = No_3700-gen_results/8p0m/2024-11-26-14-13-15/
REMARK  0 active torsions:
REMARK  status: ('A' for Active; 'I' for Inactive)
REMARK                            x       y       z     vdW  Elec       q    Type
REMARK                         _______ _______ _______ _____ _____    ______ ____
ROOT
ATOM      1  C   UNL A   1     -11.351   1.700  34.621  0.00  0.00    +0.000 A 
ATOM      2  C   UNL A   1     -10.514   1.203  35.025  0.00  0.00    +0.000 A 
ATOM      3  C   UNL A   1     -12.444   1.878  35.576  0.00  0.00    +0.000 A 
ATOM      4  C   UNL A   1     -13.680   2.636  35.278  0.00  0.00    +0.000 A 
ATOM      5  C   UNL A   1      -9.234   0.999  34.158  0.00  0.00    +0.000 A 
ATOM      6  C   UNL A   1     -14.532   3.093  36.269  0.00  0.00    +0.000 A 
ATOM      7  C   UNL A   1     -14.198   2.849  37.622  0.00  0.00    +0.000 A 
ATOM      8  C   UNL A   1     -13.057   2.227  37.927  0.00  0.00    +0.000 A 
ATOM      9  C   UNL A   1     -12.167   1.834  37.007  0.00  0.00    +0.000 A 
ATOM     10  C   UNL A   1      -8.115   0.268  34.520  0.00  0.00    +0.000 A 
ATOM     11  C   UNL A   1      -8.105  -0.233  35.851  0.00  0.00    +0.000 A 
ATOM     12  C   UNL A   1      -9.127  -0.074  36.690  0.00  0.00    +0.000 A 
ATOM     13  C   UNL A   1     -10.224   0.590  36.456  0.00  0.00    +0.000 A 
ATOM     14  C   UNL A   1     -11.217   0.999  37.312  0.00  0.00    +0.000 A 
ATOM     15  C   UNL A   1     -15.788   3.799  35.931  0.00  0.00    +0.000 A 
ATOM     16  C   UNL A   1     -16.621   3.989  36.500  0.00  0.00    +0.000 A 
ATOM     17  C   UNL A   1     -16.400   3.898  38.058  0.00  0.00    +0.000 A 
ATOM     18  C   UNL A   1     -15.270   3.303  38.514  0.00  0.00    +0.000 A 
ENDROOT
TORSDOF 0
ENDMDL
ENDMDL
