MODEL 3701
MODEL 1
REMARK VINA RESULT:    -5.096      0.000      0.000
REMARK INTER + INTRA:          -5.830
REMARK INTER:                  -5.692
REMARK INTRA:                  -0.138
REMARK UNBOUND:                -0.138
REMARK  Name = No_3701-gen_results/8p0m/2024-11-26-14-13-15/
REMARK  2 active torsions:
REMARK  status: ('A' for Active; 'I' for Inactive)
REMARK    1  A    between atoms: C_2  and  N_7
REMARK    2  A    between atoms: N_7  and  C_8
REMARK                            x       y       z     vdW  Elec       q    Type
REMARK                         _______ _______ _______ _____ _____    ______ ____
ROOT
ATOM      1  C   UNL A   1     -23.958  -4.303  28.677  0.00  0.00    +0.036 A 
ATOM      2  C   UNL A   1     -24.085  -3.153  29.028  0.00  0.00    +0.152 A 
ATOM      3  N   UNL A   1     -25.118  -2.698  29.673  0.00  0.00    -0.227 NA
ATOM      4  C   UNL A   1     -25.038  -5.234  28.988  0.00  0.00    +0.004 A 
ATOM      5  C   UNL A   1     -26.138  -4.817  29.565  0.00  0.00    +0.021 A 
ATOM      6  C   UNL A   1     -26.182  -3.486  29.928  0.00  0.00    +0.100 A 
ENDROOT
BRANCH   2   7
ATOM      7  N   UNL A   1     -23.062  -2.191  28.879  0.00  0.00    -0.193 NA
BRANCH   7   8
ATOM      8  C   UNL A   1     -23.185  -0.841  29.147  0.00  0.00    +0.083 C 
ATOM      9  C   UNL A   1     -22.503   0.115  28.646  0.00  0.00    -0.008 C 
ATOM     10  C   UNL A   1     -21.055  -0.114  28.606  0.00  0.00    +0.032 C 
ENDBRANCH   7   8
ENDBRANCH   2   7
TORSDOF 2
ENDMDL
ENDMDL
