REMARK  Name = No_3701-gen_results/8p0m/2024-11-26-14-13-15/
REMARK  2 active torsions:
REMARK  status: ('A' for Active; 'I' for Inactive)
REMARK    1  A    between atoms: C_2  and  N_7
REMARK    2  A    between atoms: N_7  and  C_8
REMARK                            x       y       z     vdW  Elec       q    Type
REMARK                         _______ _______ _______ _____ _____    ______ ____
ROOT
ATOM      1  C   UNL A   1     -28.016  -0.814  28.878  0.00  0.00    +0.036 A 
ATOM      2  C   UNL A   1     -27.064  -0.119  28.608  0.00  0.00    +0.152 A 
ATOM      3  N   UNL A   1     -26.951   1.129  28.957  0.00  0.00    -0.227 NA
ATOM      4  C   UNL A   1     -29.109  -0.210  29.632  0.00  0.00    +0.004 A 
ATOM      5  C   UNL A   1     -29.088   1.063  29.942  0.00  0.00    +0.021 A 
ATOM      6  C   UNL A   1     -27.955   1.768  29.591  0.00  0.00    +0.100 A 
ENDROOT
BRANCH   2   7
ATOM      7  N   UNL A   1     -25.904  -0.622  27.979  0.00  0.00    -0.193 NA
BRANCH   7   8
ATOM      8  C   UNL A   1     -24.837   0.138  27.538  0.00  0.00    +0.083 C 
ATOM      9  C   UNL A   1     -23.606  -0.197  27.508  0.00  0.00    -0.008 C 
ATOM     10  C   UNL A   1     -23.111  -0.839  28.730  0.00  0.00    +0.032 C 
ENDBRANCH   7   8
ENDBRANCH   2   7
TORSDOF 2
