MODEL 3702
MODEL 1
REMARK VINA RESULT:    -4.259      0.000      0.000
REMARK INTER + INTRA:          -4.259
REMARK INTER:                  -4.259
REMARK INTRA:                   0.000
REMARK UNBOUND:                 0.000
REMARK  Name = No_3702-gen_results/8p0m/2024-11-26-14-13-15/
REMARK  0 active torsions:
REMARK  status: ('A' for Active; 'I' for Inactive)
REMARK                            x       y       z     vdW  Elec       q    Type
REMARK                         _______ _______ _______ _____ _____    ______ ____
ROOT
ATOM      1  C   UNL A   1     -26.387  -3.856  29.816  0.00  0.00    +0.000 A 
ATOM      2  C   UNL A   1     -26.088  -4.845  29.609  0.00  0.00    +0.000 A 
ATOM      3  C   UNL A   1     -25.414  -2.796  29.508  0.00  0.00    +0.000 A 
ATOM      4  C   UNL A   1     -24.197  -3.102  28.834  0.00  0.00    +0.000 A 
ATOM      5  C   UNL A   1     -24.928  -5.419  28.873  0.00  0.00    +0.000 A 
ATOM      6  C   UNL A   1     -23.998  -4.466  28.579  0.00  0.00    +0.000 A 
ENDROOT
TORSDOF 0
ENDMDL
ENDMDL
