REMARK  Name = No_3703-gen_results/8p0m/2024-11-26-14-13-15/
REMARK  8 active torsions:
REMARK  status: ('A' for Active; 'I' for Inactive)
REMARK    1  A    between atoms: C_3  and  C_11
REMARK    2  A    between atoms: C_6  and  C_7
REMARK    3  A    between atoms: C_7  and  O_9
REMARK    4  A    between atoms: O_9  and  C_18
REMARK    5  A    between atoms: C_18  and  C_19
REMARK    6  A    between atoms: C_18  and  C_26
REMARK    7  A    between atoms: C_19  and  C_20
REMARK    8  A    between atoms: C_27  and  C_28
REMARK                            x       y       z     vdW  Elec       q    Type
REMARK                         _______ _______ _______ _____ _____    ______ ____
ROOT
ATOM      1  C   UNL A   1     -29.073  -2.784  30.178  0.00  0.00    +0.342 C 
ATOM      2  O   UNL A   1     -29.002  -3.985  30.235  0.00  0.00    -0.245 OA
ENDROOT
BRANCH   1   8
ATOM      3  C   UNL A   1     -28.016  -0.814  28.878  0.00  0.00    +0.036 A 
ATOM      4  C   UNL A   1     -27.064  -0.119  28.608  0.00  0.00    +0.140 A 
ATOM      5  C   UNL A   1     -25.792  -0.430  29.076  0.00  0.00    +0.028 A 
ATOM      6  C   UNL A   1     -25.576  -1.565  29.936  0.00  0.00    +0.002 A 
ATOM      7  C   UNL A   1     -26.735  -2.300  30.217  0.00  0.00    +0.007 A 
ATOM      8  C   UNL A   1     -27.918  -1.954  29.763  0.00  0.00    +0.078 A 
ATOM      9  F   UNL A   1     -27.120   0.997  27.866  0.00  0.00    -0.204 F 
BRANCH   5  10
ATOM     10  C   UNL A   1     -24.527   0.349  28.736  0.00  0.00    +0.004 A 
ATOM     11  C   UNL A   1     -23.332  -0.063  29.227  0.00  0.00    +0.000 A 
ATOM     12  C   UNL A   1     -22.143   0.693  28.786  0.00  0.00    +0.002 A 
ATOM     13  C   UNL A   1     -22.178   1.599  27.778  0.00  0.00    +0.030 A 
ATOM     14  C   UNL A   1     -23.449   1.931  27.224  0.00  0.00    +0.140 A 
ATOM     15  C   UNL A   1     -24.576   1.320  27.728  0.00  0.00    +0.030 A 
ATOM     16  F   UNL A   1     -23.509   2.923  26.366  0.00  0.00    -0.204 F 
ENDBRANCH   5  10
ENDBRANCH   1   8
BRANCH   1  17
ATOM     17  O   UNL A   1     -30.181  -2.190  30.460  0.00  0.00    -0.444 OA
BRANCH  17  18
ATOM     18  C   UNL A   1     -31.125  -2.653  31.140  0.00  0.00    +0.196 C 
BRANCH  18  19
ATOM     19  C   UNL A   1     -31.477  -3.999  30.516  0.00  0.00    +0.017 C 
ATOM     20  C   UNL A   1     -32.383  -4.515  30.866  0.00  0.00    -0.001 C 
BRANCH  20  21
ATOM     21  C   UNL A   1     -32.909  -5.412  30.646  0.00  0.00    -0.005 C 
ATOM     22  C   UNL A   1     -34.126  -6.014  31.291  0.00  0.00    -0.026 C 
ATOM     23  C   UNL A   1     -34.712  -7.195  30.975  0.00  0.00    +0.031 C 
ENDBRANCH  20  21
ENDBRANCH  18  19
BRANCH  18  24
ATOM     24  C   UNL A   1     -31.135  -2.612  32.455  0.00  0.00    +0.075 C 
BRANCH  24  25
ATOM     25  C   UNL A   1     -30.671  -1.377  32.895  0.00  0.00    -0.018 A 
ATOM     26  C   UNL A   1     -31.129  -0.223  32.516  0.00  0.00    -0.004 A 
ATOM     27  C   UNL A   1     -30.597   1.038  32.933  0.00  0.00    -0.000 A 
ATOM     28  C   UNL A   1     -29.562   1.048  33.881  0.00  0.00    -0.000 A 
ATOM     29  C   UNL A   1     -29.075  -0.173  34.395  0.00  0.00    -0.000 A 
ATOM     30  C   UNL A   1     -29.601  -1.315  33.794  0.00  0.00    -0.004 A 
ENDBRANCH  24  25
ENDBRANCH  18  24
ENDBRANCH  17  18
ENDBRANCH   1  17
TORSDOF 8
