MODEL 3703
MODEL 1
REMARK VINA RESULT:    -7.205      0.000      0.000
REMARK INTER + INTRA:         -13.955
REMARK INTER:                 -10.575
REMARK INTRA:                  -3.380
REMARK UNBOUND:                -3.380
REMARK  Name = No_3703-gen_results/8p0m/2024-11-26-14-13-15/
REMARK  8 active torsions:
REMARK  status: ('A' for Active; 'I' for Inactive)
REMARK    1  A    between atoms: C_3  and  C_11
REMARK    2  A    between atoms: C_6  and  C_7
REMARK    3  A    between atoms: C_7  and  O_9
REMARK    4  A    between atoms: O_9  and  C_18
REMARK    5  A    between atoms: C_18  and  C_19
REMARK    6  A    between atoms: C_18  and  C_26
REMARK    7  A    between atoms: C_19  and  C_20
REMARK    8  A    between atoms: C_27  and  C_28
REMARK                            x       y       z     vdW  Elec       q    Type
REMARK                         _______ _______ _______ _____ _____    ______ ____
ROOT
ATOM      1  C   UNL A   1     -24.362  -1.872  28.739  0.00  0.00    +0.342 C 
ATOM      2  O   UNL A   1     -24.776  -2.834  29.334  0.00  0.00    -0.245 OA
ENDROOT
BRANCH   1   8
ATOM      3  C   UNL A   1     -24.961  -0.857  26.437  0.00  0.00    +0.036 A 
ATOM      4  C   UNL A   1     -25.724  -0.257  25.716  0.00  0.00    +0.140 A 
ATOM      5  C   UNL A   1     -26.879   0.329  26.221  0.00  0.00    +0.028 A 
ATOM      6  C   UNL A   1     -27.228   0.200  27.613  0.00  0.00    +0.002 A 
ATOM      7  C   UNL A   1     -26.302  -0.530  28.370  0.00  0.00    +0.007 A 
ATOM      8  C   UNL A   1     -25.233  -1.079  27.840  0.00  0.00    +0.078 A 
ATOM      9  F   UNL A   1     -25.561  -0.101  24.394  0.00  0.00    -0.204 F 
BRANCH   5  10
ATOM     10  C   UNL A   1     -27.863   1.156  25.403  0.00  0.00    +0.004 A 
ATOM     11  C   UNL A   1     -27.692   2.498  25.302  0.00  0.00    +0.000 A 
ATOM     12  C   UNL A   1     -28.636   3.218  24.425  0.00  0.00    +0.002 A 
ATOM     13  C   UNL A   1     -29.486   2.585  23.579  0.00  0.00    +0.030 A 
ATOM     14  C   UNL A   1     -29.562   1.163  23.652  0.00  0.00    +0.140 A 
ATOM     15  C   UNL A   1     -28.774   0.499  24.566  0.00  0.00    +0.030 A 
ATOM     16  F   UNL A   1     -30.496   0.558  22.956  0.00  0.00    -0.204 F 
ENDBRANCH   5  10
ENDBRANCH   1   8
BRANCH   1  17
ATOM     17  O   UNL A   1     -23.140  -1.496  28.893  0.00  0.00    -0.444 OA
BRANCH  17  18
ATOM     18  C   UNL A   1     -22.748  -0.389  29.327  0.00  0.00    +0.196 C 
BRANCH  18  19
ATOM     19  C   UNL A   1     -22.380  -0.613  30.790  0.00  0.00    +0.017 C 
ATOM     20  C   UNL A   1     -23.194  -0.766  31.515  0.00  0.00    -0.001 C 
BRANCH  20  21
ATOM     21  C   UNL A   1     -23.291  -0.960  32.555  0.00  0.00    -0.005 C 
ATOM     22  C   UNL A   1     -24.457  -0.757  33.482  0.00  0.00    -0.026 C 
ATOM     23  C   UNL A   1     -24.484  -0.991  34.817  0.00  0.00    +0.031 C 
ENDBRANCH  20  21
ENDBRANCH  18  19
BRANCH  18  24
ATOM     24  C   UNL A   1     -21.935   0.390  28.646  0.00  0.00    +0.075 C 
BRANCH  24  25
ATOM     25  C   UNL A   1     -22.669   1.286  27.877  0.00  0.00    -0.018 A 
ATOM     26  C   UNL A   1     -22.439   1.573  26.632  0.00  0.00    -0.004 A 
ATOM     27  C   UNL A   1     -23.168   2.544  25.875  0.00  0.00    -0.000 A 
ATOM     28  C   UNL A   1     -24.263   3.180  26.479  0.00  0.00    -0.000 A 
ATOM     29  C   UNL A   1     -24.617   2.851  27.806  0.00  0.00    -0.000 A 
ATOM     30  C   UNL A   1     -23.733   1.989  28.452  0.00  0.00    -0.004 A 
ENDBRANCH  24  25
ENDBRANCH  18  24
ENDBRANCH  17  18
ENDBRANCH   1  17
TORSDOF 8
ENDMDL
ENDMDL
