REMARK  Name = No_3704-gen_results/8p0m/2024-11-26-14-13-15/
REMARK  7 active torsions:
REMARK  status: ('A' for Active; 'I' for Inactive)
REMARK    1  A    between atoms: C_5  and  C_8
REMARK    2  A    between atoms: C_9  and  C_10
REMARK    3  A    between atoms: C_11  and  C_13
REMARK    4  A    between atoms: C_13  and  C_14
REMARK    5  A    between atoms: C_19  and  C_20
REMARK    6  A    between atoms: C_20  and  N_21
REMARK    7  A    between atoms: N_21  and  C_22
REMARK                            x       y       z     vdW  Elec       q    Type
REMARK                         _______ _______ _______ _____ _____    ______ ____
ROOT
ATOM      1  C   UNL A   1     -28.348   4.896  32.914  0.00  0.00    +0.175 C 
ATOM      2  C   UNL A   1     -27.565   6.033  32.651  0.00  0.00    +0.011 C 
ATOM      3  F   UNL A   1     -28.633   5.408  33.945  0.00  0.00    -0.201 F 
ENDROOT
BRANCH   1   5
ATOM      4  C   UNL A   1     -29.220   2.970  32.747  0.00  0.00    +0.019 C 
ATOM      5  C   UNL A   1     -28.884   3.930  32.963  0.00  0.00    +0.218 C 
ATOM      6  C   UNL A   1     -30.278   2.552  33.940  0.00  0.00    +0.035 C 
ATOM      7  O   UNL A   1     -28.368   3.662  34.032  0.00  0.00    -0.284 OA
BRANCH   4  12
ATOM      8 CL   UNL A   1     -28.149  -0.820  28.908  0.00  0.00    -0.082 Cl
ATOM      9  C   UNL A   1     -28.532  -0.047  29.773  0.00  0.00    +0.058 A 
ATOM     10  C   UNL A   1     -27.602   0.785  30.319  0.00  0.00    +0.011 A 
ATOM     11  C   UNL A   1     -27.926   1.809  31.369  0.00  0.00    +0.001 A 
ATOM     12  C   UNL A   1     -29.282   1.830  31.744  0.00  0.00    -0.001 A 
ATOM     13  C   UNL A   1     -30.164   1.002  31.242  0.00  0.00    +0.001 A 
ATOM     14  C   UNL A   1     -29.816   0.049  30.295  0.00  0.00    +0.011 A 
ENDBRANCH   4  12
ENDBRANCH   1   5
BRANCH   2  15
ATOM     15  C   UNL A   1     -27.043   6.439  31.463  0.00  0.00    +0.054 C 
BRANCH  15  16
ATOM     16  C   UNL A   1     -27.227   5.878  30.293  0.00  0.00    -0.020 A 
ATOM     17  C   UNL A   1     -26.497   6.268  29.153  0.00  0.00    -0.004 A 
ATOM     18  C   UNL A   1     -26.340   5.355  28.088  0.00  0.00    -0.000 A 
ATOM     19  C   UNL A   1     -27.058   4.173  28.149  0.00  0.00    -0.000 A 
ATOM     20  C   UNL A   1     -27.950   3.920  29.205  0.00  0.00    -0.003 A 
ATOM     21  C   UNL A   1     -27.934   4.761  30.318  0.00  0.00    -0.004 A 
BRANCH  21  22
ATOM     22  C   UNL A   1     -29.217   4.870  30.686  0.00  0.00    +0.138 C 
BRANCH  22  23
ATOM     23  N   UNL A   1     -29.978   5.711  29.726  0.00  0.00    -0.232 NA
BRANCH  23  24
ATOM     24  C   UNL A   1     -31.301   5.989  29.825  0.00  0.00    +0.081 C 
ATOM     25  C   UNL A   1     -31.818   6.718  28.821  0.00  0.00    +0.019 C 
ENDBRANCH  23  24
ENDBRANCH  22  23
ENDBRANCH  21  22
ENDBRANCH  15  16
ENDBRANCH   2  15
TORSDOF 7
