MODEL 3704
MODEL 1
REMARK VINA RESULT:    -7.300      0.000      0.000
REMARK INTER + INTRA:         -12.565
REMARK INTER:                 -10.288
REMARK INTRA:                  -2.278
REMARK UNBOUND:                -2.278
REMARK  Name = No_3704-gen_results/8p0m/2024-11-26-14-13-15/
REMARK  7 active torsions:
REMARK  status: ('A' for Active; 'I' for Inactive)
REMARK    1  A    between atoms: C_5  and  C_8
REMARK    2  A    between atoms: C_9  and  C_10
REMARK    3  A    between atoms: C_11  and  C_13
REMARK    4  A    between atoms: C_13  and  C_14
REMARK    5  A    between atoms: C_19  and  C_20
REMARK    6  A    between atoms: C_20  and  N_21
REMARK    7  A    between atoms: N_21  and  C_22
REMARK                            x       y       z     vdW  Elec       q    Type
REMARK                         _______ _______ _______ _____ _____    ______ ____
ROOT
ATOM      1  C   UNL A   1     -22.840   0.520  28.533  0.00  0.00    +0.175 C 
ATOM      2  C   UNL A   1     -22.728  -0.153  29.761  0.00  0.00    +0.011 C 
ATOM      3  F   UNL A   1     -21.665   0.673  28.581  0.00  0.00    -0.201 F 
ENDROOT
BRANCH   1   5
ATOM      4  C   UNL A   1     -23.664   1.428  26.803  0.00  0.00    +0.019 C 
ATOM      5  C   UNL A   1     -23.116   1.036  27.595  0.00  0.00    +0.218 C 
ATOM      6  C   UNL A   1     -22.593   2.194  25.811  0.00  0.00    +0.035 C 
ATOM      7  O   UNL A   1     -22.699   2.098  28.018  0.00  0.00    -0.284 OA
BRANCH   4  12
ATOM      8 CL   UNL A   1     -28.151   0.393  23.795  0.00  0.00    -0.082 Cl
ATOM      9  C   UNL A   1     -27.224   0.763  24.500  0.00  0.00    +0.058 A 
ATOM     10  C   UNL A   1     -26.259  -0.153  24.789  0.00  0.00    +0.011 A 
ATOM     11  C   UNL A   1     -25.045   0.161  25.617  0.00  0.00    +0.001 A 
ATOM     12  C   UNL A   1     -24.996   1.491  26.073  0.00  0.00    -0.001 A 
ATOM     13  C   UNL A   1     -25.946   2.357  25.822  0.00  0.00    +0.001 A 
ATOM     14  C   UNL A   1     -27.067   2.017  25.078  0.00  0.00    +0.011 A 
ENDBRANCH   4  12
ENDBRANCH   1   5
BRANCH   2  15
ATOM     15  C   UNL A   1     -23.640  -0.963  30.364  0.00  0.00    +0.054 C 
BRANCH  15  16
ATOM     16  C   UNL A   1     -24.316  -1.935  29.803  0.00  0.00    -0.020 A 
ATOM     17  C   UNL A   1     -23.735  -2.804  28.859  0.00  0.00    -0.004 A 
ATOM     18  C   UNL A   1     -24.288  -4.089  28.670  0.00  0.00    -0.000 A 
ATOM     19  C   UNL A   1     -25.485  -4.369  29.308  0.00  0.00    -0.000 A 
ATOM     20  C   UNL A   1     -26.147  -3.390  30.069  0.00  0.00    -0.003 A 
ATOM     21  C   UNL A   1     -25.477  -2.206  30.375  0.00  0.00    -0.004 A 
BRANCH  21  22
ATOM     22  C   UNL A   1     -26.415  -1.252  30.311  0.00  0.00    +0.138 C 
BRANCH  22  23
ATOM     23  N   UNL A   1     -26.889  -1.063  28.915  0.00  0.00    -0.232 NA
BRANCH  23  24
ATOM     24  C   UNL A   1     -27.491   0.060  28.451  0.00  0.00    +0.081 C 
ATOM     25  C   UNL A   1     -27.123   1.206  29.049  0.00  0.00    +0.019 C 
ENDBRANCH  23  24
ENDBRANCH  22  23
ENDBRANCH  21  22
ENDBRANCH  15  16
ENDBRANCH   2  15
TORSDOF 7
ENDMDL
ENDMDL
