MODEL 3705
MODEL 1
REMARK VINA RESULT:    -4.789      0.000      0.000
REMARK INTER + INTRA:          -6.277
REMARK INTER:                  -5.908
REMARK INTRA:                  -0.368
REMARK UNBOUND:                -0.368
REMARK  Name = No_3705-gen_results/8p0m/2024-11-26-14-13-15/
REMARK  4 active torsions:
REMARK  status: ('A' for Active; 'I' for Inactive)
REMARK    1  A    between atoms: C_1  and  C_2
REMARK    2  A    between atoms: C_5  and  C_11
REMARK    3  A    between atoms: C_11  and  N_12
REMARK    4  A    between atoms: N_12  and  C_13
REMARK                            x       y       z     vdW  Elec       q    Type
REMARK                         _______ _______ _______ _____ _____    ______ ____
ROOT
ATOM      1  C   UNL A   1     -17.327 -21.937   8.684  0.00  0.00    +0.055 A 
ATOM      2  C   UNL A   1     -16.677 -21.380   7.491  0.00  0.00    +0.004 A 
ATOM      3  C   UNL A   1     -17.367 -20.384   6.648  0.00  0.00    -0.002 A 
ATOM      4  C   UNL A   1     -18.776 -20.453   6.570  0.00  0.00    +0.000 A 
ATOM      5  C   UNL A   1     -19.469 -21.318   7.481  0.00  0.00    -0.002 A 
ATOM      6  C   UNL A   1     -18.800 -22.085   8.343  0.00  0.00    +0.004 A 
ENDROOT
BRANCH   1   7
ATOM      7  C   UNL A   1     -16.800 -22.743   9.111  0.00  0.00    +0.265 C 
ATOM      8  N   UNL A   1     -16.310 -23.810   8.551  0.00  0.00    -0.200 NA
ATOM      9  O   UNL A   1     -15.917 -22.480  10.252  0.00  0.00    -0.268 OA
ATOM     10  C   UNL A   1     -15.216 -24.719   8.954  0.00  0.00    +0.139 C 
ENDBRANCH   1   7
BRANCH   4  11
ATOM     11  C   UNL A   1     -19.542 -19.640   5.635  0.00  0.00    +0.149 C 
BRANCH  11  12
ATOM     12  N   UNL A   1     -19.773 -18.368   5.621  0.00  0.00    -0.184 NA
BRANCH  12  13
ATOM     13  C   UNL A   1     -21.012 -17.879   6.014  0.00  0.00    +0.032 C 
ATOM     14  C   UNL A   1     -22.044 -18.756   6.423  0.00  0.00    +0.009 C 
ENDBRANCH  12  13
ENDBRANCH  11  12
ENDBRANCH   4  11
TORSDOF 4
ENDMDL
ENDMDL
