REMARK  Name = No_3705-gen_results/8p0m/2024-11-26-14-13-15/
REMARK  4 active torsions:
REMARK  status: ('A' for Active; 'I' for Inactive)
REMARK    1  A    between atoms: C_1  and  C_2
REMARK    2  A    between atoms: C_5  and  C_11
REMARK    3  A    between atoms: C_11  and  N_12
REMARK    4  A    between atoms: N_12  and  C_13
REMARK                            x       y       z     vdW  Elec       q    Type
REMARK                         _______ _______ _______ _____ _____    ______ ____
ROOT
ATOM      1  C   UNL A   1     -28.016  -0.814  28.878  0.00  0.00    +0.055 A 
ATOM      2  C   UNL A   1     -28.182   0.428  28.113  0.00  0.00    +0.004 A 
ATOM      3  C   UNL A   1     -27.450   0.643  26.850  0.00  0.00    -0.002 A 
ATOM      4  C   UNL A   1     -26.181   0.036  26.715  0.00  0.00    +0.000 A 
ATOM      5  C   UNL A   1     -25.780  -0.933  27.694  0.00  0.00    -0.002 A 
ATOM      6  C   UNL A   1     -26.557  -1.213  28.741  0.00  0.00    +0.004 A 
ENDROOT
BRANCH   1   7
ATOM      7  C   UNL A   1     -28.469  -0.785  29.829  0.00  0.00    +0.265 C 
ATOM      8  N   UNL A   1     -29.610  -0.278  30.194  0.00  0.00    -0.200 NA
ATOM      9  O   UNL A   1     -28.244  -1.903  30.750  0.00  0.00    -0.268 OA
ATOM     10  C   UNL A   1     -30.498  -0.575  31.339  0.00  0.00    +0.139 C 
ENDBRANCH   1   7
BRANCH   4  11
ATOM     11  C   UNL A   1     -25.299   0.324  25.592  0.00  0.00    +0.149 C 
BRANCH  11  12
ATOM     12  N   UNL A   1     -24.576   1.365  25.335  0.00  0.00    -0.184 NA
BRANCH  12  13
ATOM     13  C   UNL A   1     -23.772   1.918  26.323  0.00  0.00    +0.032 C 
ATOM     14  C   UNL A   1     -24.301   2.241  27.595  0.00  0.00    +0.009 C 
ENDBRANCH  12  13
ENDBRANCH  11  12
ENDBRANCH   4  11
TORSDOF 4
