MODEL 3706
MODEL 1
REMARK VINA RESULT:    -4.307      0.000      0.000
REMARK INTER + INTRA:          -4.307
REMARK INTER:                  -4.307
REMARK INTRA:                   0.000
REMARK UNBOUND:                 0.000
REMARK  Name = No_3706-gen_results/8p0m/2024-11-26-14-13-15/
REMARK  0 active torsions:
REMARK  status: ('A' for Active; 'I' for Inactive)
REMARK                            x       y       z     vdW  Elec       q    Type
REMARK                         _______ _______ _______ _____ _____    ______ ____
ROOT
ATOM      1  C   UNL A   1     -24.958  -5.431  28.979  0.00  0.00    +0.000 A 
ATOM      2  C   UNL A   1     -24.183  -4.778  28.689  0.00  0.00    +0.000 A 
ATOM      3  C   UNL A   1     -26.091  -4.751  29.605  0.00  0.00    +0.000 A 
ATOM      4  C   UNL A   1     -26.126  -3.388  29.768  0.00  0.00    +0.000 A 
ATOM      5  C   UNL A   1     -23.952  -3.335  28.730  0.00  0.00    +0.000 A 
ATOM      6  C   UNL A   1     -25.044  -2.667  29.334  0.00  0.00    +0.000 A 
ENDROOT
TORSDOF 0
ENDMDL
ENDMDL
