MODEL 3707
MODEL 1
REMARK VINA RESULT:    -6.671      0.000      0.000
REMARK INTER + INTRA:          -7.436
REMARK INTER:                  -7.061
REMARK INTRA:                  -0.375
REMARK UNBOUND:                -0.375
REMARK  Name = No_3707-gen_results/8p0m/2024-11-26-14-13-15/
REMARK  1 active torsions:
REMARK  status: ('A' for Active; 'I' for Inactive)
REMARK    1  A    between atoms: C_4  and  C_7
REMARK                            x       y       z     vdW  Elec       q    Type
REMARK                         _______ _______ _______ _____ _____    ______ ____
ROOT
ATOM      1  C   UNL A   1     -23.396   0.853  27.555  0.00  0.00    +0.030 A 
ATOM      2  C   UNL A   1     -22.456   0.852  28.032  0.00  0.00    +0.002 A 
ATOM      3  C   UNL A   1     -24.241  -0.334  27.762  0.00  0.00    +0.140 A 
ATOM      4  C   UNL A   1     -23.847  -1.353  28.679  0.00  0.00    +0.028 A 
ATOM      5  C   UNL A   1     -22.622  -1.186  29.273  0.00  0.00    +0.002 A 
ATOM      6  C   UNL A   1     -21.875  -0.089  29.026  0.00  0.00    +0.000 A 
ATOM      7  F   UNL A   1     -25.381  -0.469  27.179  0.00  0.00    -0.204 F 
ENDROOT
BRANCH   4   8
ATOM      8  C   UNL A   1     -24.684  -2.517  28.902  0.00  0.00    +0.002 A 
ATOM      9  C   UNL A   1     -25.613  -2.543  29.432  0.00  0.00    +0.000 A 
ATOM     10  C   UNL A   1     -26.430  -3.745  29.851  0.00  0.00    +0.000 A 
ATOM     11  C   UNL A   1     -25.840  -4.914  29.517  0.00  0.00    +0.000 A 
ATOM     12  C   UNL A   1     -24.591  -5.005  28.874  0.00  0.00    +0.000 A 
ATOM     13  C   UNL A   1     -23.952  -3.735  28.551  0.00  0.00    +0.000 A 
ENDBRANCH   4   8
TORSDOF 1
ENDMDL
ENDMDL
