MODEL 3708
MODEL 1
REMARK VINA RESULT:    -4.659      0.000      0.000
REMARK INTER + INTRA:          -4.659
REMARK INTER:                  -4.659
REMARK INTRA:                   0.000
REMARK UNBOUND:                 0.000
REMARK  Name = No_3708-gen_results/8p0m/2024-11-26-14-13-15/
REMARK  0 active torsions:
REMARK  status: ('A' for Active; 'I' for Inactive)
REMARK                            x       y       z     vdW  Elec       q    Type
REMARK                         _______ _______ _______ _____ _____    ______ ____
ROOT
ATOM      1  C   UNL A   1     -23.994  -4.408  28.643  0.00  0.00    +0.030 A 
ATOM      2  C   UNL A   1     -24.894  -4.911  28.862  0.00  0.00    +0.140 A 
ATOM      3  C   UNL A   1     -23.964  -2.940  29.004  0.00  0.00    +0.014 A 
ATOM      4  C   UNL A   1     -25.045  -2.383  29.719  0.00  0.00    +0.058 A 
ATOM      5  C   UNL A   1     -26.126  -4.583  29.614  0.00  0.00    +0.030 A 
ATOM      6  C   UNL A   1     -26.132  -3.241  29.969  0.00  0.00    +0.014 A 
ATOM      7 CL   UNL A   1     -25.087  -0.785  30.119  0.00  0.00    -0.082 Cl
ATOM      8  F   UNL A   1     -24.904  -6.346  28.516  0.00  0.00    -0.204 F 
ENDROOT
TORSDOF 0
ENDMDL
ENDMDL
