REMARK  Name = No_3709-gen_results/8p0m/2024-11-26-14-13-15/
REMARK  1 active torsions:
REMARK  status: ('A' for Active; 'I' for Inactive)
REMARK    1  A    between atoms: C_5  and  C_11
REMARK                            x       y       z     vdW  Elec       q    Type
REMARK                         _______ _______ _______ _____ _____    ______ ____
ROOT
ATOM      1  C   UNL A   1     -28.016  -0.814  28.878  0.00  0.00    +0.000 A 
ATOM      2  C   UNL A   1     -27.064  -0.119  28.608  0.00  0.00    +0.000 A 
ATOM      3  C   UNL A   1     -26.929   1.171  29.008  0.00  0.00    +0.000 A 
ATOM      4  C   UNL A   1     -25.770   2.034  28.688  0.00  0.00    +0.007 A 
ATOM      5  C   UNL A   1     -24.714   1.443  27.919  0.00  0.00    +0.080 A 
ATOM      6  C   UNL A   1     -24.859   0.078  27.584  0.00  0.00    +0.007 A 
ATOM      7  C   UNL A   1     -25.965  -0.661  27.916  0.00  0.00    +0.000 A 
ATOM      8  C   UNL A   1     -28.651  -0.609  30.254  0.00  0.00    +0.000 A 
ATOM      9  C   UNL A   1     -28.936   0.686  30.531  0.00  0.00    +0.000 A 
ATOM     10  C   UNL A   1     -27.808   1.604  30.130  0.00  0.00    +0.000 A 
ENDROOT
BRANCH   5  11
ATOM     11  C   UNL A   1     -23.567   2.181  27.459  0.00  0.00    +0.388 C 
ATOM     12  O   UNL A   1     -22.420   1.809  27.681  0.00  0.00    -0.241 OA
ATOM     13  O   UNL A   1     -23.825   3.260  26.766  0.00  0.00    -0.241 OA
ENDBRANCH   5  11
TORSDOF 1
