MODEL 3709
MODEL 1
REMARK VINA RESULT:    -6.284      0.000      0.000
REMARK INTER + INTRA:          -6.717
REMARK INTER:                  -6.651
REMARK INTRA:                  -0.066
REMARK UNBOUND:                -0.066
REMARK  Name = No_3709-gen_results/8p0m/2024-11-26-14-13-15/
REMARK  1 active torsions:
REMARK  status: ('A' for Active; 'I' for Inactive)
REMARK    1  A    between atoms: C_5  and  C_11
REMARK                            x       y       z     vdW  Elec       q    Type
REMARK                         _______ _______ _______ _____ _____    ______ ____
ROOT
ATOM      1  C   UNL A   1     -30.865 -10.185  29.854  0.00  0.00    +0.000 A 
ATOM      2  C   UNL A   1     -30.024 -10.562  30.636  0.00  0.00    +0.000 A 
ATOM      3  C   UNL A   1     -29.106 -11.522  30.358  0.00  0.00    +0.000 A 
ATOM      4  C   UNL A   1     -28.068 -11.993  31.303  0.00  0.00    +0.007 A 
ATOM      5  C   UNL A   1     -28.031 -11.364  32.591  0.00  0.00    +0.080 A 
ATOM      6  C   UNL A   1     -28.956 -10.319  32.816  0.00  0.00    +0.007 A 
ATOM      7  C   UNL A   1     -29.891  -9.936  31.890  0.00  0.00    +0.000 A 
ATOM      8  C   UNL A   1     -30.462 -10.132  28.380  0.00  0.00    +0.000 A 
ATOM      9  C   UNL A   1     -29.900 -11.280  27.931  0.00  0.00    +0.000 A 
ATOM     10  C   UNL A   1     -28.903 -11.836  28.917  0.00  0.00    +0.000 A 
ENDROOT
BRANCH   5  11
ATOM     11  C   UNL A   1     -27.137 -11.774  33.642  0.00  0.00    +0.388 C 
ATOM     12  O   UNL A   1     -26.606 -12.879  33.653  0.00  0.00    -0.241 OA
ATOM     13  O   UNL A   1     -26.905 -10.884  34.572  0.00  0.00    -0.241 OA
ENDBRANCH   5  11
TORSDOF 1
ENDMDL
ENDMDL
