MODEL 370
MODEL 1
REMARK VINA RESULT:    -5.644      0.000      0.000
REMARK INTER + INTRA:          -6.931
REMARK INTER:                  -6.304
REMARK INTRA:                  -0.627
REMARK UNBOUND:                -0.627
REMARK  Name = No_370-gen_results/8p0m/2024-11-26-14-13-15/
REMARK  2 active torsions:
REMARK  status: ('A' for Active; 'I' for Inactive)
REMARK    1  A    between atoms: C_4  and  C_7
REMARK    2  A    between atoms: C_7  and  C_8
REMARK                            x       y       z     vdW  Elec       q    Type
REMARK                         _______ _______ _______ _____ _____    ______ ____
ROOT
ATOM      1  C   UNL A   1     -12.206  -1.541  40.128  0.00  0.00    +0.011 A 
ATOM      2  C   UNL A   1     -12.222  -2.441  39.579  0.00  0.00    +0.001 A 
ATOM      3  C   UNL A   1     -11.590  -0.378  39.469  0.00  0.00    +0.054 A 
ATOM      4  C   UNL A   1     -11.174  -0.453  38.108  0.00  0.00    -0.007 A 
ATOM      5  C   UNL A   1     -11.313  -1.676  37.502  0.00  0.00    -0.003 A 
ATOM      6  C   UNL A   1     -11.862  -2.718  38.163  0.00  0.00    -0.000 A 
ATOM      7 CL   UNL A   1     -11.302   1.142  40.286  0.00  0.00    -0.083 Cl
ENDROOT
BRANCH   4   8
ATOM      8  C   UNL A   1     -10.582   0.696  37.447  0.00  0.00    +0.053 C 
BRANCH   8   9
ATOM      9  C   UNL A   1     -11.438   1.456  36.621  0.00  0.00    -0.018 A 
ATOM     10  C   UNL A   1     -12.357   2.288  37.063  0.00  0.00    -0.004 A 
ATOM     11  C   UNL A   1     -11.274   1.343  35.163  0.00  0.00    -0.004 A 
ATOM     12  C   UNL A   1     -12.299   1.619  34.275  0.00  0.00    -0.000 A 
ATOM     13  C   UNL A   1     -13.532   2.634  36.295  0.00  0.00    -0.000 A 
ATOM     14  C   UNL A   1     -13.400   2.409  34.813  0.00  0.00    -0.000 A 
ENDBRANCH   8   9
ENDBRANCH   4   8
TORSDOF 2
ENDMDL
ENDMDL
