REMARK  Name = No_371-gen_results/8p0m/2024-11-26-14-13-15/
REMARK  4 active torsions:
REMARK  status: ('A' for Active; 'I' for Inactive)
REMARK    1  A    between atoms: C_2  and  C_8
REMARK    2  A    between atoms: C_8  and  C_9
REMARK    3  A    between atoms: C_10  and  C_11
REMARK    4  A    between atoms: C_12  and  C_13
REMARK                            x       y       z     vdW  Elec       q    Type
REMARK                         _______ _______ _______ _____ _____    ______ ____
ROOT
ATOM      1  C   UNL A   1     -28.016  -0.814  28.878  0.00  0.00    -0.003 A 
ATOM      2  C   UNL A   1     -27.064  -0.119  28.608  0.00  0.00    -0.018 A 
ATOM      3  C   UNL A   1     -26.972   0.714  27.506  0.00  0.00    -0.003 A 
ATOM      4  C   UNL A   1     -28.105   0.774  26.642  0.00  0.00    +0.006 A 
ATOM      5  C   UNL A   1     -29.201   0.104  27.053  0.00  0.00    +0.035 A 
ATOM      6  C   UNL A   1     -29.210  -0.603  28.185  0.00  0.00    +0.006 A 
ATOM      7 BR   UNL A   1     -30.700   0.252  25.956  0.00  0.00    -0.049 Br
ENDROOT
BRANCH   2   8
ATOM      8  C   UNL A   1     -25.696  -0.235  29.419  0.00  0.00    +0.052 C 
BRANCH   8   9
ATOM      9  C   UNL A   1     -24.970   0.777  29.761  0.00  0.00    -0.021 C 
ATOM     10  C   UNL A   1     -23.719   0.876  28.904  0.00  0.00    -0.004 C 
BRANCH  10  11
ATOM     11  C   UNL A   1     -23.181   2.064  28.456  0.00  0.00    -0.000 C 
ATOM     12  C   UNL A   1     -21.996   1.961  27.605  0.00  0.00    -0.000 C 
BRANCH  12  13
ATOM     13  C   UNL A   1     -21.416   0.916  27.715  0.00  0.00    -0.000 C 
ATOM     14  C   UNL A   1     -21.620  -0.222  28.417  0.00  0.00    -0.000 C 
ENDBRANCH  12  13
ENDBRANCH  10  11
ENDBRANCH   8   9
ENDBRANCH   2   8
TORSDOF 4
