REMARK  Name = No_3710-gen_results/8p0m/2024-11-26-14-13-15/
REMARK  0 active torsions:
REMARK  status: ('A' for Active; 'I' for Inactive)
REMARK                            x       y       z     vdW  Elec       q    Type
REMARK                         _______ _______ _______ _____ _____    ______ ____
ROOT
ATOM      1 CL   UNL A   1     -28.149  -0.820  28.908  0.00  0.00    -0.083 Cl
ATOM      2  C   UNL A   1     -27.834   0.496  29.060  0.00  0.00    +0.053 A 
ATOM      3  C   UNL A   1     -27.602   1.013  30.297  0.00  0.00    +0.011 A 
ATOM      4  C   UNL A   1     -27.170   2.396  30.534  0.00  0.00    +0.000 A 
ATOM      5  C   UNL A   1     -26.913   3.183  29.368  0.00  0.00    -0.008 A 
ATOM      6  C   UNL A   1     -26.445   4.505  29.481  0.00  0.00    -0.018 A 
ATOM      7  C   UNL A   1     -26.162   4.996  30.804  0.00  0.00    -0.004 A 
ATOM      8  C   UNL A   1     -26.358   4.192  31.931  0.00  0.00    -0.000 A 
ATOM      9  C   UNL A   1     -26.816   2.910  31.792  0.00  0.00    -0.000 A 
ATOM     10  C   UNL A   1     -27.621   1.410  27.916  0.00  0.00    -0.015 A 
ATOM     11  C   UNL A   1     -27.144   2.733  28.086  0.00  0.00    -0.022 A 
ATOM     12  C   UNL A   1     -26.109   5.439  28.422  0.00  0.00    +0.052 C 
ATOM     13  C   UNL A   1     -25.548   4.947  27.215  0.00  0.00    -0.026 C 
ATOM     14  C   UNL A   1     -25.879   3.860  26.432  0.00  0.00    -0.026 C 
ATOM     15  C   UNL A   1     -26.333   2.773  27.011  0.00  0.00    +0.044 C 
ATOM     16  C   UNL A   1     -26.574   1.728  25.979  0.00  0.00    +0.012 C 
ATOM     17  C   UNL A   1     -26.031   1.233  24.936  0.00  0.00    +0.001 C 
ATOM     18  C   UNL A   1     -27.495   0.763  26.747  0.00  0.00    +0.028 C 
ENDROOT
TORSDOF 0
