MODEL 3710
MODEL 1
REMARK VINA RESULT:    -6.880      0.000      0.000
REMARK INTER + INTRA:          -6.880
REMARK INTER:                  -6.880
REMARK INTRA:                   0.000
REMARK UNBOUND:                 0.000
REMARK  Name = No_3710-gen_results/8p0m/2024-11-26-14-13-15/
REMARK  0 active torsions:
REMARK  status: ('A' for Active; 'I' for Inactive)
REMARK                            x       y       z     vdW  Elec       q    Type
REMARK                         _______ _______ _______ _____ _____    ______ ____
ROOT
ATOM      1 CL   UNL A   1     -20.466  -0.013  28.310  0.00  0.00    -0.083 Cl
ATOM      2  C   UNL A   1     -21.716   0.512  28.176  0.00  0.00    +0.053 A 
ATOM      3  C   UNL A   1     -21.936   1.570  27.349  0.00  0.00    +0.011 A 
ATOM      4  C   UNL A   1     -23.265   2.133  27.082  0.00  0.00    +0.000 A 
ATOM      5  C   UNL A   1     -24.369   1.449  27.681  0.00  0.00    -0.008 A 
ATOM      6  C   UNL A   1     -25.690   1.873  27.448  0.00  0.00    -0.018 A 
ATOM      7  C   UNL A   1     -25.883   2.962  26.527  0.00  0.00    -0.004 A 
ATOM      8  C   UNL A   1     -24.797   3.579  25.900  0.00  0.00    -0.000 A 
ATOM      9  C   UNL A   1     -23.522   3.147  26.146  0.00  0.00    -0.000 A 
ATOM     10  C   UNL A   1     -22.911  -0.080  28.816  0.00  0.00    -0.015 A 
ATOM     11  C   UNL A   1     -24.221   0.384  28.543  0.00  0.00    -0.022 A 
ATOM     12  C   UNL A   1     -26.926   1.295  27.944  0.00  0.00    +0.052 C 
ATOM     13  C   UNL A   1     -27.012  -0.109  28.125  0.00  0.00    -0.026 C 
ATOM     14  C   UNL A   1     -26.128  -1.014  28.677  0.00  0.00    -0.026 C 
ATOM     15  C   UNL A   1     -24.839  -0.813  28.531  0.00  0.00    +0.044 C 
ATOM     16  C   UNL A   1     -24.090  -1.934  29.163  0.00  0.00    +0.012 C 
ATOM     17  C   UNL A   1     -24.124  -3.206  29.262  0.00  0.00    +0.001 C 
ATOM     18  C   UNL A   1     -22.688  -1.313  29.298  0.00  0.00    +0.028 C 
ENDROOT
TORSDOF 0
ENDMDL
ENDMDL
