REMARK  Name = No_3711-gen_results/8p0m/2024-11-26-14-13-15/
REMARK  7 active torsions:
REMARK  status: ('A' for Active; 'I' for Inactive)
REMARK    1  A    between atoms: C_3  and  C_4
REMARK    2  A    between atoms: C_7  and  C_13
REMARK    3  A    between atoms: C_13  and  O_14
REMARK    4  A    between atoms: O_14  and  C_17
REMARK    5  A    between atoms: C_22  and  C_23
REMARK    6  A    between atoms: C_23  and  C_24
REMARK    7  A    between atoms: C_23  and  C_25
REMARK                            x       y       z     vdW  Elec       q    Type
REMARK                         _______ _______ _______ _____ _____    ______ ____
ROOT
ATOM      1  C   UNL A   1     -31.311  -3.121  30.390  0.00  0.00    +0.148 A 
ATOM      2  C   UNL A   1     -31.557  -3.479  31.527  0.00  0.00    +0.038 A 
ATOM      3  C   UNL A   1     -32.755  -4.271  31.865  0.00  0.00    +0.003 A 
ATOM      4  C   UNL A   1     -33.626  -4.487  30.841  0.00  0.00    -0.003 A 
ATOM      5  C   UNL A   1     -32.173  -3.275  29.291  0.00  0.00    +0.034 A 
ATOM      6  C   UNL A   1     -33.308  -4.008  29.534  0.00  0.00    -0.011 A 
ENDROOT
BRANCH   1   7
ATOM      7  O   UNL A   1     -30.137  -2.324  30.173  0.00  0.00    -0.421 OA
BRANCH   7   8
ATOM      8  C   UNL A   1     -29.059  -2.722  30.295  0.00  0.00    +0.346 C 
ATOM      9  O   UNL A   1     -28.823  -4.009  30.563  0.00  0.00    -0.244 OA
BRANCH   8  13
ATOM     10  C   UNL A   1     -28.016  -0.814  28.878  0.00  0.00    +0.006 A 
ATOM     11  C   UNL A   1     -27.064  -0.119  28.608  0.00  0.00    +0.000 A 
ATOM     12  C   UNL A   1     -25.792  -0.430  29.076  0.00  0.00    +0.000 A 
ATOM     13  C   UNL A   1     -27.905  -1.898  29.873  0.00  0.00    +0.076 A 
ATOM     14  C   UNL A   1     -26.680  -2.314  30.318  0.00  0.00    +0.006 A 
ATOM     15  C   UNL A   1     -25.520  -1.556  29.977  0.00  0.00    +0.000 A 
BRANCH  12  16
ATOM     16  C   UNL A   1     -24.546   0.349  28.823  0.00  0.00    +0.001 A 
ATOM     17  C   UNL A   1     -23.241   0.022  29.332  0.00  0.00    +0.000 A 
ATOM     18  C   UNL A   1     -22.136   0.769  29.006  0.00  0.00    +0.001 A 
ATOM     19  C   UNL A   1     -22.125   1.736  28.024  0.00  0.00    +0.011 A 
ATOM     20  C   UNL A   1     -24.544   1.386  27.792  0.00  0.00    +0.011 A 
ATOM     21  C   UNL A   1     -23.337   2.047  27.452  0.00  0.00    +0.058 A 
ATOM     22 CL   UNL A   1     -23.469   3.234  26.205  0.00  0.00    -0.082 Cl
ENDBRANCH  12  16
ENDBRANCH   8  13
ENDBRANCH   7   8
ENDBRANCH   1   7
BRANCH   6  23
ATOM     23  C   UNL A   1     -34.267  -4.234  28.424  0.00  0.00    +0.067 C 
BRANCH  23  24
ATOM     24  C   UNL A   1     -35.096  -3.277  28.116  0.00  0.00    -0.014 A 
ATOM     25  C   UNL A   1     -35.222  -2.020  28.747  0.00  0.00    -0.004 A 
ATOM     26  C   UNL A   1     -36.146  -1.048  28.320  0.00  0.00    -0.000 A 
ATOM     27  C   UNL A   1     -36.923  -1.379  27.233  0.00  0.00    -0.000 A 
ATOM     28  C   UNL A   1     -35.953  -3.427  26.971  0.00  0.00    -0.004 A 
ATOM     29  C   UNL A   1     -36.855  -2.509  26.555  0.00  0.00    -0.000 A 
ENDBRANCH  23  24
BRANCH  23  30
ATOM     30  C   UNL A   1     -34.139  -5.403  27.667  0.00  0.00    -0.014 A 
ATOM     31  C   UNL A   1     -33.014  -6.237  27.906  0.00  0.00    -0.004 A 
ATOM     32  C   UNL A   1     -32.855  -7.357  27.061  0.00  0.00    -0.000 A 
ATOM     33  C   UNL A   1     -33.644  -7.502  26.022  0.00  0.00    -0.000 A 
ATOM     34  C   UNL A   1     -34.724  -6.619  25.760  0.00  0.00    -0.000 A 
ATOM     35  C   UNL A   1     -34.937  -5.569  26.577  0.00  0.00    -0.004 A 
ENDBRANCH  23  30
ENDBRANCH   6  23
TORSDOF 7
