MODEL 3711
MODEL 1
REMARK VINA RESULT:   -10.302      0.000      0.000
REMARK INTER + INTRA:         -16.988
REMARK INTER:                 -14.517
REMARK INTRA:                  -2.471
REMARK UNBOUND:                -2.471
REMARK  Name = No_3711-gen_results/8p0m/2024-11-26-14-13-15/
REMARK  7 active torsions:
REMARK  status: ('A' for Active; 'I' for Inactive)
REMARK    1  A    between atoms: C_3  and  C_4
REMARK    2  A    between atoms: C_7  and  C_13
REMARK    3  A    between atoms: C_13  and  O_14
REMARK    4  A    between atoms: O_14  and  C_17
REMARK    5  A    between atoms: C_22  and  C_23
REMARK    6  A    between atoms: C_23  and  C_24
REMARK    7  A    between atoms: C_23  and  C_25
REMARK                            x       y       z     vdW  Elec       q    Type
REMARK                         _______ _______ _______ _____ _____    ______ ____
ROOT
ATOM      1  C   UNL A   1     -22.677   1.222  27.751  0.00  0.00    +0.148 A 
ATOM      2  C   UNL A   1     -21.472   1.053  27.795  0.00  0.00    +0.038 A 
ATOM      3  C   UNL A   1     -20.854  -0.028  28.587  0.00  0.00    +0.003 A 
ATOM      4  C   UNL A   1     -21.709  -0.760  29.353  0.00  0.00    -0.003 A 
ATOM      5  C   UNL A   1     -23.618   0.533  28.535  0.00  0.00    +0.034 A 
ATOM      6  C   UNL A   1     -23.110  -0.491  29.296  0.00  0.00    -0.011 A 
ENDROOT
BRANCH   1   7
ATOM      7  O   UNL A   1     -23.175   2.324  26.978  0.00  0.00    -0.421 OA
BRANCH   7   8
ATOM      8  C   UNL A   1     -23.498   2.238  25.872  0.00  0.00    +0.346 C 
ATOM      9  O   UNL A   1     -22.632   2.463  24.880  0.00  0.00    -0.244 OA
BRANCH   8  13
ATOM     10  C   UNL A   1     -24.865   0.278  24.861  0.00  0.00    +0.006 A 
ATOM     11  C   UNL A   1     -25.935  -0.242  24.644  0.00  0.00    +0.000 A 
ATOM     12  C   UNL A   1     -27.123   0.457  24.827  0.00  0.00    +0.000 A 
ATOM     13  C   UNL A   1     -24.783   1.598  25.515  0.00  0.00    +0.076 A 
ATOM     14  C   UNL A   1     -25.898   2.378  25.654  0.00  0.00    +0.006 A 
ATOM     15  C   UNL A   1     -27.179   1.824  25.357  0.00  0.00    +0.000 A 
BRANCH  12  16
ATOM     16  C   UNL A   1     -28.499  -0.074  24.606  0.00  0.00    +0.001 A 
ATOM     17  C   UNL A   1     -28.853  -1.110  23.673  0.00  0.00    +0.000 A 
ATOM     18  C   UNL A   1     -30.142  -1.574  23.571  0.00  0.00    +0.001 A 
ATOM     19  C   UNL A   1     -31.143  -1.264  24.467  0.00  0.00    +0.011 A 
ATOM     20  C   UNL A   1     -29.562   0.272  25.548  0.00  0.00    +0.011 A 
ATOM     21  C   UNL A   1     -30.843  -0.324  25.425  0.00  0.00    +0.058 A 
ATOM     22 CL   UNL A   1     -32.000   0.154  26.614  0.00  0.00    -0.082 Cl
ENDBRANCH  12  16
ENDBRANCH   8  13
ENDBRANCH   7   8
ENDBRANCH   1   7
BRANCH   6  23
ATOM     23  C   UNL A   1     -24.037  -1.282  30.143  0.00  0.00    +0.067 C 
BRANCH  23  24
ATOM     24  C   UNL A   1     -24.419  -2.454  29.718  0.00  0.00    -0.014 A 
ATOM     25  C   UNL A   1     -23.662  -3.376  28.962  0.00  0.00    -0.004 A 
ATOM     26  C   UNL A   1     -24.170  -4.628  28.567  0.00  0.00    -0.000 A 
ATOM     27  C   UNL A   1     -25.453  -4.922  28.970  0.00  0.00    -0.000 A 
ATOM     28  C   UNL A   1     -25.716  -2.950  30.088  0.00  0.00    -0.004 A 
ATOM     29  C   UNL A   1     -26.225  -4.144  29.706  0.00  0.00    -0.000 A 
ENDBRANCH  23  24
BRANCH  23  30
ATOM     30  C   UNL A   1     -24.341  -0.800  31.420  0.00  0.00    -0.014 A 
ATOM     31  C   UNL A   1     -23.665  -1.371  32.531  0.00  0.00    -0.004 A 
ATOM     32  C   UNL A   1     -24.062  -0.938  33.815  0.00  0.00    -0.000 A 
ATOM     33  C   UNL A   1     -25.110  -0.159  33.941  0.00  0.00    -0.000 A 
ATOM     34  C   UNL A   1     -25.817   0.349  32.819  0.00  0.00    -0.000 A 
ATOM     35  C   UNL A   1     -25.432  -0.002  31.577  0.00  0.00    -0.004 A 
ENDBRANCH  23  30
ENDBRANCH   6  23
TORSDOF 7
ENDMDL
ENDMDL
