MODEL 3712
MODEL 1
REMARK VINA RESULT:    -7.012      0.000      0.000
REMARK INTER + INTRA:          -9.389
REMARK INTER:                  -8.651
REMARK INTRA:                  -0.737
REMARK UNBOUND:                -0.737
REMARK  Name = No_3712-gen_results/8p0m/2024-11-26-14-13-15/
REMARK  4 active torsions:
REMARK  status: ('A' for Active; 'I' for Inactive)
REMARK    1  A    between atoms: C_1  and  C_2
REMARK    2  A    between atoms: C_1  and  N_8
REMARK    3  A    between atoms: C_5  and  C_17
REMARK    4  A    between atoms: C_9  and  C_10
REMARK                            x       y       z     vdW  Elec       q    Type
REMARK                         _______ _______ _______ _____ _____    ______ ____
ROOT
ATOM      1  C   UNL A   1      -8.238   0.916  37.297  0.00  0.00    +0.142 C 
ENDROOT
BRANCH   1   2
ATOM      2  C   UNL A   1      -9.094   0.196  37.757  0.00  0.00    -0.001 A 
ATOM      3  C   UNL A   1      -9.915  -0.582  37.006  0.00  0.00    -0.003 A 
ATOM      4  C   UNL A   1     -10.965  -1.469  37.554  0.00  0.00    +0.004 A 
ATOM      5  C   UNL A   1     -11.096  -1.516  38.981  0.00  0.00    +0.071 A 
ATOM      6  C   UNL A   1     -10.175  -0.748  39.729  0.00  0.00    +0.004 A 
ATOM      7  C   UNL A   1      -9.225   0.054  39.151  0.00  0.00    -0.003 A 
BRANCH   5   8
ATOM      8  C   UNL A   1     -12.040  -2.356  39.653  0.00  0.00    +0.419 C 
ATOM      9  F   UNL A   1     -12.662  -3.130  39.206  0.00  0.00    -0.166 F 
ATOM     10  F   UNL A   1     -11.509  -2.819  40.879  0.00  0.00    -0.166 F 
ATOM     11  F   UNL A   1     -13.010  -1.425  40.339  0.00  0.00    -0.166 F 
ENDBRANCH   5   8
ENDBRANCH   1   2
BRANCH   1  12
ATOM     12  N   UNL A   1      -8.375   1.453  36.021  0.00  0.00    -0.197 NA
ATOM     13  C   UNL A   1      -7.740   1.016  34.870  0.00  0.00    +0.265 C 
ATOM     14  O   UNL A   1      -8.244   1.543  33.793  0.00  0.00    -0.268 OA
BRANCH  13  15
ATOM     15  C   UNL A   1      -6.847   0.139  34.922  0.00  0.00    +0.055 A 
ATOM     16  C   UNL A   1      -7.220  -1.152  34.453  0.00  0.00    +0.005 A 
ATOM     17  C   UNL A   1      -6.265  -2.192  34.514  0.00  0.00    +0.000 A 
ATOM     18  C   UNL A   1      -4.915  -1.902  34.503  0.00  0.00    +0.000 A 
ATOM     19  C   UNL A   1      -4.552  -0.549  34.777  0.00  0.00    +0.000 A 
ATOM     20  C   UNL A   1      -5.492   0.423  34.912  0.00  0.00    +0.005 A 
ENDBRANCH  13  15
ENDBRANCH   1  12
TORSDOF 4
ENDMDL
ENDMDL
