REMARK  Name = No_3712-gen_results/8p0m/2024-11-26-14-13-15/
REMARK  4 active torsions:
REMARK  status: ('A' for Active; 'I' for Inactive)
REMARK    1  A    between atoms: C_1  and  C_2
REMARK    2  A    between atoms: C_1  and  N_8
REMARK    3  A    between atoms: C_5  and  C_17
REMARK    4  A    between atoms: C_9  and  C_10
REMARK                            x       y       z     vdW  Elec       q    Type
REMARK                         _______ _______ _______ _____ _____    ______ ____
ROOT
ATOM      1  C   UNL A   1     -28.016  -0.814  28.878  0.00  0.00    +0.142 C 
ENDROOT
BRANCH   1   2
ATOM      2  C   UNL A   1     -27.064  -0.119  28.608  0.00  0.00    -0.001 A 
ATOM      3  C   UNL A   1     -26.929   1.171  29.008  0.00  0.00    -0.003 A 
ATOM      4  C   UNL A   1     -25.770   2.034  28.688  0.00  0.00    +0.004 A 
ATOM      5  C   UNL A   1     -24.714   1.443  27.919  0.00  0.00    +0.071 A 
ATOM      6  C   UNL A   1     -24.859   0.078  27.584  0.00  0.00    +0.004 A 
ATOM      7  C   UNL A   1     -25.965  -0.661  27.916  0.00  0.00    -0.003 A 
BRANCH   5   8
ATOM      8  C   UNL A   1     -23.517   2.143  27.567  0.00  0.00    +0.419 C 
ATOM      9  F   UNL A   1     -23.344   2.735  26.669  0.00  0.00    -0.166 F 
ATOM     10  F   UNL A   1     -22.985   2.817  28.691  0.00  0.00    -0.166 F 
ATOM     11  F   UNL A   1     -22.415   1.111  27.571  0.00  0.00    -0.166 F 
ENDBRANCH   5   8
ENDBRANCH   1   2
BRANCH   1  12
ATOM     12  N   UNL A   1     -28.700  -0.644  30.077  0.00  0.00    -0.197 NA
ATOM     13  C   UNL A   1     -29.803  -1.365  30.506  0.00  0.00    +0.265 C 
ATOM     14  O   UNL A   1     -30.075  -1.158  31.761  0.00  0.00    -0.268 OA
BRANCH  13  15
ATOM     15  C   UNL A   1     -30.375  -2.179  29.745  0.00  0.00    +0.055 A 
ATOM     16  C   UNL A   1     -30.458  -3.517  30.221  0.00  0.00    +0.005 A 
ATOM     17  C   UNL A   1     -31.065  -4.489  29.394  0.00  0.00    +0.000 A 
ATOM     18  C   UNL A   1     -31.999  -4.116  28.447  0.00  0.00    +0.000 A 
ATOM     19  C   UNL A   1     -32.051  -2.728  28.117  0.00  0.00    +0.000 A 
ATOM     20  C   UNL A   1     -31.311  -1.811  28.793  0.00  0.00    +0.005 A 
ENDBRANCH  13  15
ENDBRANCH   1  12
TORSDOF 4
