MODEL 3713
MODEL 1
REMARK VINA RESULT:    -5.902      0.000      0.000
REMARK INTER + INTRA:          -7.351
REMARK INTER:                  -6.937
REMARK INTRA:                  -0.414
REMARK UNBOUND:                -0.414
REMARK  Name = No_3713-gen_results/8p0m/2024-11-26-14-13-15/
REMARK  3 active torsions:
REMARK  status: ('A' for Active; 'I' for Inactive)
REMARK    1  A    between atoms: C_3  and  C_4
REMARK    2  A    between atoms: C_4  and  C_8
REMARK    3  A    between atoms: C_9  and  C_10
REMARK                            x       y       z     vdW  Elec       q    Type
REMARK                         _______ _______ _______ _____ _____    ______ ____
ROOT
ATOM      1  C   UNL A   1     -26.197  -3.333  29.854  0.00  0.00    -0.004 A 
ATOM      2  C   UNL A   1     -26.217  -4.381  29.737  0.00  0.00    -0.000 A 
ATOM      3  C   UNL A   1     -24.957  -2.649  29.453  0.00  0.00    -0.018 A 
ATOM      4  C   UNL A   1     -25.295  -5.311  29.043  0.00  0.00    -0.000 A 
ATOM      5  C   UNL A   1     -24.098  -4.738  28.627  0.00  0.00    -0.000 A 
ATOM      6  C   UNL A   1     -23.878  -3.386  28.785  0.00  0.00    -0.004 A 
ENDROOT
BRANCH   3   7
ATOM      7  C   UNL A   1     -24.624  -1.247  29.649  0.00  0.00    +0.052 C 
BRANCH   7   8
ATOM      8  C   UNL A   1     -23.374  -0.768  29.240  0.00  0.00    -0.021 C 
ATOM      9  C   UNL A   1     -23.268   0.369  28.578  0.00  0.00    -0.005 C 
BRANCH   9  10
ATOM     10  C   UNL A   1     -21.983   0.818  28.162  0.00  0.00    -0.005 C 
ATOM     11  C   UNL A   1     -21.931   1.726  27.056  0.00  0.00    -0.026 C 
ATOM     12  C   UNL A   1     -23.143   2.274  26.519  0.00  0.00    +0.031 C 
ENDBRANCH   9  10
ENDBRANCH   7   8
ENDBRANCH   3   7
TORSDOF 3
ENDMDL
ENDMDL
