MODEL 3714
MODEL 1
REMARK VINA RESULT:    -5.793      0.000      0.000
REMARK INTER + INTRA:          -7.513
REMARK INTER:                  -7.148
REMARK INTRA:                  -0.365
REMARK UNBOUND:                -0.365
REMARK  Name = No_3714-gen_results/8p0m/2024-11-26-14-13-15/
REMARK  4 active torsions:
REMARK  status: ('A' for Active; 'I' for Inactive)
REMARK    1  A    between atoms: C_1  and  C_2
REMARK    2  A    between atoms: C_1  and  N_8
REMARK    3  A    between atoms: C_5  and  C_11
REMARK    4  A    between atoms: N_8  and  C_9
REMARK                            x       y       z     vdW  Elec       q    Type
REMARK                         _______ _______ _______ _____ _____    ______ ____
ROOT
ATOM      1  C   UNL A   1     -23.841  -1.776  28.949  0.00  0.00    +0.000 A 
ATOM      2  C   UNL A   1     -22.653  -1.096  29.135  0.00  0.00    -0.003 A 
ATOM      3  C   UNL A   1     -22.284   0.153  28.495  0.00  0.00    +0.004 A 
ATOM      4  C   UNL A   1     -23.190   0.747  27.590  0.00  0.00    +0.071 A 
ATOM      5  C   UNL A   1     -24.440   0.055  27.398  0.00  0.00    +0.004 A 
ATOM      6  C   UNL A   1     -24.783  -1.109  28.044  0.00  0.00    -0.003 A 
ENDROOT
BRANCH   4   7
ATOM      7  C   UNL A   1     -22.886   1.949  26.860  0.00  0.00    +0.419 C 
ATOM      8  F   UNL A   1     -23.439   2.960  27.333  0.00  0.00    -0.166 F 
ATOM      9  F   UNL A   1     -23.147   1.893  25.543  0.00  0.00    -0.166 F 
ATOM     10  F   UNL A   1     -21.524   2.214  26.934  0.00  0.00    -0.166 F 
ENDBRANCH   4   7
BRANCH   1  11
ATOM     11  C   UNL A   1     -24.138  -2.781  29.552  0.00  0.00    +0.149 C 
BRANCH  11  12
ATOM     12  N   UNL A   1     -23.800  -4.012  28.987  0.00  0.00    -0.184 NA
BRANCH  12  13
ATOM     13  C   UNL A   1     -24.277  -4.896  28.923  0.00  0.00    +0.032 C 
ATOM     14  C   UNL A   1     -25.040  -5.639  28.961  0.00  0.00    +0.009 C 
ENDBRANCH  12  13
ENDBRANCH  11  12
ENDBRANCH   1  11
TORSDOF 4
ENDMDL
ENDMDL
