REMARK  Name = No_3714-gen_results/8p0m/2024-11-26-14-13-15/
REMARK  4 active torsions:
REMARK  status: ('A' for Active; 'I' for Inactive)
REMARK    1  A    between atoms: C_1  and  C_2
REMARK    2  A    between atoms: C_1  and  N_8
REMARK    3  A    between atoms: C_5  and  C_11
REMARK    4  A    between atoms: N_8  and  C_9
REMARK                            x       y       z     vdW  Elec       q    Type
REMARK                         _______ _______ _______ _____ _____    ______ ____
ROOT
ATOM      1  C   UNL A   1     -27.064  -0.119  28.608  0.00  0.00    +0.000 A 
ATOM      2  C   UNL A   1     -27.001   0.691  27.491  0.00  0.00    -0.003 A 
ATOM      3  C   UNL A   1     -25.855   1.482  27.083  0.00  0.00    +0.004 A 
ATOM      4  C   UNL A   1     -24.690   1.453  27.881  0.00  0.00    +0.071 A 
ATOM      5  C   UNL A   1     -24.738   0.601  29.042  0.00  0.00    +0.004 A 
ATOM      6  C   UNL A   1     -25.823  -0.169  29.389  0.00  0.00    -0.003 A 
ENDROOT
BRANCH   4   7
ATOM      7  C   UNL A   1     -23.529   2.252  27.592  0.00  0.00    +0.419 C 
ATOM      8  F   UNL A   1     -23.018   2.757  28.609  0.00  0.00    -0.166 F 
ATOM      9  F   UNL A   1     -23.722   3.222  26.682  0.00  0.00    -0.166 F 
ATOM     10  F   UNL A   1     -22.532   1.454  27.044  0.00  0.00    -0.166 F 
ENDBRANCH   4   7
BRANCH   1  11
ATOM     11  C   UNL A   1     -28.016  -0.814  28.878  0.00  0.00    +0.149 C 
BRANCH  11  12
ATOM     12  N   UNL A   1     -28.730  -0.530  30.043  0.00  0.00    -0.184 NA
BRANCH  12  13
ATOM     13  C   UNL A   1     -28.932   0.323  30.538  0.00  0.00    +0.032 C 
ATOM     14  C   UNL A   1     -29.304   1.006  31.266  0.00  0.00    +0.009 C 
ENDBRANCH  12  13
ENDBRANCH  11  12
ENDBRANCH   1  11
TORSDOF 4
