REMARK  Name = No_3715-gen_results/8p0m/2024-11-26-14-13-15/
REMARK  2 active torsions:
REMARK  status: ('A' for Active; 'I' for Inactive)
REMARK    1  A    between atoms: C_5  and  C_8
REMARK    2  A    between atoms: C_8  and  N_9
REMARK                            x       y       z     vdW  Elec       q    Type
REMARK                         _______ _______ _______ _____ _____    ______ ____
ROOT
ATOM      1 CL   UNL A   1     -28.149  -0.820  28.908  0.00  0.00    -0.082 Cl
ATOM      2  C   UNL A   1     -26.912  -0.080  28.945  0.00  0.00    +0.058 A 
ATOM      3  C   UNL A   1     -26.049  -0.072  27.859  0.00  0.00    +0.011 A 
ATOM      4  C   UNL A   1     -25.229   1.013  27.620  0.00  0.00    -0.002 A 
ATOM      5  C   UNL A   1     -24.827   1.670  28.407  0.00  0.00    -0.000 A 
ATOM      6  C   UNL A   1     -25.394   1.681  29.732  0.00  0.00    -0.002 A 
ATOM      7  C   UNL A   1     -26.401   0.823  29.916  0.00  0.00    +0.011 A 
ENDROOT
BRANCH   5   8
ATOM      8  C   UNL A   1     -23.641   2.661  28.204  0.00  0.00    +0.144 C 
BRANCH   8   9
ATOM      9  N   UNL A   1     -22.460   2.085  27.853  0.00  0.00    -0.171 NA
ATOM     10  C   UNL A   1     -21.809   1.203  28.680  0.00  0.00    +0.410 C 
ATOM     11  F   UNL A   1     -22.132   0.961  29.767  0.00  0.00    -0.142 F 
ATOM     12  O   UNL A   1     -20.773   0.610  28.131  0.00  0.00    -0.234 OA
ENDBRANCH   8   9
ENDBRANCH   5   8
TORSDOF 2
