MODEL 3715
MODEL 1
REMARK VINA RESULT:    -5.208      0.000      0.000
REMARK INTER + INTRA:          -5.991
REMARK INTER:                  -5.816
REMARK INTRA:                  -0.174
REMARK UNBOUND:                -0.174
REMARK  Name = No_3715-gen_results/8p0m/2024-11-26-14-13-15/
REMARK  2 active torsions:
REMARK  status: ('A' for Active; 'I' for Inactive)
REMARK    1  A    between atoms: C_5  and  C_8
REMARK    2  A    between atoms: C_8  and  N_9
REMARK                            x       y       z     vdW  Elec       q    Type
REMARK                         _______ _______ _______ _____ _____    ______ ____
ROOT
ATOM      1 CL   UNL A   1     -29.937 -11.031  26.473  0.00  0.00    -0.082 Cl
ATOM      2  C   UNL A   1     -29.978 -11.057  27.914  0.00  0.00    +0.058 A 
ATOM      3  C   UNL A   1     -29.189 -11.939  28.638  0.00  0.00    +0.011 A 
ATOM      4  C   UNL A   1     -28.761 -11.617  29.911  0.00  0.00    -0.002 A 
ATOM      5  C   UNL A   1     -29.322 -10.977  30.609  0.00  0.00    -0.000 A 
ATOM      6  C   UNL A   1     -30.387 -10.122  30.146  0.00  0.00    -0.002 A 
ATOM      7  C   UNL A   1     -30.640 -10.204  28.837  0.00  0.00    +0.011 A 
ENDROOT
BRANCH   5   8
ATOM      8  C   UNL A   1     -29.044 -10.890  32.140  0.00  0.00    +0.144 C 
BRANCH   8   9
ATOM      9  N   UNL A   1     -28.291 -11.902  32.649  0.00  0.00    -0.171 NA
ATOM     10  C   UNL A   1     -27.309 -11.677  33.583  0.00  0.00    +0.410 C 
ATOM     11  F   UNL A   1     -26.961 -10.627  33.930  0.00  0.00    -0.142 F 
ATOM     12  O   UNL A   1     -26.789 -12.770  34.095  0.00  0.00    -0.234 OA
ENDBRANCH   8   9
ENDBRANCH   5   8
TORSDOF 2
ENDMDL
ENDMDL
