REMARK  Name = No_3716-gen_results/8p0m/2024-11-26-14-13-15/
REMARK  7 active torsions:
REMARK  status: ('A' for Active; 'I' for Inactive)
REMARK    1  A    between atoms: C_2  and  C_8
REMARK    2  A    between atoms: C_10  and  C_23
REMARK    3  A    between atoms: C_13  and  C_14
REMARK    4  A    between atoms: C_14  and  C_15
REMARK    5  A    between atoms: N_24  and  C_25
REMARK    6  A    between atoms: N_24  and  C_27
REMARK    7  A    between atoms: C_33  and  C_34
REMARK                            x       y       z     vdW  Elec       q    Type
REMARK                         _______ _______ _______ _____ _____    ______ ____
ROOT
ATOM      1  C   UNL A   1     -27.107   1.110  27.759  0.00  0.00    -0.000 A 
ATOM      2  C   UNL A   1     -26.611   2.177  27.870  0.00  0.00    +0.004 A 
ATOM      3  C   UNL A   1     -26.637   3.270  26.910  0.00  0.00    +0.054 A 
ATOM      4  C   UNL A   1     -27.303   3.043  25.700  0.00  0.00    +0.002 A 
ATOM      5  C   UNL A   1     -27.792   0.877  26.430  0.00  0.00    -0.003 A 
ATOM      6  C   UNL A   1     -27.854   1.825  25.503  0.00  0.00    -0.001 A 
ENDROOT
BRANCH   1   8
ATOM      7  C   UNL A   1     -28.016  -0.814  28.878  0.00  0.00    +0.011 A 
ATOM      8  C   UNL A   1     -27.064  -0.119  28.608  0.00  0.00    +0.001 A 
ATOM      9  C   UNL A   1     -25.792  -0.430  29.076  0.00  0.00    +0.000 A 
ATOM     10  C   UNL A   1     -25.576  -1.565  29.936  0.00  0.00    +0.001 A 
ATOM     11  C   UNL A   1     -26.735  -2.300  30.217  0.00  0.00    +0.011 A 
ATOM     12  C   UNL A   1     -27.918  -1.954  29.763  0.00  0.00    +0.058 A 
ATOM     13 CL   UNL A   1     -29.268  -2.889  30.215  0.00  0.00    -0.082 Cl
ENDBRANCH   1   8
BRANCH   3  14
ATOM     14  C   UNL A   1     -25.970   4.561  27.270  0.00  0.00    +0.257 C 
ATOM     15  N   UNL A   1     -26.282   5.261  28.004  0.00  0.00    -0.233 N 
ATOM     16  O   UNL A   1     -24.751   4.606  26.765  0.00  0.00    -0.269 OA
BRANCH  15  17
ATOM     17  C   UNL A   1     -26.085   5.166  29.327  0.00  0.00    +0.058 A 
ATOM     18  C   UNL A   1     -26.929   5.568  30.183  0.00  0.00    +0.015 A 
ATOM     19  C   UNL A   1     -27.023   5.025  31.389  0.00  0.00    +0.001 A 
ATOM     20  C   UNL A   1     -26.015   4.166  31.890  0.00  0.00    +0.000 A 
ATOM     21  C   UNL A   1     -25.062   3.706  30.992  0.00  0.00    +0.001 A 
ATOM     22  C   UNL A   1     -25.138   4.114  29.674  0.00  0.00    +0.015 A 
ENDBRANCH  15  17
BRANCH  15  23
ATOM     23  C   UNL A   1     -26.129   6.726  27.670  0.00  0.00    +0.072 C 
ATOM     24  C   UNL A   1     -27.237   7.411  27.266  0.00  0.00    +0.017 C 
BRANCH  24  25
ATOM     25  C   UNL A   1     -28.314   7.017  27.021  0.00  0.00    +0.001 C 
ATOM     26  C   UNL A   1     -29.429   7.734  26.501  0.00  0.00    +0.000 C 
ENDBRANCH  24  25
ENDBRANCH  15  23
ENDBRANCH   3  14
BRANCH   6  27
ATOM     27  C   UNL A   1     -28.572   1.588  24.238  0.00  0.00    +0.136 C 
ATOM     28  N   UNL A   1     -28.216   0.607  23.509  0.00  0.00    -0.123 NA
BRANCH  27  29
ATOM     29  C   UNL A   1     -29.685   2.304  24.076  0.00  0.00    +0.000 A 
ATOM     30  C   UNL A   1     -30.761   1.954  23.240  0.00  0.00    +0.009 A 
ATOM     31  C   UNL A   1     -31.809   2.869  22.985  0.00  0.00    +0.057 A 
ATOM     32  C   UNL A   1     -31.955   4.039  23.739  0.00  0.00    +0.011 A 
ATOM     33  C   UNL A   1     -30.962   4.343  24.697  0.00  0.00    +0.001 A 
ATOM     34  C   UNL A   1     -29.887   3.627  24.863  0.00  0.00    -0.003 A 
ATOM     35 CL   UNL A   1     -32.992   2.379  21.878  0.00  0.00    -0.082 Cl
ENDBRANCH  27  29
ENDBRANCH   6  27
TORSDOF 7
