MODEL 3716
MODEL 1
REMARK VINA RESULT:    -8.491      0.000      0.000
REMARK INTER + INTRA:         -13.753
REMARK INTER:                 -11.966
REMARK INTRA:                  -1.787
REMARK UNBOUND:                -1.787
REMARK  Name = No_3716-gen_results/8p0m/2024-11-26-14-13-15/
REMARK  7 active torsions:
REMARK  status: ('A' for Active; 'I' for Inactive)
REMARK    1  A    between atoms: C_2  and  C_8
REMARK    2  A    between atoms: C_10  and  C_23
REMARK    3  A    between atoms: C_13  and  C_14
REMARK    4  A    between atoms: C_14  and  C_15
REMARK    5  A    between atoms: N_24  and  C_25
REMARK    6  A    between atoms: N_24  and  C_27
REMARK    7  A    between atoms: C_33  and  C_34
REMARK                            x       y       z     vdW  Elec       q    Type
REMARK                         _______ _______ _______ _____ _____    ______ ____
ROOT
ATOM      1  C   UNL A   1     -10.212   0.201  37.182  0.00  0.00    -0.000 A 
ATOM      2  C   UNL A   1      -9.185   0.410  36.635  0.00  0.00    +0.004 A 
ATOM      3  C   UNL A   1      -8.959   1.242  35.463  0.00  0.00    +0.054 A 
ATOM      4  C   UNL A   1     -10.078   1.856  34.889  0.00  0.00    +0.002 A 
ATOM      5  C   UNL A   1     -11.411   0.848  36.523  0.00  0.00    -0.003 A 
ATOM      6  C   UNL A   1     -11.285   1.618  35.449  0.00  0.00    -0.001 A 
ENDROOT
BRANCH   1   8
ATOM      7  C   UNL A   1     -10.059  -0.728  39.394  0.00  0.00    +0.011 A 
ATOM      8  C   UNL A   1     -10.592  -0.704  38.309  0.00  0.00    +0.001 A 
ATOM      9  C   UNL A   1     -11.660  -1.544  38.014  0.00  0.00    +0.000 A 
ATOM     10  C   UNL A   1     -12.135  -2.504  38.977  0.00  0.00    +0.001 A 
ATOM     11  C   UNL A   1     -11.447  -2.481  40.197  0.00  0.00    +0.011 A 
ATOM     12  C   UNL A   1     -10.432  -1.677  40.420  0.00  0.00    +0.058 A 
ATOM     13 CL   UNL A   1      -9.631  -1.775  41.920  0.00  0.00    -0.082 Cl
ENDBRANCH   1   8
BRANCH   3  14
ATOM     14  C   UNL A   1      -7.561   1.402  34.952  0.00  0.00    +0.257 C 
ATOM     15  N   UNL A   1      -6.673   1.013  35.382  0.00  0.00    -0.233 N 
ATOM     16  O   UNL A   1      -7.574   1.849  33.709  0.00  0.00    -0.269 OA
BRANCH  15  17
ATOM     17  C   UNL A   1      -6.222  -0.245  35.273  0.00  0.00    +0.058 A 
ATOM     18  C   UNL A   1      -6.871  -1.165  34.690  0.00  0.00    +0.015 A 
ATOM     19  C   UNL A   1      -6.268  -2.193  34.109  0.00  0.00    +0.001 A 
ATOM     20  C   UNL A   1      -4.900  -2.472  34.343  0.00  0.00    +0.000 A 
ATOM     21  C   UNL A   1      -4.149  -1.499  34.987  0.00  0.00    +0.001 A 
ATOM     22  C   UNL A   1      -4.770  -0.326  35.372  0.00  0.00    +0.015 A 
ENDBRANCH  15  17
BRANCH  15  23
ATOM     23  C   UNL A   1      -5.446   1.893  35.348  0.00  0.00    +0.072 C 
ATOM     24  C   UNL A   1      -5.278   2.799  36.353  0.00  0.00    +0.017 C 
BRANCH  24  25
ATOM     25  C   UNL A   1      -6.006   3.099  37.222  0.00  0.00    +0.001 C 
ATOM     26  C   UNL A   1      -6.559   4.376  37.522  0.00  0.00    +0.000 C 
ENDBRANCH  24  25
ENDBRANCH  15  23
ENDBRANCH   3  14
BRANCH   6  27
ATOM     27  C   UNL A   1     -12.463   2.277  34.859  0.00  0.00    +0.136 C 
ATOM     28  N   UNL A   1     -12.851   1.912  33.703  0.00  0.00    -0.123 NA
BRANCH  27  29
ATOM     29  C   UNL A   1     -13.153   3.056  35.693  0.00  0.00    +0.000 A 
ATOM     30  C   UNL A   1     -14.539   2.975  35.919  0.00  0.00    +0.009 A 
ATOM     31  C   UNL A   1     -15.210   3.967  36.671  0.00  0.00    +0.057 A 
ATOM     32  C   UNL A   1     -14.505   4.911  37.427  0.00  0.00    +0.011 A 
ATOM     33  C   UNL A   1     -13.095   4.919  37.335  0.00  0.00    +0.001 A 
ATOM     34  C   UNL A   1     -12.427   4.141  36.532  0.00  0.00    -0.003 A 
ATOM     35 CL   UNL A   1     -16.893   3.825  36.785  0.00  0.00    -0.082 Cl
ENDBRANCH  27  29
ENDBRANCH   6  27
TORSDOF 7
ENDMDL
ENDMDL
