REMARK  Name = No_3717-gen_results/8p0m/2024-11-26-14-13-15/
REMARK  4 active torsions:
REMARK  status: ('A' for Active; 'I' for Inactive)
REMARK    1  A    between atoms: C_3  and  C_11
REMARK    2  A    between atoms: C_5  and  C_6
REMARK    3  A    between atoms: C_12  and  C_13
REMARK    4  A    between atoms: C_14  and  C_15
REMARK                            x       y       z     vdW  Elec       q    Type
REMARK                         _______ _______ _______ _____ _____    ______ ____
ROOT
ATOM      1  C   UNL A   1     -28.016  -0.814  28.878  0.00  0.00    -0.000 A 
ATOM      2  C   UNL A   1     -27.064  -0.119  28.608  0.00  0.00    -0.000 A 
ATOM      3  C   UNL A   1     -26.972   0.714  27.506  0.00  0.00    -0.000 A 
ATOM      4  C   UNL A   1     -28.105   0.774  26.642  0.00  0.00    +0.004 A 
ATOM      5  C   UNL A   1     -29.204   0.118  27.048  0.00  0.00    +0.071 A 
ATOM      6  C   UNL A   1     -29.182  -0.676  28.117  0.00  0.00    +0.004 A 
ENDROOT
BRANCH   5   7
ATOM      7  C   UNL A   1     -30.349   0.257  26.220  0.00  0.00    +0.419 C 
ATOM      8  F   UNL A   1     -30.173  -0.173  25.043  0.00  0.00    -0.166 F 
ATOM      9  F   UNL A   1     -31.332  -0.569  26.704  0.00  0.00    -0.166 F 
ATOM     10  F   UNL A   1     -30.838   1.462  26.096  0.00  0.00    -0.166 F 
ENDBRANCH   5   7
BRANCH   3  11
ATOM     11  C   UNL A   1     -25.674   1.438  27.131  0.00  0.00    -0.000 C 
ATOM     12  C   UNL A   1     -24.566   1.038  27.801  0.00  0.00    -0.000 C 
BRANCH  12  13
ATOM     13  C   UNL A   1     -23.308   1.786  27.459  0.00  0.00    -0.000 C 
ATOM     14  C   UNL A   1     -22.111   1.534  28.242  0.00  0.00    +0.000 C 
BRANCH  14  15
ATOM     15  C   UNL A   1     -22.079   0.444  29.099  0.00  0.00    +0.000 C 
ATOM     16  C   UNL A   1     -23.201  -0.362  29.353  0.00  0.00    +0.000 C 
ENDBRANCH  14  15
ENDBRANCH  12  13
ENDBRANCH   3  11
TORSDOF 4
