MODEL 3717
MODEL 1
REMARK VINA RESULT:    -5.807      0.000      0.000
REMARK INTER + INTRA:          -7.808
REMARK INTER:                  -7.164
REMARK INTRA:                  -0.644
REMARK UNBOUND:                -0.644
REMARK  Name = No_3717-gen_results/8p0m/2024-11-26-14-13-15/
REMARK  4 active torsions:
REMARK  status: ('A' for Active; 'I' for Inactive)
REMARK    1  A    between atoms: C_3  and  C_11
REMARK    2  A    between atoms: C_5  and  C_6
REMARK    3  A    between atoms: C_12  and  C_13
REMARK    4  A    between atoms: C_14  and  C_15
REMARK                            x       y       z     vdW  Elec       q    Type
REMARK                         _______ _______ _______ _____ _____    ______ ____
ROOT
ATOM      1  C   UNL A   1     -23.015   2.266  26.313  0.00  0.00    -0.000 A 
ATOM      2  C   UNL A   1     -24.088   1.780  26.043  0.00  0.00    -0.000 A 
ATOM      3  C   UNL A   1     -24.596   0.614  26.590  0.00  0.00    -0.000 A 
ATOM      4  C   UNL A   1     -23.797  -0.043  27.571  0.00  0.00    +0.004 A 
ATOM      5  C   UNL A   1     -22.687   0.598  27.969  0.00  0.00    +0.071 A 
ATOM      6  C   UNL A   1     -22.273   1.709  27.361  0.00  0.00    +0.004 A 
ENDROOT
BRANCH   5   7
ATOM      7  C   UNL A   1     -21.947  -0.028  29.006  0.00  0.00    +0.419 C 
ATOM      8  F   UNL A   1     -22.025  -1.291  28.986  0.00  0.00    -0.166 F 
ATOM      9  F   UNL A   1     -20.613   0.201  28.782  0.00  0.00    -0.166 F 
ATOM     10  F   UNL A   1     -22.234   0.333  30.229  0.00  0.00    -0.166 F 
ENDBRANCH   5   7
BRANCH   3  11
ATOM     11  C   UNL A   1     -25.886  -0.037  26.080  0.00  0.00    -0.000 C 
ATOM     12  C   UNL A   1     -26.144   0.128  24.760  0.00  0.00    -0.000 C 
BRANCH  12  13
ATOM     13  C   UNL A   1     -27.434  -0.475  24.280  0.00  0.00    -0.000 C 
ATOM     14  C   UNL A   1     -28.593   0.387  24.126  0.00  0.00    +0.000 C 
BRANCH  14  15
ATOM     15  C   UNL A   1     -28.425   1.763  24.171  0.00  0.00    +0.000 C 
ATOM     16  C   UNL A   1     -29.177   2.651  23.385  0.00  0.00    +0.000 C 
ENDBRANCH  14  15
ENDBRANCH  12  13
ENDBRANCH   3  11
TORSDOF 4
ENDMDL
ENDMDL
