MODEL 3718
MODEL 1
REMARK VINA RESULT:    -4.548      0.000      0.000
REMARK INTER + INTRA:          -5.116
REMARK INTER:                  -5.080
REMARK INTRA:                  -0.037
REMARK UNBOUND:                -0.037
REMARK  Name = No_3718-gen_results/8p0m/2024-11-26-14-13-15/
REMARK  2 active torsions:
REMARK  status: ('A' for Active; 'I' for Inactive)
REMARK    1  A    between atoms: C_1  and  C_2
REMARK    2  A    between atoms: C_5  and  C_9
REMARK                            x       y       z     vdW  Elec       q    Type
REMARK                         _______ _______ _______ _____ _____    ______ ____
ROOT
ATOM      1  C   UNL A   1     -17.314 -22.106   8.325  0.00  0.00    -0.003 A 
ATOM      2  C   UNL A   1     -16.735 -21.395   7.400  0.00  0.00    -0.003 A 
ATOM      3  C   UNL A   1     -17.406 -20.474   6.450  0.00  0.00    +0.001 A 
ATOM      4  C   UNL A   1     -18.826 -20.403   6.536  0.00  0.00    +0.021 A 
ATOM      5  C   UNL A   1     -19.446 -21.195   7.469  0.00  0.00    +0.001 A 
ATOM      6  C   UNL A   1     -18.796 -22.035   8.308  0.00  0.00    -0.003 A 
ENDROOT
BRANCH   1   7
ATOM      7  C   UNL A   1     -16.798 -22.867   9.109  0.00  0.00    +0.136 C 
ATOM      8  N   UNL A   1     -16.001 -22.328  10.188  0.00  0.00    -0.126 NA
ENDBRANCH   1   7
BRANCH   4   9
ATOM      9  C   UNL A   1     -19.573 -19.531   5.678  0.00  0.00    +0.122 C 
ATOM     10  N   UNL A   1     -19.707 -18.291   5.767  0.00  0.00    -0.146 NA
ENDBRANCH   4   9
TORSDOF 2
ENDMDL
ENDMDL
