REMARK  Name = No_3718-gen_results/8p0m/2024-11-26-14-13-15/
REMARK  2 active torsions:
REMARK  status: ('A' for Active; 'I' for Inactive)
REMARK    1  A    between atoms: C_1  and  C_2
REMARK    2  A    between atoms: C_5  and  C_9
REMARK                            x       y       z     vdW  Elec       q    Type
REMARK                         _______ _______ _______ _____ _____    ______ ____
ROOT
ATOM      1  C   UNL A   1     -27.064  -0.119  28.608  0.00  0.00    -0.003 A 
ATOM      2  C   UNL A   1     -26.876   1.133  28.913  0.00  0.00    -0.003 A 
ATOM      3  C   UNL A   1     -25.688   1.952  28.567  0.00  0.00    +0.001 A 
ATOM      4  C   UNL A   1     -24.639   1.283  27.875  0.00  0.00    +0.021 A 
ATOM      5  C   UNL A   1     -24.807  -0.051  27.604  0.00  0.00    +0.001 A 
ATOM      6  C   UNL A   1     -25.902  -0.767  27.951  0.00  0.00    -0.003 A 
ENDROOT
BRANCH   1   7
ATOM      7  C   UNL A   1     -28.016  -0.814  28.878  0.00  0.00    +0.136 C 
ATOM      8  N   UNL A   1     -27.998  -1.583  30.102  0.00  0.00    -0.126 NA
ENDBRANCH   1   7
BRANCH   4   9
ATOM      9  C   UNL A   1     -23.454   1.985  27.477  0.00  0.00    +0.122 C 
ATOM     10  N   UNL A   1     -22.264   1.628  27.616  0.00  0.00    -0.146 NA
ENDBRANCH   4   9
TORSDOF 2
