REMARK  Name = No_3719-gen_results/8p0m/2024-11-26-14-13-15/
REMARK  5 active torsions:
REMARK  status: ('A' for Active; 'I' for Inactive)
REMARK    1  A    between atoms: C_2  and  C_11
REMARK    2  A    between atoms: C_6  and  C_8
REMARK    3  A    between atoms: C_11  and  N_12
REMARK    4  A    between atoms: N_12  and  C_13
REMARK    5  A    between atoms: C_13  and  N_14
REMARK                            x       y       z     vdW  Elec       q    Type
REMARK                         _______ _______ _______ _____ _____    ______ ____
ROOT
ATOM      1  C   UNL A   1     -28.016  -0.814  28.878  0.00  0.00    +0.004 A 
ATOM      2  C   UNL A   1     -27.064  -0.119  28.608  0.00  0.00    +0.002 A 
ATOM      3  C   UNL A   1     -25.765  -0.390  29.036  0.00  0.00    +0.032 A 
ATOM      4  C   UNL A   1     -25.530  -1.530  29.901  0.00  0.00    +0.007 A 
ATOM      5  C   UNL A   1     -26.658  -2.292  30.203  0.00  0.00    +0.007 A 
ATOM      6  C   UNL A   1     -27.843  -1.975  29.751  0.00  0.00    +0.080 A 
ATOM      7 BR   UNL A   1     -24.244   0.652  28.644  0.00  0.00    -0.049 Br
ENDROOT
BRANCH   6   8
ATOM      8  C   UNL A   1     -28.987  -2.852  30.182  0.00  0.00    +0.388 C 
ATOM      9  O   UNL A   1     -28.869  -4.072  30.202  0.00  0.00    -0.241 OA
ATOM     10  O   UNL A   1     -30.098  -2.341  30.490  0.00  0.00    -0.241 OA
ENDBRANCH   6   8
BRANCH   2  11
ATOM     11  C   UNL A   1     -27.181   1.089  27.658  0.00  0.00    +0.118 C 
BRANCH  11  12
ATOM     12  N   UNL A   1     -27.059   0.965  26.387  0.00  0.00    -0.189 NA
BRANCH  12  13
ATOM     13  C   UNL A   1     -27.617   0.322  25.679  0.00  0.00    +0.217 C 
BRANCH  13  14
ATOM     14  N   UNL A   1     -28.707  -0.253  25.904  0.00  0.00    -0.232 NA
ATOM     15  C   UNL A   1     -29.609  -0.701  24.956  0.00  0.00    +0.202 C 
ATOM     16  N   UNL A   1     -30.798  -1.276  25.165  0.00  0.00    -0.104 NA
ENDBRANCH  13  14
ENDBRANCH  12  13
ENDBRANCH  11  12
ENDBRANCH   2  11
TORSDOF 5
