MODEL 3719
MODEL 1
REMARK VINA RESULT:    -5.389      0.000      0.000
REMARK INTER + INTRA:          -7.435
REMARK INTER:                  -6.964
REMARK INTRA:                  -0.471
REMARK UNBOUND:                -0.471
REMARK  Name = No_3719-gen_results/8p0m/2024-11-26-14-13-15/
REMARK  5 active torsions:
REMARK  status: ('A' for Active; 'I' for Inactive)
REMARK    1  A    between atoms: C_2  and  C_11
REMARK    2  A    between atoms: C_6  and  C_8
REMARK    3  A    between atoms: C_11  and  N_12
REMARK    4  A    between atoms: N_12  and  C_13
REMARK    5  A    between atoms: C_13  and  N_14
REMARK                            x       y       z     vdW  Elec       q    Type
REMARK                         _______ _______ _______ _____ _____    ______ ____
ROOT
ATOM      1  C   UNL A   1     -28.254 -11.663  31.410  0.00  0.00    +0.004 A 
ATOM      2  C   UNL A   1     -29.078 -11.223  30.642  0.00  0.00    +0.002 A 
ATOM      3  C   UNL A   1     -29.915 -10.149  30.941  0.00  0.00    +0.032 A 
ATOM      4  C   UNL A   1     -29.851  -9.551  32.261  0.00  0.00    +0.007 A 
ATOM      5  C   UNL A   1     -28.902 -10.102  33.121  0.00  0.00    +0.007 A 
ATOM      6  C   UNL A   1     -28.146 -11.105  32.758  0.00  0.00    +0.080 A 
ATOM      7 BR   UNL A   1     -31.212  -9.417  29.786  0.00  0.00    -0.049 Br
ENDROOT
BRANCH   6   8
ATOM      8  C   UNL A   1     -27.190 -11.638  33.790  0.00  0.00    +0.388 C 
ATOM      9  O   UNL A   1     -26.795 -12.798  33.739  0.00  0.00    -0.241 OA
ATOM     10  O   UNL A   1     -26.814 -10.906  34.746  0.00  0.00    -0.241 OA
ENDBRANCH   6   8
BRANCH   2  11
ATOM     11  C   UNL A   1     -29.204 -11.743  29.197  0.00  0.00    +0.118 C 
BRANCH  11  12
ATOM     12  N   UNL A   1     -29.423 -12.981  28.940  0.00  0.00    -0.189 NA
BRANCH  12  13
ATOM     13  C   UNL A   1     -30.364 -13.562  28.996  0.00  0.00    +0.217 C 
BRANCH  13  14
ATOM     14  N   UNL A   1     -30.537 -14.630  29.628  0.00  0.00    -0.232 NA
ATOM     15  C   UNL A   1     -29.874 -15.018  30.779  0.00  0.00    +0.202 C 
ATOM     16  N   UNL A   1     -30.004 -16.167  31.450  0.00  0.00    -0.104 NA
ENDBRANCH  13  14
ENDBRANCH  12  13
ENDBRANCH  11  12
ENDBRANCH   2  11
TORSDOF 5
ENDMDL
ENDMDL
