MODEL 371
MODEL 1
REMARK VINA RESULT:    -5.113      0.000      0.000
REMARK INTER + INTRA:          -7.747
REMARK INTER:                  -6.309
REMARK INTRA:                  -1.439
REMARK UNBOUND:                -1.439
REMARK  Name = No_371-gen_results/8p0m/2024-11-26-14-13-15/
REMARK  4 active torsions:
REMARK  status: ('A' for Active; 'I' for Inactive)
REMARK    1  A    between atoms: C_2  and  C_8
REMARK    2  A    between atoms: C_8  and  C_9
REMARK    3  A    between atoms: C_10  and  C_11
REMARK    4  A    between atoms: C_12  and  C_13
REMARK                            x       y       z     vdW  Elec       q    Type
REMARK                         _______ _______ _______ _____ _____    ______ ____
ROOT
ATOM      1  C   UNL A   1     -24.348   0.678  25.166  0.00  0.00    -0.003 A 
ATOM      2  C   UNL A   1     -24.472   1.605  25.933  0.00  0.00    -0.018 A 
ATOM      3  C   UNL A   1     -25.671   2.215  26.259  0.00  0.00    -0.003 A 
ATOM      4  C   UNL A   1     -26.852   1.684  25.664  0.00  0.00    +0.006 A 
ATOM      5  C   UNL A   1     -26.696   0.560  24.935  0.00  0.00    +0.035 A 
ATOM      6  C   UNL A   1     -25.498   0.000  24.753  0.00  0.00    +0.006 A 
ATOM      7 BR   UNL A   1     -28.257  -0.170  24.225  0.00  0.00    -0.049 Br
ENDROOT
BRANCH   2   8
ATOM      8  C   UNL A   1     -23.202   2.367  26.523  0.00  0.00    +0.052 C 
BRANCH   8   9
ATOM      9  C   UNL A   1     -22.183   1.774  27.050  0.00  0.00    -0.021 C 
ATOM     10  C   UNL A   1     -22.527   1.184  28.408  0.00  0.00    -0.004 C 
BRANCH  10  11
ATOM     11  C   UNL A   1     -22.057  -0.030  28.864  0.00  0.00    -0.000 C 
ATOM     12  C   UNL A   1     -23.000  -1.147  28.829  0.00  0.00    -0.000 C 
BRANCH  12  13
ATOM     13  C   UNL A   1     -24.149  -0.804  28.781  0.00  0.00    -0.000 C 
ATOM     14  C   UNL A   1     -25.274  -1.303  28.220  0.00  0.00    -0.000 C 
ENDBRANCH  12  13
ENDBRANCH  10  11
ENDBRANCH   8   9
ENDBRANCH   2   8
TORSDOF 4
ENDMDL
ENDMDL
