REMARK  Name = No_372-gen_results/8p0m/2024-11-26-14-13-15/
REMARK  6 active torsions:
REMARK  status: ('A' for Active; 'I' for Inactive)
REMARK    1  A    between atoms: C_2  and  C_7
REMARK    2  A    between atoms: C_4  and  C_10
REMARK    3  A    between atoms: C_10  and  C_11
REMARK    4  A    between atoms: C_10  and  C_12
REMARK    5  A    between atoms: C_12  and  C_14
REMARK    6  A    between atoms: C_14  and  C_15
REMARK                            x       y       z     vdW  Elec       q    Type
REMARK                         _______ _______ _______ _____ _____    ______ ____
ROOT
ATOM      1  C   UNL A   1     -24.391  -1.201  30.287  0.00  0.00    +0.023 C 
ENDROOT
BRANCH   1   5
ATOM      2  C   UNL A   1     -28.016  -0.814  28.878  0.00  0.00    +0.006 A 
ATOM      3  C   UNL A   1     -28.469  -0.785  29.829  0.00  0.00    +0.080 A 
ATOM      4  C   UNL A   1     -26.546  -0.876  28.850  0.00  0.00    -0.004 A 
ATOM      5  C   UNL A   1     -25.804  -1.032  30.057  0.00  0.00    -0.022 A 
ATOM      6  C   UNL A   1     -27.944  -0.987  31.207  0.00  0.00    +0.006 A 
ATOM      7  C   UNL A   1     -26.582  -1.039  31.223  0.00  0.00    -0.004 A 
BRANCH   3   8
ATOM      8  C   UNL A   1     -30.061  -0.737  29.902  0.00  0.00    +0.388 C 
ATOM      9  O   UNL A   1     -30.605   0.086  30.707  0.00  0.00    -0.241 OA
ATOM     10  O   UNL A   1     -30.616  -1.103  28.860  0.00  0.00    -0.241 OA
ENDBRANCH   3   8
ENDBRANCH   1   5
BRANCH   1  11
ATOM     11  C   UNL A   1     -23.720  -1.935  29.380  0.00  0.00    +0.004 C 
ATOM     12  C   UNL A   1     -24.300  -2.794  28.499  0.00  0.00    +0.000 C 
ENDBRANCH   1  11
BRANCH   1  13
ATOM     13  C   UNL A   1     -23.683  -0.450  31.233  0.00  0.00    +0.009 C 
BRANCH  13  14
ATOM     14  C   UNL A   1     -23.377   0.947  31.001  0.00  0.00    +0.027 C 
BRANCH  14  15
ATOM     15  C   UNL A   1     -24.343   1.950  31.387  0.00  0.00    -0.022 A 
ATOM     16  C   UNL A   1     -24.595   2.123  32.561  0.00  0.00    -0.004 A 
ATOM     17  C   UNL A   1     -25.638   3.212  32.931  0.00  0.00    -0.000 A 
ATOM     18  C   UNL A   1     -26.127   3.980  31.893  0.00  0.00    -0.000 A 
ATOM     19  C   UNL A   1     -24.852   2.851  30.323  0.00  0.00    -0.004 A 
ATOM     20  C   UNL A   1     -25.759   3.788  30.621  0.00  0.00    -0.000 A 
ENDBRANCH  14  15
ENDBRANCH  13  14
ENDBRANCH   1  13
TORSDOF 6
