MODEL 3720
MODEL 1
REMARK VINA RESULT:    -5.171      0.000      0.000
REMARK INTER + INTRA:          -5.944
REMARK INTER:                  -5.775
REMARK INTRA:                  -0.169
REMARK UNBOUND:                -0.169
REMARK  Name = No_3720-gen_results/8p0m/2024-11-26-14-13-15/
REMARK  2 active torsions:
REMARK  status: ('A' for Active; 'I' for Inactive)
REMARK    1  A    between atoms: C_2  and  C_7
REMARK    2  A    between atoms: C_7  and  C_8
REMARK                            x       y       z     vdW  Elec       q    Type
REMARK                         _______ _______ _______ _____ _____    ______ ____
ROOT
ATOM      1  C   UNL A   1     -25.851  -2.943  29.842  0.00  0.00    -0.004 A 
ATOM      2  C   UNL A   1     -24.774  -2.625  29.393  0.00  0.00    -0.018 A 
ATOM      3  C   UNL A   1     -23.898  -3.499  28.834  0.00  0.00    -0.004 A 
ATOM      4  C   UNL A   1     -24.259  -4.858  28.771  0.00  0.00    -0.000 A 
ATOM      5  C   UNL A   1     -26.324  -4.298  29.724  0.00  0.00    -0.000 A 
ATOM      6  C   UNL A   1     -25.470  -5.220  29.197  0.00  0.00    -0.000 A 
ENDROOT
BRANCH   2   7
ATOM      7  C   UNL A   1     -24.280  -1.189  29.398  0.00  0.00    +0.054 C 
BRANCH   7   8
ATOM      8  C   UNL A   1     -22.862  -1.037  28.933  0.00  0.00    -0.002 C 
ATOM      9  C   UNL A   1     -22.269   0.099  28.967  0.00  0.00    +0.102 C 
ATOM     10  N   UNL A   1     -20.990   0.037  28.568  0.00  0.00    -0.127 NA
ENDBRANCH   7   8
ENDBRANCH   2   7
TORSDOF 2
ENDMDL
ENDMDL
