REMARK  Name = No_3721-gen_results/8p0m/2024-11-26-14-13-15/
REMARK  6 active torsions:
REMARK  status: ('A' for Active; 'I' for Inactive)
REMARK    1  A    between atoms: C_2  and  C_8
REMARK    2  A    between atoms: N_10  and  C_11
REMARK    3  A    between atoms: N_17  and  C_18
REMARK    4  A    between atoms: N_17  and  C_24
REMARK    5  A    between atoms: C_29  and  P_30
REMARK    6  A    between atoms: P_30  and  O_33
REMARK                            x       y       z     vdW  Elec       q    Type
REMARK                         _______ _______ _______ _____ _____    ______ ____
ROOT
ATOM      1  C   UNL A   1     -31.779  -1.639  31.041  0.00  0.00    +0.093 A 
ATOM      2  C   UNL A   1     -32.730  -1.596  30.385  0.00  0.00    +0.117 A 
ATOM      3  N   UNL A   1     -34.046  -2.091  30.669  0.00  0.00    -0.227 NA
ATOM      4  C   UNL A   1     -32.232  -2.329  32.379  0.00  0.00    +0.021 A 
ATOM      5  C   UNL A   1     -33.425  -2.780  32.725  0.00  0.00    +0.036 A 
ATOM      6  C   UNL A   1     -34.367  -2.599  31.753  0.00  0.00    +0.139 A 
ATOM      7  N   UNL A   1     -35.651  -3.003  31.924  0.00  0.00    -0.251 N 
ENDROOT
BRANCH   7   8
ATOM      8  C   UNL A   1     -35.996  -4.058  32.543  0.00  0.00    +0.058 A 
ATOM      9  C   UNL A   1     -36.494  -5.110  32.157  0.00  0.00    +0.027 A 
ATOM     10  C   UNL A   1     -36.842  -6.282  32.937  0.00  0.00    +0.059 A 
ATOM     11  C   UNL A   1     -36.561  -6.229  34.319  0.00  0.00    +0.011 A 
ATOM     12  C   UNL A   1     -35.993  -5.092  34.824  0.00  0.00    +0.002 A 
ATOM     13  C   UNL A   1     -35.667  -3.982  34.065  0.00  0.00    +0.015 A 
ATOM     14 CL   UNL A   1     -37.613  -7.576  32.236  0.00  0.00    -0.082 Cl
ENDBRANCH   7   8
BRANCH   7  15
ATOM     15  C   UNL A   1     -36.743  -2.282  31.328  0.00  0.00    +0.057 A 
ATOM     16  C   UNL A   1     -37.137  -2.626  30.068  0.00  0.00    +0.015 A 
ATOM     17  C   UNL A   1     -38.099  -1.991  29.525  0.00  0.00    +0.009 A 
ATOM     18  C   UNL A   1     -37.277  -1.273  32.058  0.00  0.00    +0.015 A 
ATOM     19  C   UNL A   1     -38.331  -0.556  31.537  0.00  0.00    +0.009 A 
ATOM     20  C   UNL A   1     -38.757  -0.905  30.243  0.00  0.00    +0.082 A 
BRANCH  20  21
ATOM     21  P   UNL A   1     -40.126  -0.030  29.485  0.00  0.00    +0.392 P 
ATOM     22  O   UNL A   1     -40.664  -0.741  28.435  0.00  0.00    -0.251 OA
ATOM     23  O   UNL A   1     -40.538   0.525  30.451  0.00  0.00    -0.136 OA
BRANCH  21  24
ATOM     24  O   UNL A   1     -39.036   1.022  28.690  0.00  0.00    -0.287 OA
ATOM     25  C   UNL A   1     -39.428   1.866  27.848  0.00  0.00    +0.184 C 
ENDBRANCH  21  24
ENDBRANCH  20  21
ENDBRANCH   7  15
BRANCH   1  28
ATOM     26  C   UNL A   1     -30.095  -0.841  29.850  0.00  0.00    +0.269 C 
ATOM     27  O   UNL A   1     -30.524  -0.469  28.926  0.00  0.00    -0.268 OA
ATOM     28  N   UNL A   1     -30.780  -1.330  30.928  0.00  0.00    -0.174 NA
BRANCH  26  30
ATOM     29  C   UNL A   1     -28.016  -0.814  28.878  0.00  0.00    +0.007 A 
ATOM     30  C   UNL A   1     -28.469  -0.785  29.829  0.00  0.00    +0.056 A 
ATOM     31  C   UNL A   1     -26.504  -0.778  28.877  0.00  0.00    +0.030 A 
ATOM     32  C   UNL A   1     -25.810  -0.853  30.103  0.00  0.00    +0.140 A 
ATOM     33  C   UNL A   1     -27.991  -0.892  31.226  0.00  0.00    +0.007 A 
ATOM     34  C   UNL A   1     -26.604  -0.868  31.265  0.00  0.00    +0.030 A 
ATOM     35  F   UNL A   1     -24.553  -0.787  30.141  0.00  0.00    -0.204 F 
ENDBRANCH  26  30
ENDBRANCH   1  28
TORSDOF 6
