MODEL 3721
MODEL 1
REMARK VINA RESULT:    -7.430      0.000      0.000
REMARK INTER + INTRA:         -11.459
REMARK INTER:                 -10.036
REMARK INTRA:                  -1.423
REMARK UNBOUND:                -1.423
REMARK  Name = No_3721-gen_results/8p0m/2024-11-26-14-13-15/
REMARK  6 active torsions:
REMARK  status: ('A' for Active; 'I' for Inactive)
REMARK    1  A    between atoms: C_2  and  C_8
REMARK    2  A    between atoms: N_10  and  C_11
REMARK    3  A    between atoms: N_17  and  C_18
REMARK    4  A    between atoms: N_17  and  C_24
REMARK    5  A    between atoms: C_29  and  P_30
REMARK    6  A    between atoms: P_30  and  O_33
REMARK                            x       y       z     vdW  Elec       q    Type
REMARK                         _______ _______ _______ _____ _____    ______ ____
ROOT
ATOM      1  C   UNL A   1     -21.501 -17.299   5.864  0.00  0.00    +0.093 A 
ATOM      2  C   UNL A   1     -21.013 -17.922   6.708  0.00  0.00    +0.117 A 
ATOM      3  N   UNL A   1     -20.581 -19.289   6.687  0.00  0.00    -0.227 NA
ATOM      4  C   UNL A   1     -21.560 -18.262   4.623  0.00  0.00    +0.021 A 
ATOM      5  C   UNL A   1     -21.156 -19.516   4.517  0.00  0.00    +0.036 A 
ATOM      6  C   UNL A   1     -20.616 -20.003   5.674  0.00  0.00    +0.139 A 
ATOM      7  N   UNL A   1     -20.150 -21.274   5.760  0.00  0.00    -0.251 N 
ENDROOT
BRANCH   7   8
ATOM      8  C   UNL A   1     -20.679 -22.274   5.182  0.00  0.00    +0.058 A 
ATOM      9  C   UNL A   1     -20.276 -23.015   4.291  0.00  0.00    +0.027 A 
ATOM     10  C   UNL A   1     -20.945 -24.156   3.697  0.00  0.00    +0.059 A 
ATOM     11  C   UNL A   1     -22.218 -24.482   4.212  0.00  0.00    +0.011 A 
ATOM     12  C   UNL A   1     -22.731 -23.710   5.216  0.00  0.00    +0.002 A 
ATOM     13  C   UNL A   1     -22.079 -22.623   5.772  0.00  0.00    +0.015 A 
ATOM     14 CL   UNL A   1     -20.269 -24.971   2.417  0.00  0.00    -0.082 Cl
ENDBRANCH   7   8
BRANCH   7  15
ATOM     15  C   UNL A   1     -19.033 -21.601   6.605  0.00  0.00    +0.057 A 
ATOM     16  C   UNL A   1     -19.272 -22.287   7.760  0.00  0.00    +0.015 A 
ATOM     17  C   UNL A   1     -18.292 -22.577   8.521  0.00  0.00    +0.009 A 
ATOM     18  C   UNL A   1     -17.817 -21.158   6.204  0.00  0.00    +0.015 A 
ATOM     19  C   UNL A   1     -16.712 -21.451   6.973  0.00  0.00    +0.009 A 
ATOM     20  C   UNL A   1     -16.939 -22.168   8.162  0.00  0.00    +0.082 A 
BRANCH  20  21
ATOM     21  P   UNL A   1     -15.561 -22.599   9.224  0.00  0.00    +0.392 P 
ATOM     22  O   UNL A   1     -14.364 -22.562   8.543  0.00  0.00    -0.251 OA
ATOM     23  O   UNL A   1     -15.984 -22.168  10.247  0.00  0.00    -0.136 OA
BRANCH  21  24
ATOM     24  O   UNL A   1     -15.982 -24.254   9.127  0.00  0.00    -0.287 OA
ATOM     25  C   UNL A   1     -15.543 -24.995   8.214  0.00  0.00    +0.184 C 
ENDBRANCH  21  24
ENDBRANCH  20  21
ENDBRANCH   7  15
BRANCH   1  28
ATOM     26  C   UNL A   1     -23.092 -15.773   6.039  0.00  0.00    +0.269 C 
ATOM     27  O   UNL A   1     -23.894 -16.233   6.606  0.00  0.00    -0.268 OA
ATOM     28  N   UNL A   1     -21.864 -16.316   5.777  0.00  0.00    -0.174 NA
BRANCH  26  30
ATOM     29  C   UNL A   1     -22.783 -13.803   4.903  0.00  0.00    +0.007 A 
ATOM     30  C   UNL A   1     -23.512 -14.306   5.474  0.00  0.00    +0.056 A 
ATOM     31  C   UNL A   1     -23.183 -12.434   4.400  0.00  0.00    +0.030 A 
ATOM     32  C   UNL A   1     -24.403 -11.869   4.828  0.00  0.00    +0.140 A 
ATOM     33  C   UNL A   1     -24.813 -13.941   6.077  0.00  0.00    +0.007 A 
ATOM     34  C   UNL A   1     -25.211 -12.685   5.641  0.00  0.00    +0.030 A 
ATOM     35  F   UNL A   1     -24.784 -10.749   4.398  0.00  0.00    -0.204 F 
ENDBRANCH  26  30
ENDBRANCH   1  28
TORSDOF 6
ENDMDL
ENDMDL
