REMARK  Name = No_3722-gen_results/8p0m/2024-11-26-14-13-15/
REMARK  5 active torsions:
REMARK  status: ('A' for Active; 'I' for Inactive)
REMARK    1  A    between atoms: C_2  and  C_4
REMARK    2  A    between atoms: C_16  and  N_22
REMARK    3  A    between atoms: C_23  and  C_25
REMARK    4  A    between atoms: N_27  and  C_28
REMARK    5  A    between atoms: C_28  and  C_29
REMARK                            x       y       z     vdW  Elec       q    Type
REMARK                         _______ _______ _______ _____ _____    ______ ____
ROOT
ATOM      1  O   UNL A   1     -28.123  -1.335  28.487  0.00  0.00    -0.270 OA
ATOM      2  C   UNL A   1     -27.481  -0.404  28.709  0.00  0.00    +0.249 C 
ATOM      3  N   UNL A   1     -27.241   0.391  29.510  0.00  0.00    -0.276 N 
ATOM      4  C   UNL A   1     -28.109   0.017  30.805  0.00  0.00    +0.094 C 
ATOM      5  C   UNL A   1     -28.765   1.200  31.259  0.00  0.00    +0.022 C 
ATOM      6  C   UNL A   1     -28.665   2.108  30.779  0.00  0.00    +0.005 C 
ATOM      7  C   UNL A   1     -27.741   2.606  29.782  0.00  0.00    +0.037 C 
ATOM      8  C   UNL A   1     -26.559   1.474  29.988  0.00  0.00    +0.095 C 
ATOM      9  C   UNL A   1     -28.022   2.772  28.407  0.00  0.00    +0.097 C 
ATOM     10  C   UNL A   1     -27.483   3.943  27.736  0.00  0.00    +0.020 C 
ATOM     11  C   UNL A   1     -26.990   3.876  30.203  0.00  0.00    +0.003 C 
ATOM     12  C   UNL A   1     -26.467   4.847  29.432  0.00  0.00    +0.000 C 
ATOM     13  C   UNL A   1     -26.826   4.920  28.162  0.00  0.00    +0.002 C 
ATOM     14  C   UNL A   1     -27.916   3.923  26.199  0.00  0.00    +0.002 C 
ENDROOT
BRANCH   2  15
ATOM     15  C   UNL A   1     -26.642   0.119  27.349  0.00  0.00    +0.054 A 
ATOM     16  C   UNL A   1     -26.872   0.060  26.331  0.00  0.00    +0.005 A 
ATOM     17  C   UNL A   1     -25.961   0.595  25.264  0.00  0.00    +0.001 A 
ATOM     18  C   UNL A   1     -24.709   1.062  25.674  0.00  0.00    +0.011 A 
ATOM     19  C   UNL A   1     -24.412   1.111  26.992  0.00  0.00    +0.058 A 
ATOM     20  C   UNL A   1     -25.301   0.689  27.905  0.00  0.00    +0.016 A 
ATOM     21 CL   UNL A   1     -22.929   1.913  27.296  0.00  0.00    -0.082 Cl
ENDBRANCH   2  15
BRANCH   9  22
ATOM     22  N   UNL A   1     -29.265   2.433  28.091  0.00  0.00    -0.200 NA
ATOM     23  C   UNL A   1     -30.443   2.716  27.875  0.00  0.00    +0.320 C 
ATOM     24  O   UNL A   1     -30.739   3.909  28.061  0.00  0.00    -0.263 OA
BRANCH  23  25
ATOM     25  C   UNL A   1     -31.296   1.870  27.097  0.00  0.00    +0.320 C 
ATOM     26  O   UNL A   1     -31.214   1.484  26.061  0.00  0.00    -0.263 OA
ATOM     27  N   UNL A   1     -32.502   1.674  27.785  0.00  0.00    -0.198 NA
BRANCH  27  28
ATOM     28  C   UNL A   1     -33.531   0.758  27.271  0.00  0.00    +0.116 C 
BRANCH  28  29
ATOM     29  C   UNL A   1     -33.358  -0.114  26.523  0.00  0.00    +0.023 C 
ATOM     30  C   UNL A   1     -32.164  -0.666  26.296  0.00  0.00    +0.002 C 
ENDBRANCH  28  29
ENDBRANCH  27  28
ENDBRANCH  23  25
ENDBRANCH   9  22
TORSDOF 5
