MODEL 3723
MODEL 1
REMARK VINA RESULT:    -6.519      0.000      0.000
REMARK INTER + INTRA:          -7.215
REMARK INTER:                  -6.900
REMARK INTRA:                  -0.315
REMARK UNBOUND:                -0.315
REMARK  Name = No_3723-gen_results/8p0m/2024-11-26-14-13-15/
REMARK  1 active torsions:
REMARK  status: ('A' for Active; 'I' for Inactive)
REMARK    1  A    between atoms: C_3  and  C_7
REMARK                            x       y       z     vdW  Elec       q    Type
REMARK                         _______ _______ _______ _____ _____    ______ ____
ROOT
ATOM      1  C   UNL A   1     -24.737  -4.944  28.982  0.00  0.00    +0.000 A 
ATOM      2  C   UNL A   1     -24.124  -3.936  28.718  0.00  0.00    +0.000 A 
ATOM      3  C   UNL A   1     -24.575  -2.654  29.031  0.00  0.00    +0.000 A 
ATOM      4  C   UNL A   1     -25.874  -2.496  29.656  0.00  0.00    +0.000 A 
ATOM      5  C   UNL A   1     -26.555  -3.683  29.925  0.00  0.00    +0.000 A 
ATOM      6  C   UNL A   1     -26.058  -4.856  29.583  0.00  0.00    +0.000 A 
ENDROOT
BRANCH   3   7
ATOM      7  C   UNL A   1     -23.873  -1.370  28.746  0.00  0.00    +0.000 A 
ATOM      8  C   UNL A   1     -24.343  -0.499  27.903  0.00  0.00    +0.000 A 
ATOM      9  C   UNL A   1     -23.616   0.696  27.579  0.00  0.00    +0.000 A 
ATOM     10  C   UNL A   1     -22.361   0.942  28.018  0.00  0.00    +0.000 A 
ATOM     11  C   UNL A   1     -22.508  -1.155  29.251  0.00  0.00    +0.000 A 
ATOM     12  C   UNL A   1     -21.790   0.016  28.868  0.00  0.00    +0.000 A 
ENDBRANCH   3   7
TORSDOF 1
ENDMDL
ENDMDL
