REMARK  Name = No_3724-gen_results/8p0m/2024-11-26-14-13-15/
REMARK  8 active torsions:
REMARK  status: ('A' for Active; 'I' for Inactive)
REMARK    1  A    between atoms: C_4  and  C_6
REMARK    2  A    between atoms: C_6  and  C_8
REMARK    3  A    between atoms: C_6  and  C_14
REMARK    4  A    between atoms: C_14  and  N_15
REMARK    5  A    between atoms: C_14  and  C_28
REMARK    6  A    between atoms: C_16  and  C_18
REMARK    7  A    between atoms: C_18  and  C_20
REMARK    8  A    between atoms: C_20  and  C_21
REMARK                            x       y       z     vdW  Elec       q    Type
REMARK                         _______ _______ _______ _____ _____    ______ ____
ROOT
ATOM      1  C   UNL A   1     -29.383   3.779  28.500  0.00  0.00    +0.126 C 
ENDROOT
BRANCH   1   2
ATOM      2  C   UNL A   1     -30.843   4.294  28.447  0.00  0.00    -0.002 A 
ATOM      3  C   UNL A   1     -30.954   5.513  29.008  0.00  0.00    -0.003 A 
ATOM      4  C   UNL A   1     -32.209   6.206  28.876  0.00  0.00    -0.000 A 
ATOM      5  C   UNL A   1     -33.242   5.525  28.306  0.00  0.00    -0.000 A 
ATOM      6  C   UNL A   1     -33.086   4.274  27.735  0.00  0.00    -0.000 A 
ATOM      7  C   UNL A   1     -31.832   3.651  27.792  0.00  0.00    -0.003 A 
ENDBRANCH   1   2
BRANCH   1   8
ATOM      8  N   UNL A   1     -28.499   4.641  28.526  0.00  0.00    -0.201 NA
ATOM      9  C   UNL A   1     -27.647   4.846  29.219  0.00  0.00    +0.257 C 
ATOM     10  O   UNL A   1     -27.611   4.453  30.385  0.00  0.00    -0.272 OA
BRANCH   9  11
ATOM     11  C   UNL A   1     -26.442   5.763  28.743  0.00  0.00    +0.162 C 
ATOM     12 CL   UNL A   1     -25.126   5.898  29.293  0.00  0.00    -0.105 Cl
BRANCH  11  13
ATOM     13  C   UNL A   1     -26.797   6.514  27.489  0.00  0.00    +0.052 C 
BRANCH  13  14
ATOM     14  C   UNL A   1     -27.067   7.718  27.668  0.00  0.00    -0.021 A 
ATOM     15  C   UNL A   1     -27.040   8.400  28.768  0.00  0.00    -0.004 A 
ATOM     16  C   UNL A   1     -27.405   9.845  28.842  0.00  0.00    -0.000 A 
ATOM     17  C   UNL A   1     -27.796  10.398  27.616  0.00  0.00    -0.000 A 
ATOM     18  C   UNL A   1     -27.865   9.781  26.442  0.00  0.00    -0.000 A 
ATOM     19  C   UNL A   1     -27.515   8.392  26.416  0.00  0.00    -0.004 A 
ENDBRANCH  13  14
ENDBRANCH  11  13
ENDBRANCH   9  11
ENDBRANCH   1   8
BRANCH   1  20
ATOM     20  C   UNL A   1     -29.224   2.492  27.543  0.00  0.00    +0.069 C 
BRANCH  20  24
ATOM     21  C   UNL A   1     -28.016  -0.814  28.878  0.00  0.00    +0.011 A 
ATOM     22  C   UNL A   1     -28.469  -0.785  29.829  0.00  0.00    +0.058 A 
ATOM     23  C   UNL A   1     -28.196   0.348  28.055  0.00  0.00    -0.003 A 
ATOM     24  C   UNL A   1     -29.019   1.350  28.378  0.00  0.00    -0.016 A 
ATOM     25  C   UNL A   1     -29.411   0.180  30.378  0.00  0.00    +0.011 A 
ATOM     26  C   UNL A   1     -29.587   1.224  29.619  0.00  0.00    -0.003 A 
ATOM     27 CL   UNL A   1     -28.212  -2.273  30.898  0.00  0.00    -0.082 Cl
ENDBRANCH  20  24
BRANCH  20  28
ATOM     28  C   UNL A   1     -29.230   2.769  26.451  0.00  0.00    -0.016 A 
ATOM     29  C   UNL A   1     -28.908   1.624  25.504  0.00  0.00    -0.004 A 
ATOM     30  C   UNL A   1     -29.043   1.797  24.127  0.00  0.00    -0.000 A 
ATOM     31  C   UNL A   1     -29.494   3.056  23.676  0.00  0.00    -0.000 A 
ATOM     32  C   UNL A   1     -29.894   4.048  24.503  0.00  0.00    -0.000 A 
ATOM     33  C   UNL A   1     -29.792   3.930  25.858  0.00  0.00    -0.004 A 
ENDBRANCH  20  28
ENDBRANCH   1  20
TORSDOF 8
