MODEL 3724
MODEL 1
REMARK VINA RESULT:    -8.948      0.000      0.000
REMARK INTER + INTRA:         -16.344
REMARK INTER:                 -13.133
REMARK INTRA:                  -3.211
REMARK UNBOUND:                -3.211
REMARK  Name = No_3724-gen_results/8p0m/2024-11-26-14-13-15/
REMARK  8 active torsions:
REMARK  status: ('A' for Active; 'I' for Inactive)
REMARK    1  A    between atoms: C_4  and  C_6
REMARK    2  A    between atoms: C_6  and  C_8
REMARK    3  A    between atoms: C_6  and  C_14
REMARK    4  A    between atoms: C_14  and  N_15
REMARK    5  A    between atoms: C_14  and  C_28
REMARK    6  A    between atoms: C_16  and  C_18
REMARK    7  A    between atoms: C_18  and  C_20
REMARK    8  A    between atoms: C_20  and  C_21
REMARK                            x       y       z     vdW  Elec       q    Type
REMARK                         _______ _______ _______ _____ _____    ______ ____
ROOT
ATOM      1  C   UNL A   1     -24.983  -1.249  28.880  0.00  0.00    +0.126 C 
ENDROOT
BRANCH   1   2
ATOM      2  C   UNL A   1     -24.912  -2.789  29.027  0.00  0.00    -0.002 A 
ATOM      3  C   UNL A   1     -26.008  -3.274  29.640  0.00  0.00    -0.003 A 
ATOM      4  C   UNL A   1     -26.178  -4.703  29.690  0.00  0.00    -0.000 A 
ATOM      5  C   UNL A   1     -25.151  -5.471  29.229  0.00  0.00    -0.000 A 
ATOM      6  C   UNL A   1     -24.042  -4.934  28.599  0.00  0.00    -0.000 A 
ATOM      7  C   UNL A   1     -23.936  -3.541  28.478  0.00  0.00    -0.003 A 
ENDBRANCH   1   2
BRANCH   1   8
ATOM      8  N   UNL A   1     -25.283  -0.819  27.762  0.00  0.00    -0.201 NA
ATOM      9  C   UNL A   1     -26.163  -0.254  27.368  0.00  0.00    +0.257 C 
ATOM     10  O   UNL A   1     -27.267  -0.250  27.914  0.00  0.00    -0.272 OA
BRANCH   9  11
ATOM     11  C   UNL A   1     -26.052   0.523  25.988  0.00  0.00    +0.162 C 
ATOM     12 CL   UNL A   1     -25.392   0.139  24.776  0.00  0.00    -0.105 Cl
BRANCH  11  13
ATOM     13  C   UNL A   1     -26.838   1.805  26.025  0.00  0.00    +0.052 C 
BRANCH  13  14
ATOM     14  C   UNL A   1     -26.184   2.800  26.395  0.00  0.00    -0.021 A 
ATOM     15  C   UNL A   1     -25.217   3.406  25.785  0.00  0.00    -0.004 A 
ATOM     16  C   UNL A   1     -24.506   4.588  26.355  0.00  0.00    -0.000 A 
ATOM     17  C   UNL A   1     -24.968   4.977  27.619  0.00  0.00    -0.000 A 
ATOM     18  C   UNL A   1     -25.942   4.415  28.326  0.00  0.00    -0.000 A 
ATOM     19  C   UNL A   1     -26.592   3.278  27.747  0.00  0.00    -0.004 A 
ENDBRANCH  13  14
ENDBRANCH  11  13
ENDBRANCH   9  11
ENDBRANCH   1   8
BRANCH   1  20
ATOM     20  C   UNL A   1     -23.780  -0.566  29.708  0.00  0.00    +0.069 C 
BRANCH  20  24
ATOM     21  C   UNL A   1     -23.628  -1.278  33.402  0.00  0.00    +0.011 A 
ATOM     22  C   UNL A   1     -24.519  -0.800  33.700  0.00  0.00    +0.058 A 
ATOM     23  C   UNL A   1     -23.286  -1.169  32.012  0.00  0.00    -0.003 A 
ATOM     24  C   UNL A   1     -24.107  -0.645  31.098  0.00  0.00    -0.016 A 
ATOM     25  C   UNL A   1     -25.564  -0.195  32.886  0.00  0.00    +0.011 A 
ATOM     26  C   UNL A   1     -25.257  -0.116  31.622  0.00  0.00    -0.003 A 
ATOM     27 CL   UNL A   1     -24.943  -0.920  35.497  0.00  0.00    -0.082 Cl
ENDBRANCH  20  24
BRANCH  20  28
ATOM     28  C   UNL A   1     -22.999  -0.116  29.033  0.00  0.00    -0.016 A 
ATOM     29  C   UNL A   1     -23.334   1.271  28.509  0.00  0.00    -0.004 A 
ATOM     30  C   UNL A   1     -22.381   2.000  27.799  0.00  0.00    -0.000 A 
ATOM     31  C   UNL A   1     -21.118   1.398  27.610  0.00  0.00    -0.000 A 
ATOM     32  C   UNL A   1     -20.761   0.217  28.164  0.00  0.00    -0.000 A 
ATOM     33  C   UNL A   1     -21.651  -0.534  28.875  0.00  0.00    -0.004 A 
ENDBRANCH  20  28
ENDBRANCH   1  20
TORSDOF 8
ENDMDL
ENDMDL
