MODEL 3725
MODEL 1
REMARK VINA RESULT:    -7.060      0.000      0.000
REMARK INTER + INTRA:          -8.691
REMARK INTER:                  -8.298
REMARK INTRA:                  -0.393
REMARK UNBOUND:                -0.393
REMARK  Name = No_3725-gen_results/8p0m/2024-11-26-14-13-15/
REMARK  3 active torsions:
REMARK  status: ('A' for Active; 'I' for Inactive)
REMARK    1  A    between atoms: C_7  and  O_8
REMARK    2  A    between atoms: O_8  and  C_9
REMARK    3  A    between atoms: C_9  and  C_10
REMARK                            x       y       z     vdW  Elec       q    Type
REMARK                         _______ _______ _______ _____ _____    ______ ____
ROOT
ATOM      1  O   UNL A   1     -23.744  -0.998  28.908  0.00  0.00    -0.468 OA
ENDROOT
BRANCH   1   8
ATOM      2  F   UNL A   1     -21.383   0.336  28.942  0.00  0.00    -0.201 F 
ATOM      3  C   UNL A   1     -22.218   0.642  28.220  0.00  0.00    +0.174 A 
ATOM      4  C   UNL A   1     -21.923   1.582  27.391  0.00  0.00    +0.033 A 
ATOM      5  C   UNL A   1     -22.829   2.099  26.339  0.00  0.00    +0.003 A 
ATOM      6  C   UNL A   1     -24.114   1.453  26.285  0.00  0.00    +0.003 A 
ATOM      7  C   UNL A   1     -24.344   0.431  27.177  0.00  0.00    +0.039 A 
ATOM      8  C   UNL A   1     -23.430   0.008  28.095  0.00  0.00    +0.166 A 
ENDBRANCH   1   8
BRANCH   1   9
ATOM      9  C   UNL A   1     -24.916  -1.401  29.035  0.00  0.00    +0.232 C 
BRANCH   9  10
ATOM     10  C   UNL A   1     -25.056  -2.829  28.967  0.00  0.00    +0.021 A 
ATOM     11  C   UNL A   1     -24.021  -3.591  28.655  0.00  0.00    -0.001 A 
ATOM     12  C   UNL A   1     -24.155  -4.932  28.564  0.00  0.00    -0.000 A 
ATOM     13  C   UNL A   1     -24.961  -5.468  29.076  0.00  0.00    -0.000 A 
ATOM     14  C   UNL A   1     -26.142  -4.840  29.664  0.00  0.00    -0.000 A 
ATOM     15  C   UNL A   1     -26.152  -3.449  29.627  0.00  0.00    -0.001 A 
ENDBRANCH   9  10
ENDBRANCH   1   9
TORSDOF 3
ENDMDL
ENDMDL
