REMARK  Name = No_3725-gen_results/8p0m/2024-11-26-14-13-15/
REMARK  3 active torsions:
REMARK  status: ('A' for Active; 'I' for Inactive)
REMARK    1  A    between atoms: C_7  and  O_8
REMARK    2  A    between atoms: O_8  and  C_9
REMARK    3  A    between atoms: C_9  and  C_10
REMARK                            x       y       z     vdW  Elec       q    Type
REMARK                         _______ _______ _______ _____ _____    ______ ____
ROOT
ATOM      1  O   UNL A   1     -28.478   1.148  27.339  0.00  0.00    -0.468 OA
ENDROOT
BRANCH   1   8
ATOM      2  F   UNL A   1     -28.073  -1.254  28.532  0.00  0.00    -0.201 F 
ATOM      3  C   UNL A   1     -27.359  -0.379  28.722  0.00  0.00    +0.174 A 
ATOM      4  C   UNL A   1     -26.332  -0.644  29.452  0.00  0.00    +0.033 A 
ATOM      5  C   UNL A   1     -25.256   0.320  29.782  0.00  0.00    +0.003 A 
ATOM      6  C   UNL A   1     -25.424   1.627  29.203  0.00  0.00    +0.003 A 
ATOM      7  C   UNL A   1     -26.526   1.825  28.403  0.00  0.00    +0.039 A 
ATOM      8  C   UNL A   1     -27.451   0.860  28.136  0.00  0.00    +0.166 A 
ENDBRANCH   1   8
BRANCH   1   9
ATOM      9  C   UNL A   1     -29.649   0.854  27.642  0.00  0.00    +0.232 C 
BRANCH   9  10
ATOM     10  C   UNL A   1     -30.481   0.526  26.517  0.00  0.00    +0.021 A 
ATOM     11  C   UNL A   1     -30.008   0.609  25.285  0.00  0.00    -0.001 A 
ATOM     12  C   UNL A   1     -30.795   0.327  24.224  0.00  0.00    -0.000 A 
ATOM     13  C   UNL A   1     -31.682  -0.308  24.316  0.00  0.00    -0.000 A 
ATOM     14  C   UNL A   1     -32.310  -0.693  25.578  0.00  0.00    -0.000 A 
ATOM     15  C   UNL A   1     -31.639  -0.273  26.723  0.00  0.00    -0.001 A 
ENDBRANCH   9  10
ENDBRANCH   1   9
TORSDOF 3
