MODEL 3726
MODEL 1
REMARK VINA RESULT:    -7.228      0.000      0.000
REMARK INTER + INTRA:         -10.248
REMARK INTER:                  -9.341
REMARK INTRA:                  -0.907
REMARK UNBOUND:                -0.907
REMARK  Name = No_3726-gen_results/8p0m/2024-11-26-14-13-15/
REMARK  5 active torsions:
REMARK  status: ('A' for Active; 'I' for Inactive)
REMARK    1  A    between atoms: C_2  and  C_7
REMARK    2  A    between atoms: C_5  and  O_15
REMARK    3  A    between atoms: C_7  and  C_8
REMARK    4  A    between atoms: O_15  and  C_16
REMARK    5  A    between atoms: C_17  and  C_18
REMARK                            x       y       z     vdW  Elec       q    Type
REMARK                         _______ _______ _______ _____ _____    ______ ____
ROOT
ATOM      1  C   UNL A   1     -24.428  -0.134  27.763  0.00  0.00    +0.034 A 
ATOM      2  C   UNL A   1     -23.650  -0.218  28.685  0.00  0.00    -0.015 A 
ATOM      3  C   UNL A   1     -22.493   0.485  28.768  0.00  0.00    -0.004 A 
ATOM      4  C   UNL A   1     -22.171   1.369  27.720  0.00  0.00    +0.003 A 
ATOM      5  C   UNL A   1     -24.210   0.820  26.705  0.00  0.00    +0.145 A 
ATOM      6  C   UNL A   1     -23.047   1.530  26.727  0.00  0.00    +0.037 A 
ENDROOT
BRANCH   2   7
ATOM      7  C   UNL A   1     -23.894  -1.130  29.876  0.00  0.00    +0.053 C 
BRANCH   7   8
ATOM      8  C   UNL A   1     -24.523  -2.442  29.513  0.00  0.00    -0.018 A 
ATOM      9  C   UNL A   1     -25.735  -2.871  30.015  0.00  0.00    -0.008 A 
ATOM     10  C   UNL A   1     -26.219  -4.153  29.709  0.00  0.00    -0.022 A 
ATOM     11  C   UNL A   1     -23.750  -3.488  28.932  0.00  0.00    -0.004 A 
ATOM     12  C   UNL A   1     -24.208  -4.730  28.687  0.00  0.00    -0.001 A 
ATOM     13  C   UNL A   1     -27.599  -4.501  30.187  0.00  0.00    +0.031 C 
ATOM     14  C   UNL A   1     -25.462  -5.066  29.095  0.00  0.00    -0.004 A 
ENDBRANCH   7   8
ENDBRANCH   2   7
BRANCH   5  15
ATOM     15  O   UNL A   1     -25.124   0.971  25.732  0.00  0.00    -0.450 OA
BRANCH  15  16
ATOM     16  C   UNL A   1     -25.349   0.035  24.831  0.00  0.00    +0.179 C 
ATOM     17  C   UNL A   1     -26.546  -0.013  24.441  0.00  0.00    +0.041 C 
BRANCH  17  18
ATOM     18  C   UNL A   1     -27.479   0.812  24.803  0.00  0.00    +0.003 C 
ATOM     19  C   UNL A   1     -28.098   1.570  23.802  0.00  0.00    +0.000 C 
ENDBRANCH  17  18
ENDBRANCH  15  16
ENDBRANCH   5  15
TORSDOF 5
ENDMDL
ENDMDL
