REMARK  Name = No_3726-gen_results/8p0m/2024-11-26-14-13-15/
REMARK  5 active torsions:
REMARK  status: ('A' for Active; 'I' for Inactive)
REMARK    1  A    between atoms: C_2  and  C_7
REMARK    2  A    between atoms: C_5  and  O_15
REMARK    3  A    between atoms: C_7  and  C_8
REMARK    4  A    between atoms: O_15  and  C_16
REMARK    5  A    between atoms: C_17  and  C_18
REMARK                            x       y       z     vdW  Elec       q    Type
REMARK                         _______ _______ _______ _____ _____    ______ ____
ROOT
ATOM      1  C   UNL A   1     -28.016  -0.814  28.878  0.00  0.00    +0.034 A 
ATOM      2  C   UNL A   1     -27.064  -0.119  28.608  0.00  0.00    -0.015 A 
ATOM      3  C   UNL A   1     -26.929   1.171  29.008  0.00  0.00    -0.004 A 
ATOM      4  C   UNL A   1     -27.956   1.741  29.784  0.00  0.00    +0.003 A 
ATOM      5  C   UNL A   1     -29.057  -0.327  29.747  0.00  0.00    +0.145 A 
ATOM      6  C   UNL A   1     -28.983   0.972  30.152  0.00  0.00    +0.037 A 
ENDROOT
BRANCH   2   7
ATOM      7  C   UNL A   1     -25.891  -0.626  27.786  0.00  0.00    +0.053 C 
BRANCH   7   8
ATOM      8  C   UNL A   1     -24.718  -1.061  28.613  0.00  0.00    -0.018 A 
ATOM      9  C   UNL A   1     -23.595  -0.283  28.812  0.00  0.00    -0.008 A 
ATOM     10  C   UNL A   1     -22.492  -0.792  29.516  0.00  0.00    -0.022 A 
ATOM     11  C   UNL A   1     -24.518  -2.434  28.933  0.00  0.00    -0.004 A 
ATOM     12  C   UNL A   1     -23.434  -2.921  29.566  0.00  0.00    -0.001 A 
ATOM     13  C   UNL A   1     -21.360   0.153  29.800  0.00  0.00    +0.031 C 
ATOM     14  C   UNL A   1     -22.401  -2.082  29.851  0.00  0.00    -0.004 A 
ENDBRANCH   7   8
ENDBRANCH   2   7
BRANCH   5  15
ATOM     15  O   UNL A   1     -30.065  -1.136  30.115  0.00  0.00    -0.450 OA
BRANCH  15  16
ATOM     16  C   UNL A   1     -30.813  -0.886  31.172  0.00  0.00    +0.179 C 
ATOM     17  C   UNL A   1     -31.557  -1.847  31.503  0.00  0.00    +0.041 C 
BRANCH  17  18
ATOM     18  C   UNL A   1     -31.558  -3.014  30.937  0.00  0.00    +0.003 C 
ATOM     19  C   UNL A   1     -30.699  -3.207  29.849  0.00  0.00    +0.000 C 
ENDBRANCH  17  18
ENDBRANCH  15  16
ENDBRANCH   5  15
TORSDOF 5
