REMARK  Name = No_3727-gen_results/8p0m/2024-11-26-14-13-15/
REMARK  10 active torsions:
REMARK  status: ('A' for Active; 'I' for Inactive)
REMARK    1  A    between atoms: C_3  and  O_5
REMARK    2  A    between atoms: C_7  and  C_8
REMARK    3  A    between atoms: C_8  and  O_11
REMARK    4  A    between atoms: O_11  and  C_13
REMARK    5  A    between atoms: C_13  and  C_14
REMARK    6  A    between atoms: C_14  and  C_15
REMARK    7  A    between atoms: C_17  and  C_32
REMARK    8  A    between atoms: C_19  and  C_20
REMARK    9  A    between atoms: C_19  and  C_26
REMARK   10  A    between atoms: C_32  and  C_33
REMARK                            x       y       z     vdW  Elec       q    Type
REMARK                         _______ _______ _______ _____ _____    ______ ____
ROOT
ATOM      1  C   UNL A   1     -26.658   4.621  32.611  0.00  0.00    -0.030 C 
ATOM      2  C   UNL A   1     -26.906   3.648  32.877  0.00  0.00    -0.012 C 
ATOM      3  C   UNL A   1     -28.063   3.215  33.650  0.00  0.00    -0.022 C 
ATOM      4  C   UNL A   1     -29.004   4.164  33.862  0.00  0.00    -0.019 C 
ATOM      5  C   UNL A   1     -27.817   5.557  33.193  0.00  0.00    +0.071 C 
ENDROOT
BRANCH   5   6
ATOM      6  C   UNL A   1     -28.483   6.343  32.243  0.00  0.00    -0.012 A 
ATOM      7  C   UNL A   1     -29.849   6.631  32.525  0.00  0.00    -0.003 A 
ATOM      8  C   UNL A   1     -30.363   7.617  31.738  0.00  0.00    -0.000 A 
ATOM      9  C   UNL A   1     -29.671   8.144  30.639  0.00  0.00    -0.000 A 
ATOM     10  C   UNL A   1     -27.809   7.073  31.253  0.00  0.00    -0.003 A 
ATOM     11  C   UNL A   1     -28.385   7.916  30.441  0.00  0.00    -0.000 A 
ENDBRANCH   5   6
BRANCH   5  12
ATOM     12  C   UNL A   1     -27.375   6.318  34.491  0.00  0.00    -0.012 A 
ATOM     13  C   UNL A   1     -26.435   6.038  35.088  0.00  0.00    -0.003 A 
ATOM     14  C   UNL A   1     -25.989   6.803  36.230  0.00  0.00    -0.000 A 
ATOM     15  C   UNL A   1     -28.164   7.373  34.972  0.00  0.00    -0.003 A 
ATOM     16  C   UNL A   1     -27.863   8.174  36.026  0.00  0.00    -0.000 A 
ATOM     17  C   UNL A   1     -26.707   7.842  36.719  0.00  0.00    -0.000 A 
ENDBRANCH   5  12
BRANCH   1  18
ATOM     18  C   UNL A   1     -25.657   5.235  32.120  0.00  0.00    +0.070 C 
BRANCH  18  19
ATOM     19  C   UNL A   1     -24.587   4.463  31.401  0.00  0.00    +0.213 C 
BRANCH  19  20
ATOM     20  O   UNL A   1     -24.846   3.144  31.338  0.00  0.00    -0.448 OA
BRANCH  20  21
ATOM     21  C   UNL A   1     -24.456   2.377  30.318  0.00  0.00    +0.318 C 
ATOM     22  O   UNL A   1     -23.304   2.483  29.880  0.00  0.00    -0.250 OA
BRANCH  21  28
ATOM     23  O   UNL A   1     -28.123  -1.335  28.487  0.00  0.00    -0.271 OA
ATOM     24  C   UNL A   1     -27.481  -0.404  28.709  0.00  0.00    +0.269 C 
ATOM     25  C   UNL A   1     -26.380  -0.087  27.939  0.00  0.00    +0.193 C 
ATOM     26  N   UNL A   1     -27.423   0.175  30.055  0.00  0.00    -0.203 NA
ATOM     27  C   UNL A   1     -25.274   0.930  28.501  0.00  0.00    +0.052 C 
ATOM     28  C   UNL A   1     -25.468   1.481  29.739  0.00  0.00    +0.124 C 
ATOM     29  C   UNL A   1     -26.555   1.047  30.594  0.00  0.00    +0.126 C 
BRANCH  25  30
ATOM     30  O   UNL A   1     -26.312  -0.260  26.931  0.00  0.00    -0.344 OA
ATOM     31  C   UNL A   1     -26.170   0.687  25.863  0.00  0.00    +0.175 C 
ENDBRANCH  25  30
ENDBRANCH  21  28
ENDBRANCH  20  21
ENDBRANCH  19  20
ENDBRANCH  18  19
ENDBRANCH   1  18
BRANCH   3  32
ATOM     32  C   UNL A   1     -28.518   1.804  33.954  0.00  0.00    +0.052 C 
BRANCH  32  33
ATOM     33  C   UNL A   1     -28.609   1.437  35.177  0.00  0.00    -0.026 C 
ATOM     34  C   UNL A   1     -28.387   2.282  36.181  0.00  0.00    -0.030 C 
ATOM     35  C   UNL A   1     -28.337   2.283  37.277  0.00  0.00    +0.030 C 
ENDBRANCH  32  33
ENDBRANCH   3  32
TORSDOF 10
