MODEL 3727
MODEL 1
REMARK VINA RESULT:    -7.823      0.000      0.000
REMARK INTER + INTRA:         -14.434
REMARK INTER:                 -12.396
REMARK INTRA:                  -2.038
REMARK UNBOUND:                -2.038
REMARK  Name = No_3727-gen_results/8p0m/2024-11-26-14-13-15/
REMARK  10 active torsions:
REMARK  status: ('A' for Active; 'I' for Inactive)
REMARK    1  A    between atoms: C_3  and  O_5
REMARK    2  A    between atoms: C_7  and  C_8
REMARK    3  A    between atoms: C_8  and  O_11
REMARK    4  A    between atoms: O_11  and  C_13
REMARK    5  A    between atoms: C_13  and  C_14
REMARK    6  A    between atoms: C_14  and  C_15
REMARK    7  A    between atoms: C_17  and  C_32
REMARK    8  A    between atoms: C_19  and  C_20
REMARK    9  A    between atoms: C_19  and  C_26
REMARK   10  A    between atoms: C_32  and  C_33
REMARK                            x       y       z     vdW  Elec       q    Type
REMARK                         _______ _______ _______ _____ _____    ______ ____
ROOT
ATOM      1  C   UNL A   1     -25.170  -0.397  28.472  0.00  0.00    -0.030 C 
ATOM      2  C   UNL A   1     -24.380   0.145  28.071  0.00  0.00    -0.012 C 
ATOM      3  C   UNL A   1     -22.998   0.161  28.535  0.00  0.00    -0.022 C 
ATOM      4  C   UNL A   1     -22.686  -0.783  29.452  0.00  0.00    -0.019 C 
ATOM      5  C   UNL A   1     -24.565  -1.242  29.688  0.00  0.00    +0.071 C 
ENDROOT
BRANCH   5   6
ATOM      6  C   UNL A   1     -24.739  -2.629  29.596  0.00  0.00    -0.012 A 
ATOM      7  C   UNL A   1     -25.997  -3.127  30.039  0.00  0.00    -0.003 A 
ATOM      8  C   UNL A   1     -26.224  -4.418  29.668  0.00  0.00    -0.000 A 
ATOM      9  C   UNL A   1     -25.235  -5.222  29.086  0.00  0.00    -0.000 A 
ATOM     10  C   UNL A   1     -23.895  -3.452  28.835  0.00  0.00    -0.003 A 
ATOM     11  C   UNL A   1     -24.105  -4.721  28.620  0.00  0.00    -0.000 A 
ENDBRANCH   5   6
BRANCH   5  12
ATOM     12  C   UNL A   1     -24.923  -0.620  31.083  0.00  0.00    -0.012 A 
ATOM     13  C   UNL A   1     -25.683   0.232  31.210  0.00  0.00    -0.003 A 
ATOM     14  C   UNL A   1     -26.070   0.734  32.508  0.00  0.00    -0.000 A 
ATOM     15  C   UNL A   1     -24.278  -1.096  32.234  0.00  0.00    -0.003 A 
ATOM     16  C   UNL A   1     -24.546  -0.717  33.510  0.00  0.00    -0.000 A 
ATOM     17  C   UNL A   1     -25.490   0.292  33.648  0.00  0.00    -0.000 A 
ENDBRANCH   5  12
BRANCH   1  18
ATOM     18  C   UNL A   1     -26.437  -0.434  28.359  0.00  0.00    +0.070 C 
BRANCH  18  19
ATOM     19  C   UNL A   1     -27.105   0.261  27.207  0.00  0.00    +0.213 C 
BRANCH  19  20
ATOM     20  O   UNL A   1     -27.295   1.575  27.428  0.00  0.00    -0.448 OA
BRANCH  20  21
ATOM     21  C   UNL A   1     -26.563   2.522  26.838  0.00  0.00    +0.318 C 
ATOM     22  O   UNL A   1     -26.142   2.341  25.689  0.00  0.00    -0.250 OA
BRANCH  21  28
ATOM     23  O   UNL A   1     -24.922   6.871  29.834  0.00  0.00    -0.271 OA
ATOM     24  C   UNL A   1     -25.487   6.087  29.206  0.00  0.00    +0.269 C 
ATOM     25  C   UNL A   1     -26.221   5.080  29.800  0.00  0.00    +0.193 C 
ATOM     26  N   UNL A   1     -25.063   5.757  27.842  0.00  0.00    -0.203 NA
ATOM     27  C   UNL A   1     -26.631   3.780  28.954  0.00  0.00    +0.052 C 
ATOM     28  C   UNL A   1     -26.256   3.717  27.639  0.00  0.00    +0.124 C 
ATOM     29  C   UNL A   1     -25.378   4.713  27.058  0.00  0.00    +0.126 C 
BRANCH  25  30
ATOM     30  O   UNL A   1     -26.737   5.184  30.679  0.00  0.00    -0.344 OA
ATOM     31  C   UNL A   1     -26.587   4.452  31.904  0.00  0.00    +0.175 C 
ENDBRANCH  25  30
ENDBRANCH  21  28
ENDBRANCH  20  21
ENDBRANCH  19  20
ENDBRANCH  18  19
ENDBRANCH   1  18
BRANCH   3  32
ATOM     32  C   UNL A   1     -21.802   0.842  27.907  0.00  0.00    +0.052 C 
BRANCH  32  33
ATOM     33  C   UNL A   1     -21.986   1.920  27.241  0.00  0.00    -0.026 C 
ATOM     34  C   UNL A   1     -22.468   1.904  26.000  0.00  0.00    -0.030 C 
ATOM     35  C   UNL A   1     -22.691   2.599  25.181  0.00  0.00    +0.030 C 
ENDBRANCH  32  33
ENDBRANCH   3  32
TORSDOF 10
ENDMDL
ENDMDL
