MODEL 3728
MODEL 1
REMARK VINA RESULT:    -5.293      0.000      0.000
REMARK INTER + INTRA:          -5.855
REMARK INTER:                  -5.912
REMARK INTRA:                   0.058
REMARK UNBOUND:                 0.058
REMARK  Name = No_3728-gen_results/8p0m/2024-11-26-14-13-15/
REMARK  2 active torsions:
REMARK  status: ('A' for Active; 'I' for Inactive)
REMARK    1  A    between atoms: C_2  and  C_7
REMARK    2  A    between atoms: C_7  and  N_8
REMARK                            x       y       z     vdW  Elec       q    Type
REMARK                         _______ _______ _______ _____ _____    ______ ____
ROOT
ATOM      1  C   UNL A   1     -23.841  -3.410  28.652  0.00  0.00    +0.005 A 
ATOM      2  C   UNL A   1     -24.535  -2.773  29.123  0.00  0.00    +0.055 A 
ATOM      3  C   UNL A   1     -24.178  -4.884  28.695  0.00  0.00    +0.000 A 
ATOM      4  C   UNL A   1     -25.425  -5.293  29.213  0.00  0.00    +0.000 A 
ATOM      5  C   UNL A   1     -25.892  -2.932  29.692  0.00  0.00    +0.005 A 
ATOM      6  C   UNL A   1     -26.240  -4.275  29.742  0.00  0.00    +0.000 A 
ENDROOT
BRANCH   2   7
ATOM      7  C   UNL A   1     -24.209  -1.200  29.081  0.00  0.00    +0.269 C 
ATOM      8  O   UNL A   1     -24.527  -0.588  28.131  0.00  0.00    -0.268 OA
BRANCH   7   9
ATOM      9  N   UNL A   1     -23.645  -0.651  30.103  0.00  0.00    -0.179 NA
ATOM     10  C   UNL A   1     -22.462  -0.270  30.163  0.00  0.00    +0.063 C 
ATOM     11  C   UNL A   1     -21.640  -0.539  29.033  0.00  0.00    +0.050 C 
ENDBRANCH   7   9
ENDBRANCH   2   7
TORSDOF 2
ENDMDL
ENDMDL
