MODEL 372
MODEL 1
REMARK VINA RESULT:    -6.993      0.000      0.000
REMARK INTER + INTRA:         -10.859
REMARK INTER:                  -9.446
REMARK INTRA:                  -1.413
REMARK UNBOUND:                -1.413
REMARK  Name = No_372-gen_results/8p0m/2024-11-26-14-13-15/
REMARK  6 active torsions:
REMARK  status: ('A' for Active; 'I' for Inactive)
REMARK    1  A    between atoms: C_2  and  C_7
REMARK    2  A    between atoms: C_4  and  C_10
REMARK    3  A    between atoms: C_10  and  C_11
REMARK    4  A    between atoms: C_10  and  C_12
REMARK    5  A    between atoms: C_12  and  C_14
REMARK    6  A    between atoms: C_14  and  C_15
REMARK                            x       y       z     vdW  Elec       q    Type
REMARK                         _______ _______ _______ _____ _____    ______ ____
ROOT
ATOM      1  C   UNL A   1     -23.729   0.457  27.812  0.00  0.00    +0.023 C 
ENDROOT
BRANCH   1   5
ATOM      2  C   UNL A   1     -26.156   0.131  24.766  0.00  0.00    +0.006 A 
ATOM      3  C   UNL A   1     -27.027   0.268  25.343  0.00  0.00    +0.080 A 
ATOM      4  C   UNL A   1     -24.872   0.252  25.474  0.00  0.00    -0.004 A 
ATOM      5  C   UNL A   1     -24.836   0.403  26.891  0.00  0.00    -0.022 A 
ATOM      6  C   UNL A   1     -27.265   0.377  26.808  0.00  0.00    +0.006 A 
ATOM      7  C   UNL A   1     -26.096   0.501  27.498  0.00  0.00    -0.004 A 
BRANCH   3   8
ATOM      8  C   UNL A   1     -28.439   0.126  24.616  0.00  0.00    +0.388 C 
ATOM      9  O   UNL A   1     -28.463   0.076  23.344  0.00  0.00    -0.241 OA
ATOM     10  O   UNL A   1     -29.302  -0.420  25.312  0.00  0.00    -0.241 OA
ENDBRANCH   3   8
ENDBRANCH   1   5
BRANCH   1  11
ATOM     11  C   UNL A   1     -22.939   1.544  27.736  0.00  0.00    +0.004 C 
ATOM     12  C   UNL A   1     -21.605   1.513  27.468  0.00  0.00    +0.000 C 
ENDBRANCH   1  11
BRANCH   1  13
ATOM     13  C   UNL A   1     -23.607  -0.416  28.900  0.00  0.00    +0.009 C 
BRANCH  13  14
ATOM     14  C   UNL A   1     -23.302  -1.818  28.703  0.00  0.00    +0.027 C 
BRANCH  14  15
ATOM     15  C   UNL A   1     -24.295  -2.808  29.054  0.00  0.00    -0.022 A 
ATOM     16  C   UNL A   1     -25.367  -2.454  29.498  0.00  0.00    -0.004 A 
ATOM     17  C   UNL A   1     -26.405  -3.550  29.861  0.00  0.00    -0.000 A 
ATOM     18  C   UNL A   1     -26.065  -4.852  29.551  0.00  0.00    -0.000 A 
ATOM     19  C   UNL A   1     -24.014  -4.217  28.683  0.00  0.00    -0.004 A 
ATOM     20  C   UNL A   1     -24.892  -5.176  28.997  0.00  0.00    -0.000 A 
ENDBRANCH  14  15
ENDBRANCH  13  14
ENDBRANCH   1  13
TORSDOF 6
ENDMDL
ENDMDL
