REMARK  Name = No_373-gen_results/8p0m/2024-11-26-14-13-15/
REMARK  3 active torsions:
REMARK  status: ('A' for Active; 'I' for Inactive)
REMARK    1  A    between atoms: C_3  and  C_7
REMARK    2  A    between atoms: C_7  and  C_8
REMARK    3  A    between atoms: C_13  and  C_16
REMARK                            x       y       z     vdW  Elec       q    Type
REMARK                         _______ _______ _______ _____ _____    ______ ____
ROOT
ATOM      1  C   UNL A   1     -26.494   0.973  26.286  0.00  0.00    +0.077 C 
ATOM      2  C   UNL A   1     -27.476   2.065  26.365  0.00  0.00    +0.087 C 
ATOM      3 CL   UNL A   1     -28.820   2.050  26.201  0.00  0.00    -0.115 Cl
ATOM      4  C   UNL A   1     -26.690   3.378  26.616  0.00  0.00    +0.017 C 
ATOM      5  C   UNL A   1     -25.363   3.401  26.492  0.00  0.00    +0.017 C 
ATOM      6  C   UNL A   1     -24.551   2.315  26.122  0.00  0.00    +0.152 C 
ATOM      7  C   UNL A   1     -25.101   1.117  26.159  0.00  0.00    +0.160 C 
ATOM      8  O   UNL A   1     -24.459   0.228  25.550  0.00  0.00    -0.296 OA
ENDROOT
BRANCH   6   9
ATOM      9  C   UNL A   1     -23.075   2.457  26.042  0.00  0.00    +0.404 C 
ATOM     10  F   UNL A   1     -22.529   1.822  27.069  0.00  0.00    -0.170 F 
ATOM     11  F   UNL A   1     -22.623   1.948  24.898  0.00  0.00    -0.170 F 
ATOM     12  F   UNL A   1     -22.753   3.714  26.061  0.00  0.00    -0.170 F 
ENDBRANCH   6   9
BRANCH   1  13
ATOM     13  C   UNL A   1     -26.388   0.291  27.233  0.00  0.00    +0.030 C 
ATOM     14  C   UNL A   1     -25.541  -1.098  27.056  0.00  0.00    +0.005 C 
BRANCH  13  17
ATOM     15  C   UNL A   1     -28.016  -0.814  28.878  0.00  0.00    -0.004 A 
ATOM     16  C   UNL A   1     -28.469  -0.785  29.829  0.00  0.00    -0.000 A 
ATOM     17  C   UNL A   1     -27.136   0.236  28.535  0.00  0.00    -0.022 A 
ATOM     18  C   UNL A   1     -26.875   1.282  29.398  0.00  0.00    -0.004 A 
ATOM     19  C   UNL A   1     -28.361   0.199  30.924  0.00  0.00    -0.000 A 
ATOM     20  C   UNL A   1     -27.528   1.223  30.636  0.00  0.00    -0.000 A 
ENDBRANCH  13  17
ENDBRANCH   1  13
TORSDOF 3
