REMARK  Name = No_3730-gen_results/8p0m/2024-11-26-14-13-15/
REMARK  0 active torsions:
REMARK  status: ('A' for Active; 'I' for Inactive)
REMARK                            x       y       z     vdW  Elec       q    Type
REMARK                         _______ _______ _______ _____ _____    ______ ____
ROOT
ATOM      1  F   UNL A   1     -28.073  -1.254  28.532  0.00  0.00    -0.204 F 
ATOM      2  C   UNL A   1     -27.061  -0.629  28.872  0.00  0.00    +0.142 A 
ATOM      3  C   UNL A   1     -27.176   0.615  29.369  0.00  0.00    +0.030 A 
ATOM      4  C   UNL A   1     -25.730  -1.269  28.724  0.00  0.00    +0.059 A 
ATOM      5  C   UNL A   1     -24.553  -0.508  29.013  0.00  0.00    +0.142 A 
ATOM      6  C   UNL A   1     -25.954   1.380  29.689  0.00  0.00    +0.005 A 
ATOM      7  C   UNL A   1     -24.658   0.801  29.518  0.00  0.00    +0.030 A 
ATOM      8  F   UNL A   1     -23.356  -0.986  28.915  0.00  0.00    -0.204 F 
ENDROOT
TORSDOF 0
