MODEL 3730
MODEL 1
REMARK VINA RESULT:    -4.586      0.000      0.000
REMARK INTER + INTRA:          -4.586
REMARK INTER:                  -4.586
REMARK INTRA:                   0.000
REMARK UNBOUND:                 0.000
REMARK  Name = No_3730-gen_results/8p0m/2024-11-26-14-13-15/
REMARK  0 active torsions:
REMARK  status: ('A' for Active; 'I' for Inactive)
REMARK                            x       y       z     vdW  Elec       q    Type
REMARK                         _______ _______ _______ _____ _____    ______ ____
ROOT
ATOM      1  F   UNL A   1     -27.226  -2.746  30.593  0.00  0.00    -0.204 F 
ATOM      2  C   UNL A   1     -26.215  -3.187  30.032  0.00  0.00    +0.142 A 
ATOM      3  C   UNL A   1     -25.190  -2.364  29.752  0.00  0.00    +0.030 A 
ATOM      4  C   UNL A   1     -26.154  -4.627  29.677  0.00  0.00    +0.059 A 
ATOM      5  C   UNL A   1     -25.034  -5.116  28.932  0.00  0.00    +0.142 A 
ATOM      6  C   UNL A   1     -24.028  -2.887  29.006  0.00  0.00    +0.005 A 
ATOM      7  C   UNL A   1     -23.962  -4.262  28.617  0.00  0.00    +0.030 A 
ATOM      8  F   UNL A   1     -24.898  -6.353  28.583  0.00  0.00    -0.204 F 
ENDROOT
TORSDOF 0
ENDMDL
ENDMDL
