MODEL 3731
MODEL 1
REMARK VINA RESULT:    -6.452      0.000      0.000
REMARK INTER + INTRA:          -7.150
REMARK INTER:                  -6.829
REMARK INTRA:                  -0.321
REMARK UNBOUND:                -0.321
REMARK  Name = No_3731-gen_results/8p0m/2024-11-26-14-13-15/
REMARK  1 active torsions:
REMARK  status: ('A' for Active; 'I' for Inactive)
REMARK    1  A    between atoms: C_3  and  C_7
REMARK                            x       y       z     vdW  Elec       q    Type
REMARK                         _______ _______ _______ _____ _____    ______ ____
ROOT
ATOM      1  C   UNL A   1     -26.577  -3.605  29.934  0.00  0.00    +0.000 A 
ATOM      2  C   UNL A   1     -25.942  -2.615  29.653  0.00  0.00    +0.000 A 
ATOM      3  C   UNL A   1     -24.723  -2.647  28.977  0.00  0.00    +0.000 A 
ATOM      4  C   UNL A   1     -24.138  -3.930  28.636  0.00  0.00    +0.000 A 
ATOM      5  C   UNL A   1     -24.894  -5.045  28.996  0.00  0.00    +0.000 A 
ATOM      6  C   UNL A   1     -26.035  -4.923  29.646  0.00  0.00    +0.000 A 
ENDROOT
BRANCH   3   7
ATOM      7  C   UNL A   1     -23.889  -1.473  28.589  0.00  0.00    +0.000 A 
ATOM      8  C   UNL A   1     -24.335  -0.437  27.919  0.00  0.00    +0.000 A 
ATOM      9  C   UNL A   1     -23.501   0.661  27.601  0.00  0.00    +0.000 A 
ATOM     10  C   UNL A   1     -22.291   0.811  28.336  0.00  0.00    +0.000 A 
ATOM     11  C   UNL A   1     -22.596  -1.265  29.192  0.00  0.00    +0.000 A 
ATOM     12  C   UNL A   1     -21.848  -0.183  29.040  0.00  0.00    +0.000 A 
ENDBRANCH   3   7
TORSDOF 1
ENDMDL
ENDMDL
