REMARK  Name = No_3732-gen_results/8p0m/2024-11-26-14-13-15/
REMARK  6 active torsions:
REMARK  status: ('A' for Active; 'I' for Inactive)
REMARK    1  A    between atoms: C_3  and  C_7
REMARK    2  A    between atoms: C_6  and  C_19
REMARK    3  A    between atoms: N_8  and  C_10
REMARK    4  A    between atoms: C_11  and  C_12
REMARK    5  A    between atoms: C_21  and  C_26
REMARK    6  A    between atoms: C_23  and  C_29
REMARK                            x       y       z     vdW  Elec       q    Type
REMARK                         _______ _______ _______ _____ _____    ______ ____
ROOT
ATOM      1  C   UNL A   1     -28.016  -0.814  28.878  0.00  0.00    +0.034 A 
ATOM      2  C   UNL A   1     -28.469  -0.785  29.829  0.00  0.00    +0.140 A 
ATOM      3  C   UNL A   1     -27.087   0.290  28.638  0.00  0.00    +0.057 A 
ATOM      4  C   UNL A   1     -26.832   1.249  29.587  0.00  0.00    +0.000 A 
ATOM      5  C   UNL A   1     -28.391   0.080  31.006  0.00  0.00    +0.025 A 
ATOM      6  C   UNL A   1     -27.494   1.152  30.784  0.00  0.00    -0.020 A 
ATOM      7  F   UNL A   1     -29.406  -1.848  30.209  0.00  0.00    -0.204 F 
ENDROOT
BRANCH   6   8
ATOM      8  C   UNL A   1     -27.309   2.187  31.876  0.00  0.00    +0.023 C 
ATOM      9  C   UNL A   1     -26.646   3.029  32.081  0.00  0.00    +0.016 C 
ATOM     10  C   UNL A   1     -26.570   3.994  33.190  0.00  0.00    +0.104 C 
ATOM     11  C   UNL A   1     -27.477   3.756  34.213  0.00  0.00    +0.022 C 
ATOM     12  C   UNL A   1     -28.313   2.709  34.069  0.00  0.00    +0.118 C 
ATOM     13  C   UNL A   1     -28.329   1.873  33.043  0.00  0.00    +0.017 C 
ATOM     14  C   UNL A   1     -28.912   1.957  34.386  0.00  0.00    +0.169 C 
ATOM     15  F   UNL A   1     -28.368   0.479  34.755  0.00  0.00    -0.237 F 
ATOM     16  C   UNL A   1     -29.047   1.265  33.491  0.00  0.00    +0.036 C 
BRANCH  12  17
ATOM     17  C   UNL A   1     -29.323   2.454  35.194  0.00  0.00    +0.400 C 
ATOM     18  F   UNL A   1     -29.889   1.573  35.038  0.00  0.00    -0.170 F 
ATOM     19  F   UNL A   1     -28.540   2.440  36.346  0.00  0.00    -0.170 F 
ATOM     20  F   UNL A   1     -30.048   3.580  35.348  0.00  0.00    -0.170 F 
ENDBRANCH  12  17
BRANCH  10  21
ATOM     21  C   UNL A   1     -25.676   5.139  33.374  0.00  0.00    +0.364 C 
ATOM     22  O   UNL A   1     -26.027   6.197  32.721  0.00  0.00    -0.246 OA
ATOM     23  O   UNL A   1     -24.462   5.030  33.795  0.00  0.00    -0.246 OA
ENDBRANCH  10  21
ENDBRANCH   6   8
BRANCH   3  24
ATOM     24  C   UNL A   1     -26.317   0.399  27.365  0.00  0.00    +0.269 C 
ATOM     25  N   UNL A   1     -25.072   0.157  27.430  0.00  0.00    -0.175 NA
ATOM     26  O   UNL A   1     -26.893   0.638  26.280  0.00  0.00    -0.268 OA
BRANCH  25  27
ATOM     27  C   UNL A   1     -24.268  -0.066  28.629  0.00  0.00    +0.080 A 
ATOM     28  C   UNL A   1     -23.143   0.922  28.663  0.00  0.00    +0.095 A 
ATOM     29  C   UNL A   1     -24.369  -1.063  29.444  0.00  0.00    +0.017 A 
ATOM     30  C   UNL A   1     -23.412  -1.147  30.496  0.00  0.00    +0.001 A 
ATOM     31  C   UNL A   1     -22.410  -0.274  30.692  0.00  0.00    +0.000 A 
ATOM     32  C   UNL A   1     -22.205   0.673  29.811  0.00  0.00    +0.008 A 
BRANCH  28  33
ATOM     33  C   UNL A   1     -22.823   1.948  27.763  0.00  0.00    +0.389 C 
ATOM     34  O   UNL A   1     -23.652   2.827  27.550  0.00  0.00    -0.240 OA
ATOM     35  O   UNL A   1     -21.547   2.149  27.435  0.00  0.00    -0.240 OA
ENDBRANCH  28  33
ENDBRANCH  25  27
ENDBRANCH   3  24
TORSDOF 6
