REMARK  Name = No_3733-gen_results/8p0m/2024-11-26-14-13-15/
REMARK  0 active torsions:
REMARK  status: ('A' for Active; 'I' for Inactive)
REMARK                            x       y       z     vdW  Elec       q    Type
REMARK                         _______ _______ _______ _____ _____    ______ ____
ROOT
ATOM      1  C   UNL A   1     -28.016  -0.814  28.878  0.00  0.00    +0.019 A 
ATOM      2  C   UNL A   1     -27.064  -0.119  28.608  0.00  0.00    +0.081 A 
ATOM      3  C   UNL A   1     -25.792  -0.430  29.076  0.00  0.00    +0.017 A 
ATOM      4  C   UNL A   1     -25.576  -1.565  29.936  0.00  0.00    +0.002 A 
ATOM      5  C   UNL A   1     -26.735  -2.300  30.217  0.00  0.00    +0.000 A 
ATOM      6  C   UNL A   1     -27.918  -1.954  29.763  0.00  0.00    +0.002 A 
ATOM      7  N   UNL A   1     -27.106   1.034  27.819  0.00  0.00    -0.244 NA
ATOM      8  C   UNL A   1     -26.261   1.329  26.904  0.00  0.00    +0.095 A 
ATOM      9  C   UNL A   1     -24.844   1.081  27.300  0.00  0.00    +0.001 A 
ATOM     10  C   UNL A   1     -24.617   0.028  28.292  0.00  0.00    -0.001 A 
ATOM     11  C   UNL A   1     -23.712   1.683  26.623  0.00  0.00    +0.054 C 
ATOM     12  C   UNL A   1     -22.572   2.018  27.350  0.00  0.00    -0.021 C 
ATOM     13  C   UNL A   1     -21.979   1.278  28.263  0.00  0.00    -0.004 C 
ATOM     14  C   UNL A   1     -22.466   0.240  29.080  0.00  0.00    -0.000 C 
ATOM     15  C   UNL A   1     -23.673  -0.178  29.125  0.00  0.00    -0.000 C 
ENDROOT
TORSDOF 0
