MODEL 3733
MODEL 1
REMARK VINA RESULT:    -6.822      0.000      0.000
REMARK INTER + INTRA:          -6.822
REMARK INTER:                  -6.822
REMARK INTRA:                   0.000
REMARK UNBOUND:                 0.000
REMARK  Name = No_3733-gen_results/8p0m/2024-11-26-14-13-15/
REMARK  0 active torsions:
REMARK  status: ('A' for Active; 'I' for Inactive)
REMARK                            x       y       z     vdW  Elec       q    Type
REMARK                         _______ _______ _______ _____ _____    ______ ____
ROOT
ATOM      1  C   UNL A   1     -23.969  -2.291  30.072  0.00  0.00    +0.019 A 
ATOM      2  C   UNL A   1     -23.462  -1.554  29.258  0.00  0.00    +0.081 A 
ATOM      3  C   UNL A   1     -24.239  -0.857  28.338  0.00  0.00    +0.017 A 
ATOM      4  C   UNL A   1     -25.669  -1.026  28.297  0.00  0.00    +0.002 A 
ATOM      5  C   UNL A   1     -26.169  -1.914  29.258  0.00  0.00    +0.000 A 
ATOM      6  C   UNL A   1     -25.390  -2.562  30.095  0.00  0.00    +0.002 A 
ATOM      7  N   UNL A   1     -22.092  -1.307  29.138  0.00  0.00    -0.244 NA
ATOM      8  C   UNL A   1     -21.566  -0.153  28.966  0.00  0.00    +0.095 A 
ATOM      9  C   UNL A   1     -22.286   0.685  27.962  0.00  0.00    +0.001 A 
ATOM     10  C   UNL A   1     -23.717   0.423  27.797  0.00  0.00    -0.001 A 
ATOM     11  C   UNL A   1     -21.689   1.836  27.312  0.00  0.00    +0.054 C 
ATOM     12  C   UNL A   1     -22.030   2.139  25.997  0.00  0.00    -0.021 C 
ATOM     13  C   UNL A   1     -23.241   2.135  25.480  0.00  0.00    -0.004 C 
ATOM     14  C   UNL A   1     -24.414   1.456  25.863  0.00  0.00    -0.000 C 
ATOM     15  C   UNL A   1     -24.520   0.622  26.825  0.00  0.00    -0.000 C 
ENDROOT
TORSDOF 0
ENDMDL
ENDMDL
