MODEL 3734
MODEL 1
REMARK VINA RESULT:    -6.209      0.000      0.000
REMARK INTER + INTRA:          -8.947
REMARK INTER:                  -8.024
REMARK INTRA:                  -0.924
REMARK UNBOUND:                -0.924
REMARK  Name = No_3734-gen_results/8p0m/2024-11-26-14-13-15/
REMARK  5 active torsions:
REMARK  status: ('A' for Active; 'I' for Inactive)
REMARK    1  A    between atoms: C_3  and  C_7
REMARK    2  A    between atoms: C_7  and  C_9
REMARK    3  A    between atoms: C_9  and  C_10
REMARK    4  A    between atoms: C_11  and  C_12
REMARK    5  A    between atoms: C_13  and  C_14
REMARK                            x       y       z     vdW  Elec       q    Type
REMARK                         _______ _______ _______ _____ _____    ______ ____
ROOT
ATOM      1  C   UNL A   1     -24.162  -1.239  28.886  0.00  0.00    +0.027 C 
ATOM      2  C   UNL A   1     -22.757  -0.967  28.937  0.00  0.00    +0.005 C 
ENDROOT
BRANCH   1   5
ATOM      3  C   UNL A   1     -25.851  -3.006  29.581  0.00  0.00    -0.004 A 
ATOM      4  C   UNL A   1     -26.133  -4.017  29.682  0.00  0.00    -0.000 A 
ATOM      5  C   UNL A   1     -24.580  -2.728  29.031  0.00  0.00    -0.022 A 
ATOM      6  C   UNL A   1     -23.892  -3.537  28.589  0.00  0.00    -0.004 A 
ATOM      7  C   UNL A   1     -25.431  -5.217  29.226  0.00  0.00    -0.000 A 
ATOM      8  C   UNL A   1     -24.236  -4.935  28.654  0.00  0.00    -0.000 A 
ENDBRANCH   1   5
BRANCH   1   9
ATOM      9  C   UNL A   1     -25.070  -0.181  28.884  0.00  0.00    +0.030 C 
BRANCH   9  10
ATOM     10  C   UNL A   1     -25.576   0.316  27.730  0.00  0.00    -0.026 C 
ATOM     11  C   UNL A   1     -25.362  -0.486  26.584  0.00  0.00    -0.005 C 
BRANCH  11  12
ATOM     12  C   UNL A   1     -25.892  -0.066  25.345  0.00  0.00    -0.000 C 
ATOM     13  C   UNL A   1     -27.089   0.299  25.264  0.00  0.00    -0.000 C 
BRANCH  13  14
ATOM     14  C   UNL A   1     -27.593   0.841  24.020  0.00  0.00    -0.005 C 
ATOM     15  C   UNL A   1     -28.579   0.190  23.298  0.00  0.00    -0.026 C 
ATOM     16  C   UNL A   1     -29.030  -0.993  23.767  0.00  0.00    +0.031 C 
ENDBRANCH  13  14
ENDBRANCH  11  12
ENDBRANCH   9  10
ENDBRANCH   1   9
TORSDOF 5
ENDMDL
ENDMDL
