REMARK  Name = No_3735-gen_results/8p0m/2024-11-26-14-13-15/
REMARK  3 active torsions:
REMARK  status: ('A' for Active; 'I' for Inactive)
REMARK    1  A    between atoms: C_1  and  C_2
REMARK    2  A    between atoms: C_1  and  C_8
REMARK    3  A    between atoms: C_7  and  C_24
REMARK                            x       y       z     vdW  Elec       q    Type
REMARK                         _______ _______ _______ _____ _____    ______ ____
ROOT
ATOM      1  C   UNL A   1     -27.064  -0.119  28.608  0.00  0.00    -0.025 A 
ATOM      2  C   UNL A   1     -25.765  -0.390  29.036  0.00  0.00    -0.009 A 
ATOM      3  C   UNL A   1     -24.552   0.406  28.765  0.00  0.00    -0.016 A 
ATOM      4  C   UNL A   1     -24.696   1.448  27.799  0.00  0.00    +0.051 A 
ATOM      5  C   UNL A   1     -25.976   1.725  27.308  0.00  0.00    +0.001 A 
ATOM      6  C   UNL A   1     -27.072   1.013  27.654  0.00  0.00    -0.015 A 
ATOM      7  C   UNL A   1     -23.486   2.190  27.484  0.00  0.00    +0.265 C 
ATOM      8  N   UNL A   1     -22.297   1.720  27.827  0.00  0.00    -0.201 NA
ATOM      9  O   UNL A   1     -23.570   3.323  26.930  0.00  0.00    -0.268 OA
ATOM     10  C   UNL A   1     -21.976   0.641  28.576  0.00  0.00    +0.120 C 
ATOM     11  C   UNL A   1     -23.233  -0.098  29.145  0.00  0.00    +0.050 C 
ENDROOT
BRANCH   6  12
ATOM     12  C   UNL A   1     -28.364   1.433  27.060  0.00  0.00    +0.088 C 
ATOM     13  I   UNL A   1     -28.511   2.181  25.766  0.00  0.00    -0.069 I 
ENDBRANCH   6  12
BRANCH   1  14
ATOM     14  C   UNL A   1     -28.016  -0.814  28.878  0.00  0.00    +0.030 C 
BRANCH  14  15
ATOM     15  C   UNL A   1     -28.618  -0.469  30.221  0.00  0.00    +0.023 C 
ATOM     16  C   UNL A   1     -29.730  -1.277  30.721  0.00  0.00    -0.026 A 
ATOM     17  C   UNL A   1     -30.112  -2.175  29.942  0.00  0.00    -0.005 A 
ATOM     18  C   UNL A   1     -31.268  -2.937  30.498  0.00  0.00    -0.000 A 
ATOM     19  C   UNL A   1     -31.784  -2.671  31.621  0.00  0.00    -0.000 A 
ATOM     20  C   UNL A   1     -31.323  -1.687  32.461  0.00  0.00    -0.005 A 
ATOM     21  C   UNL A   1     -30.255  -0.920  32.012  0.00  0.00    -0.026 A 
ATOM     22  C   UNL A   1     -28.899   1.044  30.483  0.00  0.00    +0.005 C 
ATOM     23  C   UNL A   1     -27.396  -0.695  31.355  0.00  0.00    +0.005 C 
ATOM     24  C   UNL A   1     -29.538   1.489  31.333  0.00  0.00    +0.005 C 
ATOM     25  C   UNL A   1     -30.485   0.517  32.141  0.00  0.00    +0.026 C 
ENDBRANCH  14  15
ENDBRANCH   1  14
TORSDOF 3
