MODEL 3735
MODEL 1
REMARK VINA RESULT:    -7.254      0.000      0.000
REMARK INTER + INTRA:          -9.442
REMARK INTER:                  -8.527
REMARK INTRA:                  -0.916
REMARK UNBOUND:                -0.916
REMARK  Name = No_3735-gen_results/8p0m/2024-11-26-14-13-15/
REMARK  3 active torsions:
REMARK  status: ('A' for Active; 'I' for Inactive)
REMARK    1  A    between atoms: C_1  and  C_2
REMARK    2  A    between atoms: C_1  and  C_8
REMARK    3  A    between atoms: C_7  and  C_24
REMARK                            x       y       z     vdW  Elec       q    Type
REMARK                         _______ _______ _______ _____ _____    ______ ____
ROOT
ATOM      1  C   UNL A   1     -10.819   1.191  37.487  0.00  0.00    -0.025 A 
ATOM      2  C   UNL A   1     -12.026   1.834  37.216  0.00  0.00    -0.009 A 
ATOM      3  C   UNL A   1     -12.705   1.944  35.909  0.00  0.00    -0.016 A 
ATOM      4  C   UNL A   1     -11.944   1.520  34.777  0.00  0.00    +0.051 A 
ATOM      5  C   UNL A   1     -10.706   0.910  35.001  0.00  0.00    +0.001 A 
ATOM      6  C   UNL A   1     -10.165   0.760  36.231  0.00  0.00    -0.015 A 
ATOM      7  C   UNL A   1     -12.588   1.689  33.484  0.00  0.00    +0.265 C 
ATOM      8  N   UNL A   1     -13.652   2.466  33.356  0.00  0.00    -0.201 NA
ATOM      9  O   UNL A   1     -12.166   1.043  32.483  0.00  0.00    -0.268 OA
ATOM     10  C   UNL A   1     -14.380   3.100  34.302  0.00  0.00    +0.120 C 
ATOM     11  C   UNL A   1     -13.885   2.793  35.755  0.00  0.00    +0.050 C 
ENDROOT
BRANCH   6  12
ATOM     12  C   UNL A   1      -8.849   0.083  36.310  0.00  0.00    +0.088 C 
ATOM     13  I   UNL A   1      -7.825   0.064  35.212  0.00  0.00    -0.069 I 
ENDBRANCH   6  12
BRANCH   1  14
ATOM     14  C   UNL A   1     -10.326   1.132  38.589  0.00  0.00    +0.030 C 
BRANCH  14  15
ATOM     15  C   UNL A   1     -10.907   0.011  39.421  0.00  0.00    +0.023 C 
ATOM     16  C   UNL A   1     -10.040  -0.674  40.379  0.00  0.00    -0.026 A 
ATOM     17  C   UNL A   1      -8.855  -0.280  40.384  0.00  0.00    -0.005 A 
ATOM     18  C   UNL A   1      -8.021  -1.043  41.358  0.00  0.00    -0.000 A 
ATOM     19  C   UNL A   1      -8.486  -1.979  42.069  0.00  0.00    -0.000 A 
ATOM     20  C   UNL A   1      -9.802  -2.372  42.051  0.00  0.00    -0.005 A 
ATOM     21  C   UNL A   1     -10.645  -1.721  41.160  0.00  0.00    -0.026 A 
ATOM     22  C   UNL A   1     -11.786  -1.029  38.658  0.00  0.00    +0.005 C 
ATOM     23  C   UNL A   1     -12.110   0.706  40.369  0.00  0.00    +0.005 C 
ATOM     24  C   UNL A   1     -12.136  -2.055  39.052  0.00  0.00    +0.005 C 
ATOM     25  C   UNL A   1     -11.437  -2.637  40.342  0.00  0.00    +0.026 C 
ENDBRANCH  14  15
ENDBRANCH   1  14
TORSDOF 3
ENDMDL
ENDMDL
