MODEL 3736
MODEL 1
REMARK VINA RESULT:    -6.089      0.000      0.000
REMARK INTER + INTRA:          -6.511
REMARK INTER:                  -6.445
REMARK INTRA:                  -0.066
REMARK UNBOUND:                -0.066
REMARK  Name = No_3736-gen_results/8p0m/2024-11-26-14-13-15/
REMARK  1 active torsions:
REMARK  status: ('A' for Active; 'I' for Inactive)
REMARK    1  A    between atoms: C_5  and  C_9
REMARK                            x       y       z     vdW  Elec       q    Type
REMARK                         _______ _______ _______ _____ _____    ______ ____
ROOT
ATOM      1  C   UNL A   1     -30.680  -9.745  29.755  0.00  0.00    +0.094 A 
ATOM      2  C   UNL A   1     -29.995 -10.180  30.651  0.00  0.00    -0.007 A 
ATOM      3  C   UNL A   1     -29.936  -9.664  31.934  0.00  0.00    +0.028 C 
ATOM      4  C   UNL A   1     -29.069 -10.112  32.997  0.00  0.00    +0.016 C 
ATOM      5  C   UNL A   1     -28.184 -11.186  32.740  0.00  0.00    +0.108 C 
ATOM      6  C   UNL A   1     -28.196 -11.764  31.444  0.00  0.00    +0.037 C 
ATOM      7  C   UNL A   1     -29.030 -11.251  30.499  0.00  0.00    -0.023 A 
ATOM      8  N   UNL A   1     -30.606 -10.326  28.457  0.00  0.00    -0.243 NA
ATOM      9  C   UNL A   1     -28.953 -11.832  29.189  0.00  0.00    +0.016 A 
ATOM     10  C   UNL A   1     -29.749 -11.331  28.172  0.00  0.00    +0.099 A 
ENDROOT
BRANCH   5  11
ATOM     11  C   UNL A   1     -27.307 -11.706  33.764  0.00  0.00    +0.365 C 
ATOM     12  O   UNL A   1     -26.691 -12.766  33.526  0.00  0.00    -0.246 OA
ATOM     13  O   UNL A   1     -26.745 -10.858  34.640  0.00  0.00    -0.246 OA
ENDBRANCH   5  11
TORSDOF 1
ENDMDL
ENDMDL
