REMARK  Name = No_3737-gen_results/8p0m/2024-11-26-14-13-15/
REMARK  10 active torsions:
REMARK  status: ('A' for Active; 'I' for Inactive)
REMARK    1  A    between atoms: C_2  and  C_16
REMARK    2  A    between atoms: C_3  and  C_7
REMARK    3  A    between atoms: C_6  and  C_19
REMARK    4  A    between atoms: N_8  and  C_10
REMARK    5  A    between atoms: C_19  and  O_21
REMARK    6  A    between atoms: O_21  and  C_22
REMARK    7  A    between atoms: C_25  and  C_29
REMARK    8  A    between atoms: C_26  and  N_31
REMARK    9  A    between atoms: N_31  and  C_32
REMARK   10  A    between atoms: N_31  and  C_34
REMARK                            x       y       z     vdW  Elec       q    Type
REMARK                         _______ _______ _______ _____ _____    ______ ____
ROOT
ATOM      1  C   UNL A   1     -28.016  -0.814  28.878  0.00  0.00    +0.009 A 
ATOM      2  C   UNL A   1     -28.469  -0.785  29.829  0.00  0.00    +0.080 A 
ATOM      3  C   UNL A   1     -27.136   0.236  28.535  0.00  0.00    +0.029 A 
ATOM      4  C   UNL A   1     -26.875   1.282  29.398  0.00  0.00    +0.009 A 
ATOM      5  C   UNL A   1     -28.361   0.199  30.924  0.00  0.00    +0.013 A 
ATOM      6  C   UNL A   1     -27.528   1.223  30.636  0.00  0.00    +0.076 A 
ENDROOT
BRANCH   3   7
ATOM      7  C   UNL A   1     -26.388   0.291  27.233  0.00  0.00    +0.138 C 
ATOM      8  N   UNL A   1     -26.529   0.712  26.289  0.00  0.00    -0.234 NA
ATOM      9 CL   UNL A   1     -24.832  -0.693  27.374  0.00  0.00    -0.061 Cl
BRANCH   8  10
ATOM     10  C   UNL A   1     -27.678   1.474  26.111  0.00  0.00    +0.082 A 
ATOM     11  C   UNL A   1     -28.352   1.364  24.829  0.00  0.00    +0.019 A 
ATOM     12  C   UNL A   1     -29.370   2.239  24.596  0.00  0.00    +0.002 A 
ATOM     13  C   UNL A   1     -29.716   3.330  25.473  0.00  0.00    +0.000 A 
ATOM     14  C   UNL A   1     -28.935   3.436  26.652  0.00  0.00    +0.002 A 
ATOM     15  C   UNL A   1     -27.945   2.616  26.914  0.00  0.00    +0.019 A 
ENDBRANCH   8  10
ENDBRANCH   3   7
BRANCH   2  16
ATOM     16  C   UNL A   1     -29.448  -1.971  30.283  0.00  0.00    +0.388 C 
ATOM     17  O   UNL A   1     -30.126  -1.864  31.165  0.00  0.00    -0.241 OA
ATOM     18  O   UNL A   1     -28.927  -3.147  30.023  0.00  0.00    -0.241 OA
ENDBRANCH   2  16
BRANCH   6  19
ATOM     19  C   UNL A   1     -27.348   2.355  31.612  0.00  0.00    +0.341 C 
ATOM     20  O   UNL A   1     -27.835   2.713  32.410  0.00  0.00    -0.245 OA
BRANCH  19  21
ATOM     21  O   UNL A   1     -26.295   3.299  30.989  0.00  0.00    -0.447 OA
BRANCH  21  22
ATOM     22  C   UNL A   1     -26.101   4.404  31.682  0.00  0.00    +0.201 C 
ATOM     23  C   UNL A   1     -25.005   5.169  31.124  0.00  0.00    +0.047 C 
ATOM     24  C   UNL A   1     -24.624   6.266  32.061  0.00  0.00    +0.013 C 
ATOM     25  C   UNL A   1     -24.642   5.906  33.340  0.00  0.00    +0.086 C 
ATOM     26  C   UNL A   1     -25.691   5.106  33.872  0.00  0.00    +0.114 C 
ATOM     27  C   UNL A   1     -25.865   3.924  33.048  0.00  0.00    +0.210 C 
ATOM     28  O   UNL A   1     -24.615   3.186  33.230  0.00  0.00    -0.217 OA
BRANCH  25  29
ATOM     29  C   UNL A   1     -23.713   6.559  34.299  0.00  0.00    +0.209 C 
ATOM     30  O   UNL A   1     -23.572   7.705  34.188  0.00  0.00    -0.288 OA
ENDBRANCH  25  29
BRANCH  26  31
ATOM     31  N   UNL A   1     -26.907   5.877  34.148  0.00  0.00    -0.305 N 
BRANCH  31  32
ATOM     32  C   UNL A   1     -27.404   6.795  33.654  0.00  0.00    +0.061 C 
ATOM     33  C   UNL A   1     -28.667   7.216  34.110  0.00  0.00    +0.017 C 
ENDBRANCH  31  32
BRANCH  31  34
ATOM     34  C   UNL A   1     -27.786   5.127  35.037  0.00  0.00    +0.091 C 
ATOM     35  C   UNL A   1     -27.265   3.963  35.850  0.00  0.00    +0.023 C 
ENDBRANCH  31  34
ENDBRANCH  26  31
ENDBRANCH  21  22
ENDBRANCH  19  21
ENDBRANCH   6  19
TORSDOF 10
