MODEL 3737
MODEL 1
REMARK VINA RESULT:    -7.050      0.000      0.000
REMARK INTER + INTRA:         -12.793
REMARK INTER:                 -11.171
REMARK INTRA:                  -1.622
REMARK UNBOUND:                -1.622
REMARK  Name = No_3737-gen_results/8p0m/2024-11-26-14-13-15/
REMARK  10 active torsions:
REMARK  status: ('A' for Active; 'I' for Inactive)
REMARK    1  A    between atoms: C_2  and  C_16
REMARK    2  A    between atoms: C_3  and  C_7
REMARK    3  A    between atoms: C_6  and  C_19
REMARK    4  A    between atoms: N_8  and  C_10
REMARK    5  A    between atoms: C_19  and  O_21
REMARK    6  A    between atoms: O_21  and  C_22
REMARK    7  A    between atoms: C_25  and  C_29
REMARK    8  A    between atoms: C_26  and  N_31
REMARK    9  A    between atoms: N_31  and  C_32
REMARK   10  A    between atoms: N_31  and  C_34
REMARK                            x       y       z     vdW  Elec       q    Type
REMARK                         _______ _______ _______ _____ _____    ______ ____
ROOT
ATOM      1  C   UNL A   1     -11.661   1.406  35.090  0.00  0.00    +0.009 A 
ATOM      2  C   UNL A   1     -12.593   1.860  34.902  0.00  0.00    +0.080 A 
ATOM      3  C   UNL A   1     -11.145   1.479  36.403  0.00  0.00    +0.029 A 
ATOM      4  C   UNL A   1     -11.818   2.131  37.417  0.00  0.00    +0.009 A 
ATOM      5  C   UNL A   1     -13.505   2.604  35.793  0.00  0.00    +0.013 A 
ATOM      6  C   UNL A   1     -13.048   2.699  37.060  0.00  0.00    +0.076 A 
ENDROOT
BRANCH   3   7
ATOM      7  C   UNL A   1      -9.853   0.834  36.816  0.00  0.00    +0.138 C 
ATOM      8  N   UNL A   1      -9.558   0.016  37.393  0.00  0.00    -0.234 NA
ATOM      9 CL   UNL A   1      -8.435   1.801  36.135  0.00  0.00    -0.061 Cl
BRANCH   8  10
ATOM     10  C   UNL A   1     -10.574  -0.764  37.933  0.00  0.00    +0.082 A 
ATOM     11  C   UNL A   1     -10.853  -0.597  39.349  0.00  0.00    +0.019 A 
ATOM     12  C   UNL A   1     -11.723  -1.483  39.910  0.00  0.00    +0.002 A 
ATOM     13  C   UNL A   1     -12.262  -2.632  39.225  0.00  0.00    +0.000 A 
ATOM     14  C   UNL A   1     -11.851  -2.786  37.876  0.00  0.00    +0.002 A 
ATOM     15  C   UNL A   1     -11.014  -1.957  37.299  0.00  0.00    +0.019 A 
ENDBRANCH   8  10
ENDBRANCH   3   7
BRANCH   2  16
ATOM     16  C   UNL A   1     -13.242   1.775  33.438  0.00  0.00    +0.388 C 
ATOM     17  O   UNL A   1     -12.757   1.191  32.617  0.00  0.00    -0.241 OA
ATOM     18  O   UNL A   1     -13.887   2.877  33.136  0.00  0.00    -0.241 OA
ENDBRANCH   2  16
BRANCH   6  19
ATOM     19  C   UNL A   1     -13.818   3.482  38.090  0.00  0.00    +0.341 C 
ATOM     20  O   UNL A   1     -13.600   4.068  38.872  0.00  0.00    -0.245 OA
BRANCH  19  21
ATOM     21  O   UNL A   1     -15.276   2.975  38.016  0.00  0.00    -0.447 OA
BRANCH  21  22
ATOM     22  C   UNL A   1     -16.169   3.887  38.348  0.00  0.00    +0.201 C 
ATOM     23  C   UNL A   1     -17.380   3.260  38.837  0.00  0.00    +0.047 C 
ATOM     24  C   UNL A   1     -18.466   4.277  38.953  0.00  0.00    +0.013 C 
ATOM     25  C   UNL A   1     -18.489   5.150  37.951  0.00  0.00    +0.086 C 
ATOM     26  C   UNL A   1     -17.293   5.721  37.435  0.00  0.00    +0.114 C 
ATOM     27  C   UNL A   1     -16.350   4.665  37.117  0.00  0.00    +0.210 C 
ATOM     28  O   UNL A   1     -16.996   3.938  36.024  0.00  0.00    -0.217 OA
BRANCH  25  29
ATOM     29  C   UNL A   1     -19.782   5.754  37.534  0.00  0.00    +0.209 C 
ATOM     30  O   UNL A   1     -19.866   6.087  36.426  0.00  0.00    -0.288 OA
ENDBRANCH  25  29
BRANCH  26  31
ATOM     31  N   UNL A   1     -16.776   6.807  38.273  0.00  0.00    -0.305 N 
BRANCH  31  32
ATOM     32  C   UNL A   1     -16.331   6.857  39.337  0.00  0.00    +0.061 C 
ATOM     33  C   UNL A   1     -15.001   7.286  39.503  0.00  0.00    +0.017 C 
ENDBRANCH  31  32
BRANCH  31  34
ATOM     34  C   UNL A   1     -16.511   7.987  37.458  0.00  0.00    +0.091 C 
ATOM     35  C   UNL A   1     -17.635   8.728  36.768  0.00  0.00    +0.023 C 
ENDBRANCH  31  34
ENDBRANCH  26  31
ENDBRANCH  21  22
ENDBRANCH  19  21
ENDBRANCH   6  19
TORSDOF 10
ENDMDL
ENDMDL
