REMARK  Name = No_3738-gen_results/8p0m/2024-11-26-14-13-15/
REMARK  1 active torsions:
REMARK  status: ('A' for Active; 'I' for Inactive)
REMARK    1  A    between atoms: C_2  and  C_4
REMARK                            x       y       z     vdW  Elec       q    Type
REMARK                         _______ _______ _______ _____ _____    ______ ____
ROOT
ATOM      1  C   UNL A   1     -26.380   0.773  28.538  0.00  0.00    +0.053 A 
ATOM      2  C   UNL A   1     -25.880   2.049  28.637  0.00  0.00    +0.002 A 
ATOM      3  C   UNL A   1     -24.669   2.353  28.011  0.00  0.00    -0.000 A 
ATOM      4  C   UNL A   1     -23.827   1.338  27.546  0.00  0.00    -0.000 A 
ATOM      5  C   UNL A   1     -24.293   0.066  27.634  0.00  0.00    -0.000 A 
ATOM      6  C   UNL A   1     -25.553  -0.220  28.061  0.00  0.00    +0.002 A 
ENDROOT
BRANCH   1   8
ATOM      7 CL   UNL A   1     -28.149  -0.820  28.908  0.00  0.00    -0.042 Cl
ATOM      8  C   UNL A   1     -27.834   0.496  29.060  0.00  0.00    +0.350 C 
ATOM      9  F   UNL A   1     -27.883   1.038  30.194  0.00  0.00    -0.182 F 
ATOM     10  F   UNL A   1     -28.611   1.249  28.224  0.00  0.00    -0.182 F 
ENDBRANCH   1   8
TORSDOF 1
