MODEL 3738
MODEL 1
REMARK VINA RESULT:    -5.121      0.000      0.000
REMARK INTER + INTRA:          -5.603
REMARK INTER:                  -5.420
REMARK INTRA:                  -0.183
REMARK UNBOUND:                -0.183
REMARK  Name = No_3738-gen_results/8p0m/2024-11-26-14-13-15/
REMARK  1 active torsions:
REMARK  status: ('A' for Active; 'I' for Inactive)
REMARK    1  A    between atoms: C_2  and  C_4
REMARK                            x       y       z     vdW  Elec       q    Type
REMARK                         _______ _______ _______ _____ _____    ______ ____
ROOT
ATOM      1  C   UNL A   1     -24.411  -2.592  29.218  0.00  0.00    +0.053 A 
ATOM      2  C   UNL A   1     -25.731  -2.521  29.595  0.00  0.00    +0.002 A 
ATOM      3  C   UNL A   1     -26.425  -3.704  29.858  0.00  0.00    -0.000 A 
ATOM      4  C   UNL A   1     -25.905  -4.942  29.470  0.00  0.00    -0.000 A 
ATOM      5  C   UNL A   1     -24.659  -4.943  28.932  0.00  0.00    -0.000 A 
ATOM      6  C   UNL A   1     -23.898  -3.817  28.855  0.00  0.00    +0.002 A 
ENDROOT
BRANCH   1   8
ATOM      7 CL   UNL A   1     -24.037  -0.488  28.105  0.00  0.00    -0.042 Cl
ATOM      8  C   UNL A   1     -23.585  -1.260  29.131  0.00  0.00    +0.350 C 
ATOM      9  F   UNL A   1     -23.562  -0.813  30.306  0.00  0.00    -0.182 F 
ATOM     10  F   UNL A   1     -22.321  -1.699  28.847  0.00  0.00    -0.182 F 
ENDBRANCH   1   8
TORSDOF 1
ENDMDL
ENDMDL
