REMARK  Name = No_3739-gen_results/8p0m/2024-11-26-14-13-15/
REMARK  3 active torsions:
REMARK  status: ('A' for Active; 'I' for Inactive)
REMARK    1  A    between atoms: C_2  and  N_7
REMARK    2  A    between atoms: N_7  and  C_8
REMARK    3  A    between atoms: C_8  and  C_10
REMARK                            x       y       z     vdW  Elec       q    Type
REMARK                         _______ _______ _______ _____ _____    ______ ____
ROOT
ATOM      1  N   UNL A   1     -27.106   1.034  27.819  0.00  0.00    -0.302 N 
ATOM      2  C   UNL A   1     -28.512   1.334  27.411  0.00  0.00    +0.113 C 
ENDROOT
BRANCH   1   4
ATOM      3  C   UNL A   1     -28.016  -0.814  28.878  0.00  0.00    +0.015 A 
ATOM      4  C   UNL A   1     -27.064  -0.119  28.608  0.00  0.00    +0.048 A 
ATOM      5  C   UNL A   1     -25.792  -0.430  29.076  0.00  0.00    +0.015 A 
ATOM      6  C   UNL A   1     -25.576  -1.565  29.936  0.00  0.00    +0.001 A 
ATOM      7  C   UNL A   1     -26.735  -2.300  30.217  0.00  0.00    +0.000 A 
ATOM      8  C   UNL A   1     -27.918  -1.954  29.763  0.00  0.00    +0.001 A 
ENDBRANCH   1   4
BRANCH   1   9
ATOM      9  C   UNL A   1     -26.261   1.329  26.904  0.00  0.00    +0.118 C 
BRANCH   9  10
ATOM     10  C   UNL A   1     -25.479   2.310  27.087  0.00  0.00    +0.002 A 
ATOM     11  C   UNL A   1     -24.209   2.585  26.360  0.00  0.00    +0.018 A 
ATOM     12  C   UNL A   1     -23.386   3.698  26.787  0.00  0.00    +0.100 A 
ATOM     13  C   UNL A   1     -25.640   3.361  28.150  0.00  0.00    +0.035 A 
ATOM     14  C   UNL A   1     -24.873   4.449  28.373  0.00  0.00    +0.170 A 
ATOM     15  N   UNL A   1     -25.208   5.376  29.354  0.00  0.00    -0.107 NA
ATOM     16  N   UNL A   1     -23.794   4.615  27.584  0.00  0.00    -0.226 NA
ENDBRANCH   9  10
ENDBRANCH   1   9
TORSDOF 3
