MODEL 373
MODEL 1
REMARK VINA RESULT:    -7.628      0.000      0.000
REMARK INTER + INTRA:          -9.279
REMARK INTER:                  -8.965
REMARK INTRA:                  -0.313
REMARK UNBOUND:                -0.313
REMARK  Name = No_373-gen_results/8p0m/2024-11-26-14-13-15/
REMARK  3 active torsions:
REMARK  status: ('A' for Active; 'I' for Inactive)
REMARK    1  A    between atoms: C_3  and  C_7
REMARK    2  A    between atoms: C_7  and  C_8
REMARK    3  A    between atoms: C_13  and  C_16
REMARK                            x       y       z     vdW  Elec       q    Type
REMARK                         _______ _______ _______ _____ _____    ______ ____
ROOT
ATOM      1  C   UNL A   1     -24.931  -0.249  30.173  0.00  0.00    +0.077 C 
ATOM      2  C   UNL A   1     -24.078  -0.742  31.265  0.00  0.00    +0.087 C 
ATOM      3 CL   UNL A   1     -24.396  -1.115  32.527  0.00  0.00    -0.115 Cl
ATOM      4  C   UNL A   1     -22.613  -0.711  30.758  0.00  0.00    +0.017 C 
ATOM      5  C   UNL A   1     -22.307  -0.080  29.625  0.00  0.00    +0.017 C 
ATOM      6  C   UNL A   1     -23.208   0.614  28.799  0.00  0.00    +0.152 C 
ATOM      7  C   UNL A   1     -24.493   0.406  29.009  0.00  0.00    +0.160 C 
ATOM      8  O   UNL A   1     -25.253   1.247  28.472  0.00  0.00    -0.296 OA
ENDROOT
BRANCH   6   9
ATOM      9  C   UNL A   1     -22.751   1.259  27.542  0.00  0.00    +0.404 C 
ATOM     10  F   UNL A   1     -23.407   0.721  26.524  0.00  0.00    -0.170 F 
ATOM     11  F   UNL A   1     -22.974   2.570  27.587  0.00  0.00    -0.170 F 
ATOM     12  F   UNL A   1     -21.472   1.088  27.400  0.00  0.00    -0.170 F 
ENDBRANCH   6   9
BRANCH   1  13
ATOM     13  C   UNL A   1     -25.519  -1.056  29.559  0.00  0.00    +0.030 C 
ATOM     14  C   UNL A   1     -27.050  -0.683  29.118  0.00  0.00    +0.005 C 
BRANCH  13  17
ATOM     15  C   UNL A   1     -24.154  -3.053  28.707  0.00  0.00    -0.004 A 
ATOM     16  C   UNL A   1     -24.071  -4.101  28.631  0.00  0.00    -0.000 A 
ATOM     17  C   UNL A   1     -25.300  -2.527  29.342  0.00  0.00    -0.022 A 
ATOM     18  C   UNL A   1     -26.297  -3.341  29.843  0.00  0.00    -0.004 A 
ATOM     19  C   UNL A   1     -24.975  -5.179  29.078  0.00  0.00    -0.000 A 
ATOM     20  C   UNL A   1     -26.087  -4.718  29.691  0.00  0.00    -0.000 A 
ENDBRANCH  13  17
ENDBRANCH   1  13
TORSDOF 3
ENDMDL
ENDMDL
