MODEL 3740
MODEL 1
REMARK VINA RESULT:    -5.597      0.000      0.000
REMARK INTER + INTRA:          -6.591
REMARK INTER:                  -6.252
REMARK INTRA:                  -0.339
REMARK UNBOUND:                -0.339
REMARK  Name = No_3740-gen_results/8p0m/2024-11-26-14-13-15/
REMARK  2 active torsions:
REMARK  status: ('A' for Active; 'I' for Inactive)
REMARK    1  A    between atoms: C_4  and  C_7
REMARK    2  A    between atoms: C_8  and  C_9
REMARK                            x       y       z     vdW  Elec       q    Type
REMARK                         _______ _______ _______ _____ _____    ______ ____
ROOT
ATOM      1  C   UNL A   1     -26.697  -3.609  30.037  0.00  0.00    +0.000 A 
ATOM      2  C   UNL A   1     -26.356  -4.547  29.698  0.00  0.00    +0.000 A 
ATOM      3  C   UNL A   1     -25.666  -2.503  30.033  0.00  0.00    -0.000 A 
ATOM      4  C   UNL A   1     -24.398  -2.741  29.462  0.00  0.00    -0.000 A 
ATOM      5  C   UNL A   1     -25.129  -5.044  29.036  0.00  0.00    +0.000 A 
ATOM      6  C   UNL A   1     -24.160  -4.052  29.008  0.00  0.00    -0.000 A 
ENDROOT
BRANCH   4   7
ATOM      7  C   UNL A   1     -23.508  -1.698  29.645  0.00  0.00    -0.000 C 
ATOM      8  C   UNL A   1     -23.230  -0.682  28.872  0.00  0.00    -0.000 C 
BRANCH   8   9
ATOM      9  C   UNL A   1     -24.060  -0.247  27.829  0.00  0.00    -0.005 C 
ATOM     10  C   UNL A   1     -23.871   1.070  27.425  0.00  0.00    -0.026 C 
ATOM     11  C   UNL A   1     -22.568   1.586  27.336  0.00  0.00    +0.031 C 
ENDBRANCH   8   9
ENDBRANCH   4   7
TORSDOF 2
ENDMDL
ENDMDL
