MODEL 3741
MODEL 1
REMARK VINA RESULT:    -7.436      0.000      0.000
REMARK INTER + INTRA:          -9.032
REMARK INTER:                  -8.305
REMARK INTRA:                  -0.727
REMARK UNBOUND:                -0.727
REMARK  Name = No_3741-gen_results/8p0m/2024-11-26-14-13-15/
REMARK  2 active torsions:
REMARK  status: ('A' for Active; 'I' for Inactive)
REMARK    1  A    between atoms: C_3  and  C_11
REMARK    2  A    between atoms: C_11  and  C_12
REMARK                            x       y       z     vdW  Elec       q    Type
REMARK                         _______ _______ _______ _____ _____    ______ ____
ROOT
ATOM      1  C   UNL A   1     -26.938  -1.229  30.891  0.00  0.00    -0.000 A 
ATOM      2  C   UNL A   1     -26.018  -0.605  30.413  0.00  0.00    -0.004 A 
ATOM      3  C   UNL A   1     -24.975  -1.153  29.687  0.00  0.00    -0.015 A 
ATOM      4  C   UNL A   1     -25.010  -2.561  29.462  0.00  0.00    -0.004 A 
ATOM      5  C   UNL A   1     -24.001  -3.182  28.844  0.00  0.00    -0.000 A 
ATOM      6  C   UNL A   1     -27.169  -2.569  30.413  0.00  0.00    -0.000 A 
ATOM      7  C   UNL A   1     -26.116  -3.227  29.844  0.00  0.00    -0.000 A 
ATOM      8  C   UNL A   1     -26.226  -4.656  29.588  0.00  0.00    -0.000 A 
ATOM      9  C   UNL A   1     -25.148  -5.366  29.061  0.00  0.00    -0.000 A 
ATOM     10  C   UNL A   1     -23.956  -4.614  28.611  0.00  0.00    -0.000 A 
ENDROOT
BRANCH   3  11
ATOM     11  C   UNL A   1     -23.721  -0.353  29.350  0.00  0.00    +0.079 C 
ATOM     12  C   UNL A   1     -22.948   0.014  30.542  0.00  0.00    +0.013 C 
BRANCH  11  13
ATOM     13  C   UNL A   1     -23.417  -0.072  28.019  0.00  0.00    +0.115 C 
ATOM     14  C   UNL A   1     -24.575   0.153  27.186  0.00  0.00    +0.006 C 
ATOM     15  C   UNL A   1     -25.049   1.112  26.871  0.00  0.00    +0.029 C 
ATOM     16  C   UNL A   1     -24.410   2.385  27.221  0.00  0.00    +0.009 C 
ATOM     17  C   UNL A   1     -23.097   2.460  26.809  0.00  0.00    +0.048 C 
ATOM     18  C   UNL A   1     -22.082   1.788  27.620  0.00  0.00    +0.205 C 
ATOM     19  O   UNL A   1     -22.269   0.342  27.748  0.00  0.00    -0.480 OA
ENDBRANCH  11  13
ENDBRANCH   3  11
TORSDOF 2
ENDMDL
ENDMDL
