REMARK  Name = No_3742-gen_results/8p0m/2024-11-26-14-13-15/
REMARK  4 active torsions:
REMARK  status: ('A' for Active; 'I' for Inactive)
REMARK    1  A    between atoms: C_2  and  C_4
REMARK    2  A    between atoms: C_4  and  C_6
REMARK    3  A    between atoms: C_7  and  C_8
REMARK    4  A    between atoms: C_9  and  C_10
REMARK                            x       y       z     vdW  Elec       q    Type
REMARK                         _______ _______ _______ _____ _____    ______ ____
ROOT
ATOM      1  C   UNL A   1     -30.210   1.549  29.995  0.00  0.00    -0.019 C 
ATOM      2  C   UNL A   1     -29.623   2.067  31.053  0.00  0.00    -0.004 C 
ENDROOT
BRANCH   2   3
ATOM      3  C   UNL A   1     -30.163   3.107  31.977  0.00  0.00    -0.000 C 
ATOM      4  C   UNL A   1     -29.466   3.600  33.098  0.00  0.00    -0.000 C 
BRANCH   4   5
ATOM      5  C   UNL A   1     -28.117   3.066  33.333  0.00  0.00    -0.000 C 
ATOM      6  C   UNL A   1     -27.566   2.097  32.484  0.00  0.00    -0.000 C 
ENDBRANCH   4   5
ENDBRANCH   2   3
BRANCH   1   7
ATOM      7  C   UNL A   1     -29.679   0.847  29.336  0.00  0.00    +0.109 C 
BRANCH   7   9
ATOM      8 CL   UNL A   1     -28.149  -0.820  28.908  0.00  0.00    -0.047 Cl
ATOM      9  C   UNL A   1     -28.532  -0.047  29.773  0.00  0.00    +0.334 C 
ATOM     10  F   UNL A   1     -27.651   0.717  30.309  0.00  0.00    -0.186 F 
ATOM     11  F   UNL A   1     -28.971  -0.670  31.003  0.00  0.00    -0.186 F 
ENDBRANCH   7   9
ENDBRANCH   1   7
TORSDOF 4
