MODEL 3742
MODEL 1
REMARK VINA RESULT:    -4.832      0.000      0.000
REMARK INTER + INTRA:          -6.343
REMARK INTER:                  -5.962
REMARK INTRA:                  -0.380
REMARK UNBOUND:                -0.380
REMARK  Name = No_3742-gen_results/8p0m/2024-11-26-14-13-15/
REMARK  4 active torsions:
REMARK  status: ('A' for Active; 'I' for Inactive)
REMARK    1  A    between atoms: C_2  and  C_4
REMARK    2  A    between atoms: C_4  and  C_6
REMARK    3  A    between atoms: C_7  and  C_8
REMARK    4  A    between atoms: C_9  and  C_10
REMARK                            x       y       z     vdW  Elec       q    Type
REMARK                         _______ _______ _______ _____ _____    ______ ____
ROOT
ATOM      1  C   UNL A   1     -22.757   1.526  27.951  0.00  0.00    -0.019 C 
ATOM      2  C   UNL A   1     -22.357   0.412  28.526  0.00  0.00    -0.004 C 
ENDROOT
BRANCH   2   3
ATOM      3  C   UNL A   1     -22.707  -0.086  29.888  0.00  0.00    -0.000 C 
ATOM      4  C   UNL A   1     -23.290  -1.345  30.138  0.00  0.00    -0.000 C 
BRANCH   4   5
ATOM      5  C   UNL A   1     -23.529  -2.212  28.976  0.00  0.00    -0.000 C 
ATOM      6  C   UNL A   1     -24.256  -3.403  29.102  0.00  0.00    -0.000 C 
ENDBRANCH   4   5
ENDBRANCH   2   3
BRANCH   1   7
ATOM      7  C   UNL A   1     -22.365   1.834  26.970  0.00  0.00    +0.109 C 
BRANCH   7   9
ATOM      8 CL   UNL A   1     -24.057   1.339  25.489  0.00  0.00    -0.047 Cl
ATOM      9  C   UNL A   1     -23.224   2.187  25.769  0.00  0.00    +0.334 C 
ATOM     10  F   UNL A   1     -23.646   3.385  25.956  0.00  0.00    -0.186 F 
ATOM     11  F   UNL A   1     -22.295   2.511  24.708  0.00  0.00    -0.186 F 
ENDBRANCH   7   9
ENDBRANCH   1   7
TORSDOF 4
ENDMDL
ENDMDL
