MODEL 3743
MODEL 1
REMARK VINA RESULT:    -6.336      0.000      0.000
REMARK INTER + INTRA:          -6.774
REMARK INTER:                  -6.707
REMARK INTRA:                  -0.067
REMARK UNBOUND:                -0.067
REMARK  Name = No_3743-gen_results/8p0m/2024-11-26-14-13-15/
REMARK  1 active torsions:
REMARK  status: ('A' for Active; 'I' for Inactive)
REMARK    1  A    between atoms: C_9  and  C_11
REMARK                            x       y       z     vdW  Elec       q    Type
REMARK                         _______ _______ _______ _____ _____    ______ ____
ROOT
ATOM      1  C   UNL A   1     -30.693  -9.841  29.608  0.00  0.00    +0.000 A 
ATOM      2  C   UNL A   1     -30.556 -10.170  28.616  0.00  0.00    +0.000 A 
ATOM      3  C   UNL A   1     -30.006 -10.530  30.631  0.00  0.00    +0.000 A 
ATOM      4  C   UNL A   1     -30.003 -10.129  32.063  0.00  0.00    +0.000 A 
ATOM      5  C   UNL A   1     -29.756 -11.275  28.060  0.00  0.00    +0.000 A 
ATOM      6  C   UNL A   1     -29.050 -12.005  29.017  0.00  0.00    +0.000 A 
ATOM      7  C   UNL A   1     -29.116 -11.627  30.319  0.00  0.00    +0.000 A 
ATOM      8  C   UNL A   1     -29.299 -10.265  32.940  0.00  0.00    +0.007 A 
ATOM      9  C   UNL A   1     -28.162 -11.256  32.632  0.00  0.00    +0.080 A 
ATOM     10  C   UNL A   1     -28.109 -11.899  31.373  0.00  0.00    +0.007 A 
ENDROOT
BRANCH   9  11
ATOM     11  C   UNL A   1     -27.226 -11.639  33.761  0.00  0.00    +0.388 C 
ATOM     12  O   UNL A   1     -26.784 -10.784  34.576  0.00  0.00    -0.241 OA
ATOM     13  O   UNL A   1     -26.687 -12.762  33.744  0.00  0.00    -0.241 OA
ENDBRANCH   9  11
TORSDOF 1
ENDMDL
ENDMDL
