MODEL 3744
MODEL 1
REMARK VINA RESULT:    -6.596      0.000      0.000
REMARK INTER + INTRA:          -7.365
REMARK INTER:                  -6.982
REMARK INTRA:                  -0.383
REMARK UNBOUND:                -0.383
REMARK  Name = No_3744-gen_results/8p0m/2024-11-26-14-13-15/
REMARK  1 active torsions:
REMARK  status: ('A' for Active; 'I' for Inactive)
REMARK    1  A    between atoms: C_4  and  C_7
REMARK                            x       y       z     vdW  Elec       q    Type
REMARK                         _______ _______ _______ _____ _____    ______ ____
ROOT
ATOM      1  C   UNL A   1     -24.483  -5.204  28.876  0.00  0.00    +0.000 A 
ATOM      2  C   UNL A   1     -25.459  -5.208  29.272  0.00  0.00    +0.000 A 
ATOM      3  C   UNL A   1     -23.910  -3.889  28.547  0.00  0.00    +0.000 A 
ATOM      4  C   UNL A   1     -24.603  -2.691  28.887  0.00  0.00    +0.000 A 
ATOM      5  C   UNL A   1     -25.842  -2.853  29.455  0.00  0.00    +0.000 A 
ATOM      6  C   UNL A   1     -26.330  -4.085  29.712  0.00  0.00    +0.000 A 
ENDROOT
BRANCH   4   7
ATOM      7  C   UNL A   1     -24.050  -1.395  28.589  0.00  0.00    +0.000 A 
ATOM      8  C   UNL A   1     -24.462  -0.646  28.038  0.00  0.00    +0.000 A 
ATOM      9  C   UNL A   1     -23.782   0.650  27.549  0.00  0.00    +0.000 A 
ATOM     10  C   UNL A   1     -22.492   0.770  28.030  0.00  0.00    +0.000 A 
ATOM     11  C   UNL A   1     -22.693  -1.212  29.256  0.00  0.00    +0.000 A 
ATOM     12  C   UNL A   1     -21.948  -0.128  28.834  0.00  0.00    +0.000 A 
ENDBRANCH   4   7
TORSDOF 1
ENDMDL
ENDMDL
