MODEL 3745
MODEL 1
REMARK VINA RESULT:    -4.928      0.000      0.000
REMARK INTER + INTRA:          -5.289
REMARK INTER:                  -5.216
REMARK INTRA:                  -0.073
REMARK UNBOUND:                -0.073
REMARK  Name = No_3745-gen_results/8p0m/2024-11-26-14-13-15/
REMARK  1 active torsions:
REMARK  status: ('A' for Active; 'I' for Inactive)
REMARK    1  A    between atoms: C_2  and  C_7
REMARK                            x       y       z     vdW  Elec       q    Type
REMARK                         _______ _______ _______ _____ _____    ______ ____
ROOT
ATOM      1  C   UNL A   1     -23.887  -3.570  28.564  0.00  0.00    -0.000 A 
ATOM      2  C   UNL A   1     -24.655  -2.697  28.897  0.00  0.00    -0.000 A 
ATOM      3  C   UNL A   1     -25.869  -3.000  29.503  0.00  0.00    -0.000 A 
ATOM      4  C   UNL A   1     -26.271  -4.367  29.713  0.00  0.00    -0.000 A 
ATOM      5  C   UNL A   1     -25.334  -5.313  29.278  0.00  0.00    -0.000 A 
ATOM      6  C   UNL A   1     -24.207  -4.975  28.695  0.00  0.00    -0.000 A 
ENDROOT
BRANCH   2   7
ATOM      7  C   UNL A   1     -24.417  -1.237  28.732  0.00  0.00    -0.005 C 
ATOM      8  C   UNL A   1     -23.590  -0.572  29.458  0.00  0.00    -0.026 C 
ATOM      9  C   UNL A   1     -23.355  -1.056  30.885  0.00  0.00    +0.031 C 
ENDBRANCH   2   7
TORSDOF 1
ENDMDL
ENDMDL
