REMARK  Name = No_3746-gen_results/8p0m/2024-11-26-14-13-15/
REMARK  3 active torsions:
REMARK  status: ('A' for Active; 'I' for Inactive)
REMARK    1  A    between atoms: C_3  and  C_14
REMARK    2  A    between atoms: C_4  and  N_8
REMARK    3  A    between atoms: C_10  and  C_17
REMARK                            x       y       z     vdW  Elec       q    Type
REMARK                         _______ _______ _______ _____ _____    ______ ____
ROOT
ATOM      1  C   UNL A   1     -28.016  -0.814  28.878  0.00  0.00    +0.035 A 
ATOM      2  C   UNL A   1     -28.469  -0.785  29.829  0.00  0.00    +0.140 A 
ATOM      3  C   UNL A   1     -26.504  -0.778  28.877  0.00  0.00    +0.087 A 
ATOM      4  C   UNL A   1     -25.810  -0.853  30.103  0.00  0.00    +0.053 A 
ATOM      5  C   UNL A   1     -27.991  -0.892  31.226  0.00  0.00    +0.031 A 
ATOM      6  C   UNL A   1     -26.604  -0.868  31.265  0.00  0.00    +0.017 A 
ATOM      7  F   UNL A   1     -29.920  -0.833  29.824  0.00  0.00    -0.204 F 
ENDROOT
BRANCH   4   8
ATOM      8  N   UNL A   1     -24.464  -0.798  30.131  0.00  0.00    -0.286 N 
ATOM      9  C   UNL A   1     -23.705  -1.423  30.449  0.00  0.00    +0.184 C 
ATOM     10  C   UNL A   1     -23.909   0.462  29.517  0.00  0.00    +0.167 C 
ATOM     11  C   UNL A   1     -22.563   0.443  29.300  0.00  0.00    +0.049 C 
ATOM     12  N   UNL A   1     -22.345  -1.497  30.475  0.00  0.00    -0.197 NA
ATOM     13  C   UNL A   1     -21.760  -0.522  29.859  0.00  0.00    +0.093 C 
BRANCH  10  14
ATOM     14  C   UNL A   1     -24.522   1.719  29.974  0.00  0.00    +0.328 C 
ATOM     15  O   UNL A   1     -24.582   2.088  31.100  0.00  0.00    -0.257 OA
ATOM     16  F   UNL A   1     -24.802   2.606  29.023  0.00  0.00    -0.162 F 
ENDBRANCH  10  14
ENDBRANCH   4   8
BRANCH   3  17
ATOM     17  C   UNL A   1     -25.695  -0.722  27.648  0.00  0.00    +0.420 C 
ATOM     18  F   UNL A   1     -26.385  -0.162  26.678  0.00  0.00    -0.166 F 
ATOM     19  F   UNL A   1     -24.605   0.048  27.866  0.00  0.00    -0.166 F 
ATOM     20  F   UNL A   1     -25.116  -1.837  27.382  0.00  0.00    -0.166 F 
ENDBRANCH   3  17
TORSDOF 3
