MODEL 3746
MODEL 1
REMARK VINA RESULT:    -6.171      0.000      0.000
REMARK INTER + INTRA:          -6.887
REMARK INTER:                  -7.253
REMARK INTRA:                   0.366
REMARK UNBOUND:                 0.366
REMARK  Name = No_3746-gen_results/8p0m/2024-11-26-14-13-15/
REMARK  3 active torsions:
REMARK  status: ('A' for Active; 'I' for Inactive)
REMARK    1  A    between atoms: C_3  and  C_14
REMARK    2  A    between atoms: C_4  and  N_8
REMARK    3  A    between atoms: C_10  and  C_17
REMARK                            x       y       z     vdW  Elec       q    Type
REMARK                         _______ _______ _______ _____ _____    ______ ____
ROOT
ATOM      1  C   UNL A   1     -23.131  -1.795  28.947  0.00  0.00    +0.035 A 
ATOM      2  C   UNL A   1     -24.000  -2.382  28.837  0.00  0.00    +0.140 A 
ATOM      3  C   UNL A   1     -23.274  -0.343  28.551  0.00  0.00    +0.087 A 
ATOM      4  C   UNL A   1     -24.547   0.159  28.209  0.00  0.00    +0.053 A 
ATOM      5  C   UNL A   1     -25.424  -2.108  28.543  0.00  0.00    +0.031 A 
ATOM      6  C   UNL A   1     -25.596  -0.779  28.180  0.00  0.00    +0.017 A 
ATOM      7  F   UNL A   1     -23.860  -3.772  29.231  0.00  0.00    -0.204 F 
ENDROOT
BRANCH   4   8
ATOM      8  N   UNL A   1     -24.697   1.443  27.829  0.00  0.00    -0.286 N 
ATOM      9  C   UNL A   1     -24.890   2.338  28.308  0.00  0.00    +0.184 C 
ATOM     10  C   UNL A   1     -24.499   1.650  26.349  0.00  0.00    +0.167 C 
ATOM     11  C   UNL A   1     -24.394   2.955  25.967  0.00  0.00    +0.049 C 
ATOM     12  N   UNL A   1     -25.003   3.670  28.043  0.00  0.00    -0.197 NA
ATOM     13  C   UNL A   1     -24.728   3.981  26.818  0.00  0.00    +0.093 C 
BRANCH  10  14
ATOM     14  C   UNL A   1     -25.234   0.726  25.471  0.00  0.00    +0.328 C 
ATOM     15  O   UNL A   1     -26.394   0.780  25.228  0.00  0.00    -0.257 OA
ATOM     16  F   UNL A   1     -24.485  -0.069  24.711  0.00  0.00    -0.162 F 
ENDBRANCH  10  14
ENDBRANCH   4   8
BRANCH   3  17
ATOM     17  C   UNL A   1     -22.152   0.612  28.552  0.00  0.00    +0.420 C 
ATOM     18  F   UNL A   1     -22.330   1.517  29.489  0.00  0.00    -0.166 F 
ATOM     19  F   UNL A   1     -21.006  -0.047  28.836  0.00  0.00    -0.166 F 
ATOM     20  F   UNL A   1     -21.863   1.040  27.376  0.00  0.00    -0.166 F 
ENDBRANCH   3  17
TORSDOF 3
ENDMDL
ENDMDL
