REMARK  Name = No_3747-gen_results/8p0m/2024-11-26-14-13-15/
REMARK  8 active torsions:
REMARK  status: ('A' for Active; 'I' for Inactive)
REMARK    1  A    between atoms: C_1  and  O_9
REMARK    2  A    between atoms: C_3  and  C_11
REMARK    3  A    between atoms: O_9  and  C_17
REMARK    4  A    between atoms: C_18  and  N_19
REMARK    5  A    between atoms: N_19  and  C_20
REMARK    6  A    between atoms: N_19  and  C_26
REMARK    7  A    between atoms: C_26  and  C_27
REMARK    8  A    between atoms: C_32  and  O_33
REMARK                            x       y       z     vdW  Elec       q    Type
REMARK                         _______ _______ _______ _____ _____    ______ ____
ROOT
ATOM      1  C   UNL A   1     -27.340  -1.599  30.977  0.00  0.00    +0.238 C 
ATOM      2  C   UNL A   1     -27.937  -1.779  32.270  0.00  0.00    +0.291 C 
ATOM      3  O   UNL A   1     -27.164  -1.043  32.530  0.00  0.00    -0.266 OA
ENDROOT
BRANCH   1   4
ATOM      4  O   UNL A   1     -28.054  -1.601  30.052  0.00  0.00    -0.443 OA
BRANCH   4   5
ATOM      5  C   UNL A   1     -28.016  -0.814  28.878  0.00  0.00    +0.175 A 
ATOM      6  C   UNL A   1     -27.064  -0.119  28.608  0.00  0.00    +0.175 A 
ATOM      7  C   UNL A   1     -27.001   0.691  27.491  0.00  0.00    +0.043 A 
ATOM      8  C   UNL A   1     -28.137   0.736  26.635  0.00  0.00    +0.087 A 
ATOM      9  C   UNL A   1     -29.236   0.076  27.069  0.00  0.00    +0.154 A 
ATOM     10  C   UNL A   1     -29.218  -0.643  28.175  0.00  0.00    +0.070 A 
ATOM     11  F   UNL A   1     -30.220   0.129  26.181  0.00  0.00    -0.203 F 
ATOM     12  F   UNL A   1     -25.900  -0.153  29.379  0.00  0.00    -0.201 F 
ATOM     13 CL   UNL A   1     -27.986   1.733  25.238  0.00  0.00    -0.080 Cl
BRANCH   7  14
ATOM     14  C   UNL A   1     -25.693   1.424  27.099  0.00  0.00    +0.003 A 
ATOM     15  C   UNL A   1     -24.670   1.008  26.794  0.00  0.00    +0.000 A 
ATOM     16  C   UNL A   1     -23.461   1.820  26.654  0.00  0.00    +0.000 A 
ATOM     17  C   UNL A   1     -23.696   3.186  26.795  0.00  0.00    +0.000 A 
ATOM     18  C   UNL A   1     -25.850   2.912  27.201  0.00  0.00    +0.000 A 
ATOM     19  C   UNL A   1     -24.835   3.720  27.019  0.00  0.00    +0.000 A 
ENDBRANCH   7  14
ENDBRANCH   4   5
ENDBRANCH   1   4
BRANCH   2  20
ATOM     20  N   UNL A   1     -28.934  -0.866  32.477  0.00  0.00    -0.248 N 
BRANCH  20  21
ATOM     21  C   UNL A   1     -29.024   0.301  32.193  0.00  0.00    +0.054 A 
ATOM     22  C   UNL A   1     -30.252   1.047  32.445  0.00  0.00    +0.015 A 
ATOM     23  C   UNL A   1     -30.465   2.346  32.079  0.00  0.00    +0.001 A 
ATOM     24  C   UNL A   1     -29.437   3.027  31.311  0.00  0.00    +0.000 A 
ATOM     25  C   UNL A   1     -28.246   2.318  30.993  0.00  0.00    +0.001 A 
ATOM     26  C   UNL A   1     -28.057   1.069  31.412  0.00  0.00    +0.015 A 
ENDBRANCH  20  21
BRANCH  20  27
ATOM     27  C   UNL A   1     -29.558  -1.149  33.856  0.00  0.00    +0.128 C 
BRANCH  27  28
ATOM     28  C   UNL A   1     -29.722  -2.408  34.164  0.00  0.00    +0.032 A 
ATOM     29  C   UNL A   1     -30.942  -2.735  34.384  0.00  0.00    +0.000 A 
ATOM     30  C   UNL A   1     -31.261  -4.128  34.259  0.00  0.00    -0.000 A 
ATOM     31  C   UNL A   1     -30.491  -4.809  33.546  0.00  0.00    +0.003 A 
ATOM     32  C   UNL A   1     -29.167  -4.526  33.133  0.00  0.00    +0.037 A 
ATOM     33  C   UNL A   1     -28.871  -3.208  33.283  0.00  0.00    +0.136 A 
BRANCH  33  34
ATOM     34  O   UNL A   1     -27.587  -3.208  33.481  0.00  0.00    -0.472 OA
ATOM     35  C   UNL A   1     -27.342  -2.471  34.598  0.00  0.00    +0.253 C 
ENDBRANCH  33  34
ENDBRANCH  27  28
ENDBRANCH  20  27
ENDBRANCH   2  20
TORSDOF 8
