REMARK  Name = No_3748-gen_results/8p0m/2024-11-26-14-13-15/
REMARK  4 active torsions:
REMARK  status: ('A' for Active; 'I' for Inactive)
REMARK    1  A    between atoms: C_3  and  C_7
REMARK    2  A    between atoms: C_6  and  O_13
REMARK    3  A    between atoms: O_13  and  C_14
REMARK    4  A    between atoms: C_14  and  C_15
REMARK                            x       y       z     vdW  Elec       q    Type
REMARK                         _______ _______ _______ _____ _____    ______ ____
ROOT
ATOM      1  C   UNL A   1     -28.016  -0.814  28.878  0.00  0.00    +0.037 A 
ATOM      2  C   UNL A   1     -27.064  -0.119  28.608  0.00  0.00    +0.003 A 
ATOM      3  C   UNL A   1     -25.765  -0.390  29.036  0.00  0.00    +0.000 A 
ATOM      4  C   UNL A   1     -25.530  -1.530  29.901  0.00  0.00    +0.003 A 
ATOM      5  C   UNL A   1     -26.658  -2.292  30.203  0.00  0.00    +0.037 A 
ATOM      6  C   UNL A   1     -27.855  -1.956  29.763  0.00  0.00    +0.140 A 
ENDROOT
BRANCH   3   7
ATOM      7  C   UNL A   1     -24.535   0.413  28.743  0.00  0.00    +0.000 A 
ATOM      8  C   UNL A   1     -24.483   1.243  27.740  0.00  0.00    +0.000 A 
ATOM      9  C   UNL A   1     -23.313   1.855  27.351  0.00  0.00    +0.000 A 
ATOM     10  C   UNL A   1     -22.078   1.619  27.959  0.00  0.00    +0.000 A 
ATOM     11  C   UNL A   1     -23.451   0.502  29.693  0.00  0.00    +0.000 A 
ATOM     12  C   UNL A   1     -22.136   0.927  29.233  0.00  0.00    +0.000 A 
ENDBRANCH   3   7
BRANCH   6  13
ATOM     13  O   UNL A   1     -28.921  -2.733  30.122  0.00  0.00    -0.459 OA
BRANCH  13  14
ATOM     14  C   UNL A   1     -30.030  -2.238  30.598  0.00  0.00    +0.309 C 
BRANCH  14  15
ATOM     15  C   UNL A   1     -30.215  -1.278  31.017  0.00  0.00    +0.122 C 
ATOM     16  N   UNL A   1     -30.619  -0.289  31.163  0.00  0.00    -0.192 NA
ENDBRANCH  14  15
ENDBRANCH  13  14
ENDBRANCH   6  13
TORSDOF 4
