MODEL 3748
MODEL 1
REMARK VINA RESULT:    -5.897      0.000      0.000
REMARK INTER + INTRA:          -7.720
REMARK INTER:                  -7.275
REMARK INTRA:                  -0.444
REMARK UNBOUND:                -0.444
REMARK  Name = No_3748-gen_results/8p0m/2024-11-26-14-13-15/
REMARK  4 active torsions:
REMARK  status: ('A' for Active; 'I' for Inactive)
REMARK    1  A    between atoms: C_3  and  C_7
REMARK    2  A    between atoms: C_6  and  O_13
REMARK    3  A    between atoms: O_13  and  C_14
REMARK    4  A    between atoms: C_14  and  C_15
REMARK                            x       y       z     vdW  Elec       q    Type
REMARK                         _______ _______ _______ _____ _____    ______ ____
ROOT
ATOM      1  C   UNL A   1     -27.112 -11.861  33.218  0.00  0.00    +0.037 A 
ATOM      2  C   UNL A   1     -27.511 -12.331  32.178  0.00  0.00    +0.003 A 
ATOM      3  C   UNL A   1     -28.547 -11.777  31.428  0.00  0.00    +0.000 A 
ATOM      4  C   UNL A   1     -29.237 -10.605  31.933  0.00  0.00    +0.003 A 
ATOM      5  C   UNL A   1     -28.758 -10.108  33.145  0.00  0.00    +0.037 A 
ATOM      6  C   UNL A   1     -27.777 -10.703  33.795  0.00  0.00    +0.140 A 
ENDROOT
BRANCH   3   7
ATOM      7  C   UNL A   1     -29.096 -12.292  30.133  0.00  0.00    +0.000 A 
ATOM      8  C   UNL A   1     -29.786 -13.395  30.073  0.00  0.00    +0.000 A 
ATOM      9  C   UNL A   1     -30.147 -13.974  28.877  0.00  0.00    +0.000 A 
ATOM     10  C   UNL A   1     -29.779 -13.465  27.630  0.00  0.00    +0.000 A 
ATOM     11  C   UNL A   1     -29.110 -11.473  28.943  0.00  0.00    +0.000 A 
ATOM     12  C   UNL A   1     -29.255 -12.111  27.642  0.00  0.00    +0.000 A 
ENDBRANCH   3   7
BRANCH   6  13
ATOM     13  O   UNL A   1     -27.377 -10.177  34.992  0.00  0.00    -0.459 OA
BRANCH  13  14
ATOM     14  C   UNL A   1     -26.850  -8.989  35.102  0.00  0.00    +0.309 C 
BRANCH  14  15
ATOM     15  C   UNL A   1     -26.939  -8.282  35.892  0.00  0.00    +0.122 C 
ATOM     16  N   UNL A   1     -26.909  -7.353  36.438  0.00  0.00    -0.192 NA
ENDBRANCH  14  15
ENDBRANCH  13  14
ENDBRANCH   6  13
TORSDOF 4
ENDMDL
ENDMDL
