MODEL 3749
MODEL 1
REMARK VINA RESULT:    -7.668      0.000      0.000
REMARK INTER + INTRA:         -13.620
REMARK INTER:                 -11.702
REMARK INTRA:                  -1.918
REMARK UNBOUND:                -1.918
REMARK  Name = No_3749-gen_results/8p0m/2024-11-26-14-13-15/
REMARK  9 active torsions:
REMARK  status: ('A' for Active; 'I' for Inactive)
REMARK    1  A    between atoms: C_3  and  C_15
REMARK    2  A    between atoms: C_5  and  C_11
REMARK    3  A    between atoms: C_8  and  C_19
REMARK    4  A    between atoms: N_17  and  C_18
REMARK    5  A    between atoms: C_18  and  C_22
REMARK    6  A    between atoms: C_19  and  O_21
REMARK    7  A    between atoms: O_21  and  C_25
REMARK    8  A    between atoms: C_25  and  C_26
REMARK    9  A    between atoms: C_28  and  C_33
REMARK                            x       y       z     vdW  Elec       q    Type
REMARK                         _______ _______ _______ _____ _____    ______ ____
ROOT
ATOM      1  C   UNL A   1     -24.943  -1.359  30.042  0.00  0.00    +0.007 A 
ATOM      2  C   UNL A   1     -25.890  -2.102  30.161  0.00  0.00    +0.005 A 
ATOM      3  C   UNL A   1     -27.063  -1.749  30.800  0.00  0.00    +0.055 A 
ATOM      4  C   UNL A   1     -28.195  -2.626  31.036  0.00  0.00    +0.008 A 
ATOM      5  C   UNL A   1     -28.129  -3.960  30.576  0.00  0.00    +0.072 A 
ATOM      6  C   UNL A   1     -26.905  -4.344  29.920  0.00  0.00    +0.004 A 
ATOM      7  C   UNL A   1     -25.830  -3.506  29.740  0.00  0.00    +0.000 A 
ATOM      8  C   UNL A   1     -23.777  -1.797  29.188  0.00  0.00    +0.076 A 
ATOM      9  C   UNL A   1     -23.651  -3.154  28.820  0.00  0.00    +0.006 A 
ATOM     10  C   UNL A   1     -24.706  -4.009  29.030  0.00  0.00    +0.000 A 
ENDROOT
BRANCH   5  11
ATOM     11  C   UNL A   1     -29.224  -4.901  30.768  0.00  0.00    +0.419 C 
ATOM     12  F   UNL A   1     -29.762  -5.304  29.755  0.00  0.00    -0.166 F 
ATOM     13  F   UNL A   1     -30.192  -4.285  31.600  0.00  0.00    -0.166 F 
ATOM     14  F   UNL A   1     -28.802  -5.912  31.586  0.00  0.00    -0.166 F 
ENDBRANCH   5  11
BRANCH   3  15
ATOM     15  C   UNL A   1     -27.231  -0.405  31.387  0.00  0.00    +0.265 C 
ATOM     16  O   UNL A   1     -27.991   0.400  30.884  0.00  0.00    -0.268 OA
ATOM     17  N   UNL A   1     -26.739  -0.193  32.615  0.00  0.00    -0.189 NA
BRANCH  17  18
ATOM     18  C   UNL A   1     -26.876   1.053  33.281  0.00  0.00    +0.229 C 
BRANCH  18  19
ATOM     19  C   UNL A   1     -25.770   1.878  33.198  0.00  0.00    +0.387 C 
ATOM     20  O   UNL A   1     -25.660   2.912  33.617  0.00  0.00    -0.244 OA
ATOM     21  O   UNL A   1     -24.780   1.528  32.280  0.00  0.00    -0.244 OA
ENDBRANCH  18  19
ENDBRANCH  17  18
ENDBRANCH   3  15
BRANCH   8  22
ATOM     22  C   UNL A   1     -22.621  -0.884  28.976  0.00  0.00    +0.348 C 
ATOM     23  O   UNL A   1     -21.598  -1.263  29.016  0.00  0.00    -0.244 OA
BRANCH  22  24
ATOM     24  O   UNL A   1     -22.981   0.368  28.828  0.00  0.00    -0.386 OA
BRANCH  24  25
ATOM     25  C   UNL A   1     -22.732   1.043  27.611  0.00  0.00    +0.348 C 
ATOM     26  O   UNL A   1     -21.511   1.416  27.537  0.00  0.00    -0.244 OA
BRANCH  25  27
ATOM     27  C   UNL A   1     -23.790   1.472  26.941  0.00  0.00    +0.076 A 
ATOM     28  C   UNL A   1     -24.767   0.539  26.456  0.00  0.00    +0.006 A 
ATOM     29  C   UNL A   1     -25.918   1.018  25.751  0.00  0.00    -0.000 A 
ATOM     30  C   UNL A   1     -26.075   2.403  25.715  0.00  0.00    -0.000 A 
ATOM     31  C   UNL A   1     -25.254   3.234  26.317  0.00  0.00    +0.000 A 
ATOM     32  C   UNL A   1     -24.162   2.789  27.074  0.00  0.00    +0.006 A 
BRANCH  29  33
ATOM     33  C   UNL A   1     -26.751   0.133  24.973  0.00  0.00    -0.005 C 
ATOM     34  C   UNL A   1     -27.731   0.264  24.555  0.00  0.00    -0.026 C 
ATOM     35  C   UNL A   1     -28.543  -0.687  23.762  0.00  0.00    +0.031 C 
ENDBRANCH  29  33
ENDBRANCH  25  27
ENDBRANCH  24  25
ENDBRANCH  22  24
ENDBRANCH   8  22
TORSDOF 9
ENDMDL
ENDMDL
