REMARK  Name = No_3749-gen_results/8p0m/2024-11-26-14-13-15/
REMARK  9 active torsions:
REMARK  status: ('A' for Active; 'I' for Inactive)
REMARK    1  A    between atoms: C_3  and  C_15
REMARK    2  A    between atoms: C_5  and  C_11
REMARK    3  A    between atoms: C_8  and  C_19
REMARK    4  A    between atoms: N_17  and  C_18
REMARK    5  A    between atoms: C_18  and  C_22
REMARK    6  A    between atoms: C_19  and  O_21
REMARK    7  A    between atoms: O_21  and  C_25
REMARK    8  A    between atoms: C_25  and  C_26
REMARK    9  A    between atoms: C_28  and  C_33
REMARK                            x       y       z     vdW  Elec       q    Type
REMARK                         _______ _______ _______ _____ _____    ______ ____
ROOT
ATOM      1  C   UNL A   1     -28.016  -0.814  28.878  0.00  0.00    +0.007 A 
ATOM      2  C   UNL A   1     -27.064  -0.119  28.608  0.00  0.00    +0.005 A 
ATOM      3  C   UNL A   1     -27.001   0.691  27.491  0.00  0.00    +0.055 A 
ATOM      4  C   UNL A   1     -25.855   1.482  27.083  0.00  0.00    +0.008 A 
ATOM      5  C   UNL A   1     -24.690   1.453  27.881  0.00  0.00    +0.072 A 
ATOM      6  C   UNL A   1     -24.738   0.601  29.042  0.00  0.00    +0.004 A 
ATOM      7  C   UNL A   1     -25.823  -0.169  29.389  0.00  0.00    +0.000 A 
ATOM      8  C   UNL A   1     -28.038  -1.535  30.205  0.00  0.00    +0.076 A 
ATOM      9  C   UNL A   1     -26.847  -1.662  30.952  0.00  0.00    +0.006 A 
ATOM     10  C   UNL A   1     -25.745  -0.924  30.591  0.00  0.00    +0.000 A 
ENDROOT
BRANCH   5  11
ATOM     11  C   UNL A   1     -23.500   2.222  27.544  0.00  0.00    +0.419 C 
ATOM     12  F   UNL A   1     -22.565   1.586  27.098  0.00  0.00    -0.166 F 
ATOM     13  F   UNL A   1     -23.082   2.916  28.707  0.00  0.00    -0.166 F 
ATOM     14  F   UNL A   1     -23.860   3.271  26.745  0.00  0.00    -0.166 F 
ENDBRANCH   5  11
BRANCH   3  15
ATOM     15  C   UNL A   1     -28.127   0.757  26.539  0.00  0.00    +0.265 C 
ATOM     16  O   UNL A   1     -28.034   0.256  25.434  0.00  0.00    -0.268 OA
ATOM     17  N   UNL A   1     -29.322   1.139  27.009  0.00  0.00    -0.189 NA
BRANCH  17  18
ATOM     18  C   UNL A   1     -30.475   1.204  26.183  0.00  0.00    +0.229 C 
BRANCH  18  19
ATOM     19  C   UNL A   1     -31.456   0.278  26.486  0.00  0.00    +0.387 C 
ATOM     20  O   UNL A   1     -32.038  -0.355  25.767  0.00  0.00    -0.244 OA
ATOM     21  O   UNL A   1     -31.986   0.308  27.776  0.00  0.00    -0.244 OA
ENDBRANCH  18  19
ENDBRANCH  17  18
ENDBRANCH   3  15
BRANCH   8  22
ATOM     22  C   UNL A   1     -29.220  -2.354  30.591  0.00  0.00    +0.348 C 
ATOM     23  O   UNL A   1     -30.038  -1.914  31.166  0.00  0.00    -0.244 OA
BRANCH  22  24
ATOM     24  O   UNL A   1     -29.107  -3.611  30.237  0.00  0.00    -0.386 OA
BRANCH  24  25
ATOM     25  C   UNL A   1     -30.247  -4.448  30.201  0.00  0.00    +0.348 C 
ATOM     26  O   UNL A   1     -30.462  -4.975  31.345  0.00  0.00    -0.244 OA
BRANCH  25  27
ATOM     27  C   UNL A   1     -30.677  -4.816  29.004  0.00  0.00    +0.076 A 
ATOM     28  C   UNL A   1     -31.589  -5.915  28.869  0.00  0.00    +0.006 A 
ATOM     29  C   UNL A   1     -32.063  -6.290  27.570  0.00  0.00    -0.000 A 
ATOM     30  C   UNL A   1     -31.700  -5.442  26.524  0.00  0.00    -0.000 A 
ATOM     31  C   UNL A   1     -31.004  -4.342  26.701  0.00  0.00    +0.000 A 
ATOM     32  C   UNL A   1     -30.591  -3.914  27.970  0.00  0.00    +0.006 A 
BRANCH  29  33
ATOM     33  C   UNL A   1     -32.709  -7.559  27.337  0.00  0.00    -0.005 C 
ATOM     34  C   UNL A   1     -33.219  -8.230  28.002  0.00  0.00    -0.026 C 
ATOM     35  C   UNL A   1     -33.864  -9.529  27.704  0.00  0.00    +0.031 C 
ENDBRANCH  29  33
ENDBRANCH  25  27
ENDBRANCH  24  25
ENDBRANCH  22  24
ENDBRANCH   8  22
TORSDOF 9
