MODEL 374
MODEL 1
REMARK VINA RESULT:    -4.950      0.000      0.000
REMARK INTER + INTRA:          -4.950
REMARK INTER:                  -4.950
REMARK INTRA:                   0.000
REMARK UNBOUND:                 0.000
REMARK  Name = No_374-gen_results/8p0m/2024-11-26-14-13-15/
REMARK  0 active torsions:
REMARK  status: ('A' for Active; 'I' for Inactive)
REMARK                            x       y       z     vdW  Elec       q    Type
REMARK                         _______ _______ _______ _____ _____    ______ ____
ROOT
ATOM      1  C   UNL A   1      -8.858 -10.830  18.046  0.00  0.00    +0.042 A 
ATOM      2  C   UNL A   1      -8.018 -10.628  18.892  0.00  0.00    +0.003 A 
ATOM      3  C   UNL A   1      -8.275  -9.795  19.976  0.00  0.00    +0.000 A 
ATOM      4  C   UNL A   1      -9.535  -9.109  20.100  0.00  0.00    +0.003 A 
ATOM      5  C   UNL A   1     -10.440  -9.380  19.065  0.00  0.00    +0.042 A 
ATOM      6  C   UNL A   1     -10.141 -10.163  18.054  0.00  0.00    +0.196 A 
ATOM      7  O   UNL A   1     -11.064 -10.343  17.070  0.00  0.00    -0.287 OA
ENDROOT
TORSDOF 0
ENDMDL
ENDMDL
