REMARK  Name = No_375-gen_results/8p0m/2024-11-26-14-13-15/
REMARK  4 active torsions:
REMARK  status: ('A' for Active; 'I' for Inactive)
REMARK    1  A    between atoms: C_2  and  C_5
REMARK    2  A    between atoms: C_3  and  C_9
REMARK    3  A    between atoms: C_10  and  C_11
REMARK    4  A    between atoms: C_12  and  C_13
REMARK                            x       y       z     vdW  Elec       q    Type
REMARK                         _______ _______ _______ _____ _____    ______ ____
ROOT
ATOM      1  C   UNL A   1     -28.016  -0.814  28.878  0.00  0.00    -0.002 A 
ATOM      2  C   UNL A   1     -28.469  -0.785  29.829  0.00  0.00    +0.011 A 
ATOM      3  C   UNL A   1     -27.136   0.236  28.535  0.00  0.00    -0.000 A 
ATOM      4  C   UNL A   1     -26.875   1.282  29.398  0.00  0.00    -0.000 A 
ATOM      5  C   UNL A   1     -27.524   1.209  30.638  0.00  0.00    -0.000 A 
ATOM      6  C   UNL A   1     -28.322   0.127  30.959  0.00  0.00    -0.002 A 
ENDROOT
BRANCH   2   7
ATOM      7  C   UNL A   1     -29.395  -1.924  30.286  0.00  0.00    +0.209 C 
ATOM      8  O   UNL A   1     -29.817  -1.850  31.549  0.00  0.00    -0.215 OA
ENDBRANCH   2   7
BRANCH   3   9
ATOM      9  C   UNL A   1     -26.394   0.323  27.208  0.00  0.00    -0.000 C 
ATOM     10  C   UNL A   1     -25.200   0.722  27.052  0.00  0.00    -0.000 C 
BRANCH  10  11
ATOM     11  C   UNL A   1     -24.645   1.091  25.754  0.00  0.00    -0.000 C 
ATOM     12  C   UNL A   1     -23.416   1.718  25.655  0.00  0.00    +0.000 C 
BRANCH  12  13
ATOM     13  C   UNL A   1     -22.705   1.999  26.831  0.00  0.00    +0.000 C 
ATOM     14  C   UNL A   1     -23.215   1.603  28.101  0.00  0.00    +0.000 C 
ENDBRANCH  12  13
ENDBRANCH  10  11
ENDBRANCH   3   9
TORSDOF 4
