REMARK  Name = No_3751-gen_results/8p0m/2024-11-26-14-13-15/
REMARK  4 active torsions:
REMARK  status: ('A' for Active; 'I' for Inactive)
REMARK    1  A    between atoms: C_3  and  C_8
REMARK    2  A    between atoms: C_6  and  C_14
REMARK    3  A    between atoms: C_12  and  C_17
REMARK    4  A    between atoms: C_19  and  C_23
REMARK                            x       y       z     vdW  Elec       q    Type
REMARK                         _______ _______ _______ _____ _____    ______ ____
ROOT
ATOM      1  C   UNL A   1     -26.708   0.826  27.347  0.00  0.00    -0.014 A 
ATOM      2  C   UNL A   1     -27.260   1.990  27.589  0.00  0.00    -0.004 A 
ATOM      3  C   UNL A   1     -26.483   0.270  26.092  0.00  0.00    -0.004 A 
ATOM      4  C   UNL A   1     -26.980   0.860  24.947  0.00  0.00    -0.000 A 
ATOM      5  C   UNL A   1     -27.689   2.762  26.391  0.00  0.00    -0.000 A 
ATOM      6  C   UNL A   1     -27.555   2.194  25.085  0.00  0.00    -0.000 A 
ENDROOT
BRANCH   1   9
ATOM      7  O   UNL A   1     -28.123  -1.335  28.487  0.00  0.00    -0.273 OA
ATOM      8  C   UNL A   1     -27.064  -0.824  28.869  0.00  0.00    +0.245 C 
ATOM      9  C   UNL A   1     -26.402  -0.062  28.622  0.00  0.00    +0.101 C 
ATOM     10  N   UNL A   1     -26.572  -1.585  30.117  0.00  0.00    -0.205 NA
ATOM     11  C   UNL A   1     -25.021   0.356  29.044  0.00  0.00    +0.027 C 
ATOM     12  C   UNL A   1     -24.665  -0.386  30.242  0.00  0.00    +0.126 C 
ATOM     13  C   UNL A   1     -25.429  -1.360  30.687  0.00  0.00    +0.126 C 
BRANCH  12  14
ATOM     14  C   UNL A   1     -23.375  -0.051  30.930  0.00  0.00    +0.366 C 
ATOM     15  O   UNL A   1     -22.366   0.109  30.211  0.00  0.00    -0.246 OA
ATOM     16  O   UNL A   1     -23.363   0.376  32.200  0.00  0.00    -0.246 OA
ENDBRANCH  12  14
ENDBRANCH   1   9
BRANCH   5  17
ATOM     17  C   UNL A   1     -28.308   4.065  26.520  0.00  0.00    -0.000 A 
ATOM     18  C   UNL A   1     -29.126   4.244  27.608  0.00  0.00    -0.000 A 
ATOM     19  C   UNL A   1     -29.727   5.545  27.791  0.00  0.00    -0.000 A 
ATOM     20  C   UNL A   1     -29.477   6.566  26.847  0.00  0.00    +0.000 A 
ATOM     21  C   UNL A   1     -28.631   6.370  25.784  0.00  0.00    -0.000 A 
ATOM     22  C   UNL A   1     -28.049   5.133  25.637  0.00  0.00    -0.000 A 
BRANCH  19  23
ATOM     23  C   UNL A   1     -30.401   5.751  29.062  0.00  0.00    +0.000 A 
ATOM     24  C   UNL A   1     -31.195   4.947  29.516  0.00  0.00    +0.000 A 
ATOM     25  C   UNL A   1     -31.896   5.108  30.787  0.00  0.00    +0.000 A 
ATOM     26  C   UNL A   1     -31.689   6.339  31.433  0.00  0.00    +0.000 A 
ATOM     27  C   UNL A   1     -30.868   7.279  30.927  0.00  0.00    +0.000 A 
ATOM     28  C   UNL A   1     -30.186   7.047  29.734  0.00  0.00    +0.000 A 
ENDBRANCH  19  23
ENDBRANCH   5  17
TORSDOF 4
