MODEL 3751
MODEL 1
REMARK VINA RESULT:    -8.196      0.000      0.000
REMARK INTER + INTRA:         -11.528
REMARK INTER:                 -10.112
REMARK INTRA:                  -1.416
REMARK UNBOUND:                -1.416
REMARK  Name = No_3751-gen_results/8p0m/2024-11-26-14-13-15/
REMARK  4 active torsions:
REMARK  status: ('A' for Active; 'I' for Inactive)
REMARK    1  A    between atoms: C_3  and  C_8
REMARK    2  A    between atoms: C_6  and  C_14
REMARK    3  A    between atoms: C_12  and  C_17
REMARK    4  A    between atoms: C_19  and  C_23
REMARK                            x       y       z     vdW  Elec       q    Type
REMARK                         _______ _______ _______ _____ _____    ______ ____
ROOT
ATOM      1  C   UNL A   1     -23.903   1.150  27.890  0.00  0.00    -0.014 A 
ATOM      2  C   UNL A   1     -25.127   1.425  27.512  0.00  0.00    -0.004 A 
ATOM      3  C   UNL A   1     -22.736   1.580  27.266  0.00  0.00    -0.004 A 
ATOM      4  C   UNL A   1     -22.772   2.241  26.055  0.00  0.00    -0.000 A 
ATOM      5  C   UNL A   1     -25.252   2.267  26.291  0.00  0.00    -0.000 A 
ATOM      6  C   UNL A   1     -24.082   2.662  25.569  0.00  0.00    -0.000 A 
ENDROOT
BRANCH   1   9
ATOM      7  O   UNL A   1     -23.275   1.547  30.614  0.00  0.00    -0.273 OA
ATOM      8  C   UNL A   1     -23.532   0.487  30.032  0.00  0.00    +0.245 C 
ATOM      9  C   UNL A   1     -23.773   0.123  29.089  0.00  0.00    +0.101 C 
ATOM     10  N   UNL A   1     -23.486  -0.662  31.059  0.00  0.00    -0.205 NA
ATOM     11  C   UNL A   1     -24.267  -1.178  28.520  0.00  0.00    +0.027 C 
ATOM     12  C   UNL A   1     -24.149  -2.199  29.547  0.00  0.00    +0.126 C 
ATOM     13  C   UNL A   1     -23.821  -1.884  30.781  0.00  0.00    +0.126 C 
BRANCH  12  14
ATOM     14  C   UNL A   1     -24.464  -3.619  29.178  0.00  0.00    +0.366 C 
ATOM     15  O   UNL A   1     -23.556  -4.287  28.640  0.00  0.00    -0.246 OA
ATOM     16  O   UNL A   1     -25.536  -4.240  29.688  0.00  0.00    -0.246 OA
ENDBRANCH  12  14
ENDBRANCH   1   9
BRANCH   5  17
ATOM     17  C   UNL A   1     -26.549   2.647  25.771  0.00  0.00    -0.000 A 
ATOM     18  C   UNL A   1     -27.237   1.677  25.085  0.00  0.00    -0.000 A 
ATOM     19  C   UNL A   1     -28.552   2.009  24.588  0.00  0.00    -0.000 A 
ATOM     20  C   UNL A   1     -29.069   3.307  24.799  0.00  0.00    +0.000 A 
ATOM     21  C   UNL A   1     -28.373   4.249  25.515  0.00  0.00    -0.000 A 
ATOM     22  C   UNL A   1     -27.133   3.910  26.001  0.00  0.00    -0.000 A 
BRANCH  19  23
ATOM     23  C   UNL A   1     -29.325   0.894  24.066  0.00  0.00    +0.000 A 
ATOM     24  C   UNL A   1     -30.506   0.993  23.788  0.00  0.00    +0.000 A 
ATOM     25  C   UNL A   1     -31.324  -0.096  23.261  0.00  0.00    +0.000 A 
ATOM     26  C   UNL A   1     -30.685  -1.346  23.194  0.00  0.00    +0.000 A 
ATOM     27  C   UNL A   1     -29.397  -1.507  23.554  0.00  0.00    +0.000 A 
ATOM     28  C   UNL A   1     -28.652  -0.418  24.003  0.00  0.00    +0.000 A 
ENDBRANCH  19  23
ENDBRANCH   5  17
TORSDOF 4
ENDMDL
ENDMDL
