MODEL 3752
MODEL 1
REMARK VINA RESULT:    -6.876      0.000      0.000
REMARK INTER + INTRA:         -10.587
REMARK INTER:                  -9.288
REMARK INTRA:                  -1.299
REMARK UNBOUND:                -1.299
REMARK  Name = No_3752-gen_results/8p0m/2024-11-26-14-13-15/
REMARK  6 active torsions:
REMARK  status: ('A' for Active; 'I' for Inactive)
REMARK    1  A    between atoms: C_1  and  C_2
REMARK    2  A    between atoms: C_1  and  C_5
REMARK    3  A    between atoms: C_2  and  C_4
REMARK    4  A    between atoms: C_2  and  C_13
REMARK    5  A    between atoms: C_14  and  C_15
REMARK    6  A    between atoms: C_16  and  S_18
REMARK                            x       y       z     vdW  Elec       q    Type
REMARK                         _______ _______ _______ _____ _____    ______ ____
ROOT
ATOM      1  C   UNL A   1     -24.422  -1.080  28.817  0.00  0.00    +0.182 C 
ATOM      2  F   UNL A   1     -24.296  -1.051  27.563  0.00  0.00    -0.230 F 
ENDROOT
BRANCH   1   3
ATOM      3  C   UNL A   1     -24.757  -2.572  29.157  0.00  0.00    +0.011 A 
ATOM      4  C   UNL A   1     -25.826  -2.931  29.651  0.00  0.00    -0.001 A 
ATOM      5  C   UNL A   1     -26.228  -4.241  29.714  0.00  0.00    -0.000 A 
ATOM      6  C   UNL A   1     -25.322  -5.258  29.285  0.00  0.00    -0.000 A 
ATOM      7  C   UNL A   1     -23.882  -3.609  28.550  0.00  0.00    -0.001 A 
ATOM      8  C   UNL A   1     -24.195  -4.915  28.679  0.00  0.00    -0.000 A 
ENDBRANCH   1   3
BRANCH   1   9
ATOM      9  C   UNL A   1     -25.865  -0.428  28.897  0.00  0.00    +0.010 C 
ATOM     10  C   UNL A   1     -26.376   0.367  28.442  0.00  0.00    +0.003 C 
BRANCH  10  11
ATOM     11  C   UNL A   1     -25.674   1.534  27.688  0.00  0.00    +0.056 A 
ATOM     12  C   UNL A   1     -25.678   1.689  26.259  0.00  0.00    +0.213 A 
ATOM     13  N   UNL A   1     -24.920   2.724  25.822  0.00  0.00    -0.204 NA
ATOM     14  C   UNL A   1     -25.130   2.586  28.320  0.00  0.00    +0.103 A 
ATOM     15  N   UNL A   1     -24.644   3.664  27.850  0.00  0.00    -0.222 NA
ATOM     16  C   UNL A   1     -24.495   3.682  26.515  0.00  0.00    +0.200 A 
BRANCH  12  17
ATOM     17  S   UNL A   1     -26.200   0.473  25.176  0.00  0.00    +0.139 S 
ATOM     18  O   UNL A   1     -27.053   1.066  24.389  0.00  0.00    -0.145 OA
ATOM     19  O   UNL A   1     -24.990   0.031  24.524  0.00  0.00    -0.145 OA
ENDBRANCH  12  17
ENDBRANCH  10  11
ENDBRANCH   1   9
BRANCH   1  20
ATOM     20  C   UNL A   1     -23.608  -0.560  29.544  0.00  0.00    +0.155 C 
BRANCH  20  21
ATOM     21  C   UNL A   1     -22.328  -0.206  28.889  0.00  0.00    +0.368 C 
ATOM     22  O   UNL A   1     -22.102   0.858  28.455  0.00  0.00    -0.245 OA
ATOM     23  O   UNL A   1     -21.344  -1.084  28.938  0.00  0.00    -0.245 OA
ENDBRANCH  20  21
ENDBRANCH   1  20
TORSDOF 6
ENDMDL
ENDMDL
