REMARK  Name = No_3752-gen_results/8p0m/2024-11-26-14-13-15/
REMARK  6 active torsions:
REMARK  status: ('A' for Active; 'I' for Inactive)
REMARK    1  A    between atoms: C_1  and  C_2
REMARK    2  A    between atoms: C_1  and  C_5
REMARK    3  A    between atoms: C_2  and  C_4
REMARK    4  A    between atoms: C_2  and  C_13
REMARK    5  A    between atoms: C_14  and  C_15
REMARK    6  A    between atoms: C_16  and  S_18
REMARK                            x       y       z     vdW  Elec       q    Type
REMARK                         _______ _______ _______ _____ _____    ______ ____
ROOT
ATOM      1  C   UNL A   1     -27.064  -0.119  28.608  0.00  0.00    +0.182 C 
ATOM      2  F   UNL A   1     -25.884  -0.525  28.784  0.00  0.00    -0.230 F 
ENDROOT
BRANCH   1   3
ATOM      3  C   UNL A   1     -27.074   0.486  27.163  0.00  0.00    +0.011 A 
ATOM      4  C   UNL A   1     -28.038   1.085  26.686  0.00  0.00    -0.001 A 
ATOM      5  C   UNL A   1     -27.971   1.833  25.538  0.00  0.00    -0.000 A 
ATOM      6  C   UNL A   1     -26.754   1.837  24.792  0.00  0.00    -0.000 A 
ATOM      7  C   UNL A   1     -25.758   0.626  26.487  0.00  0.00    -0.001 A 
ATOM      8  C   UNL A   1     -25.672   1.270  25.305  0.00  0.00    -0.000 A 
ENDBRANCH   1   3
BRANCH   1   9
ATOM      9  C   UNL A   1     -26.963   1.201  29.481  0.00  0.00    +0.010 C 
ATOM     10  C   UNL A   1     -26.399   2.085  29.476  0.00  0.00    +0.003 C 
BRANCH  10  11
ATOM     11  C   UNL A   1     -25.058   2.256  28.704  0.00  0.00    +0.056 A 
ATOM     12  C   UNL A   1     -24.698   3.434  27.963  0.00  0.00    +0.213 A 
ATOM     13  N   UNL A   1     -23.526   3.318  27.293  0.00  0.00    -0.204 NA
ATOM     14  C   UNL A   1     -24.050   1.373  28.791  0.00  0.00    +0.103 A 
ATOM     15  N   UNL A   1     -22.864   1.434  28.334  0.00  0.00    -0.222 NA
ATOM     16  C   UNL A   1     -22.634   2.456  27.493  0.00  0.00    +0.200 A 
BRANCH  12  17
ATOM     17  S   UNL A   1     -25.798   4.687  27.584  0.00  0.00    +0.139 S 
ATOM     18  O   UNL A   1     -25.963   5.340  28.699  0.00  0.00    -0.145 OA
ATOM     19  O   UNL A   1     -25.140   5.438  26.541  0.00  0.00    -0.145 OA
ENDBRANCH  12  17
ENDBRANCH  10  11
ENDBRANCH   1   9
BRANCH   1  20
ATOM     20  C   UNL A   1     -28.016  -0.814  28.878  0.00  0.00    +0.155 C 
BRANCH  20  21
ATOM     21  C   UNL A   1     -28.011  -1.368  30.251  0.00  0.00    +0.368 C 
ATOM     22  O   UNL A   1     -28.965  -1.807  30.769  0.00  0.00    -0.245 OA
ATOM     23  O   UNL A   1     -26.847  -1.514  30.855  0.00  0.00    -0.245 OA
ENDBRANCH  20  21
ENDBRANCH   1  20
TORSDOF 6
