MODEL 3753
MODEL 1
REMARK VINA RESULT:    -6.598      0.000      0.000
REMARK INTER + INTRA:          -7.281
REMARK INTER:                  -6.983
REMARK INTRA:                  -0.298
REMARK UNBOUND:                -0.298
REMARK  Name = No_3753-gen_results/8p0m/2024-11-26-14-13-15/
REMARK  1 active torsions:
REMARK  status: ('A' for Active; 'I' for Inactive)
REMARK    1  A    between atoms: C_3  and  C_4
REMARK                            x       y       z     vdW  Elec       q    Type
REMARK                         _______ _______ _______ _____ _____    ______ ____
ROOT
ATOM      1  C   UNL A   1     -21.835  -0.294  28.826  0.00  0.00    +0.011 A 
ATOM      2  C   UNL A   1     -22.506  -1.221  29.217  0.00  0.00    +0.001 A 
ATOM      3  C   UNL A   1     -23.807  -1.469  28.781  0.00  0.00    +0.000 A 
ATOM      4  C   UNL A   1     -22.481   0.737  27.959  0.00  0.00    +0.058 A 
ATOM      5  C   UNL A   1     -23.719   0.547  27.411  0.00  0.00    +0.011 A 
ATOM      6  C   UNL A   1     -24.497  -0.567  27.828  0.00  0.00    +0.001 A 
ATOM      7 CL   UNL A   1     -21.573   2.096  27.437  0.00  0.00    -0.082 Cl
ENDROOT
BRANCH   3   8
ATOM      8  C   UNL A   1     -24.698  -2.564  29.211  0.00  0.00    +0.000 A 
ATOM      9  C   UNL A   1     -26.053  -2.412  29.674  0.00  0.00    +0.000 A 
ATOM     10  C   UNL A   1     -26.818  -3.534  30.047  0.00  0.00    +0.000 A 
ATOM     11  C   UNL A   1     -26.403  -4.862  29.719  0.00  0.00    +0.000 A 
ATOM     12  C   UNL A   1     -24.337  -3.963  28.991  0.00  0.00    +0.000 A 
ATOM     13  C   UNL A   1     -25.157  -5.021  29.254  0.00  0.00    +0.000 A 
ENDBRANCH   3   8
TORSDOF 1
ENDMDL
ENDMDL
