MODEL 3754
MODEL 1
REMARK VINA RESULT:    -7.117      0.000      0.000
REMARK INTER + INTRA:          -8.377
REMARK INTER:                  -7.949
REMARK INTRA:                  -0.428
REMARK UNBOUND:                -0.428
REMARK  Name = No_3754-gen_results/8p0m/2024-11-26-14-13-15/
REMARK  2 active torsions:
REMARK  status: ('A' for Active; 'I' for Inactive)
REMARK    1  A    between atoms: C_2  and  C_7
REMARK    2  A    between atoms: C_11  and  C_13
REMARK                            x       y       z     vdW  Elec       q    Type
REMARK                         _______ _______ _______ _____ _____    ______ ____
ROOT
ATOM      1  C   UNL A   1     -23.554  -1.582  28.849  0.00  0.00    -0.000 A 
ATOM      2  C   UNL A   1     -22.640  -1.358  29.250  0.00  0.00    -0.000 A 
ATOM      3  C   UNL A   1     -21.729  -0.176  29.019  0.00  0.00    -0.000 A 
ATOM      4  C   UNL A   1     -22.190   0.819  28.179  0.00  0.00    -0.003 A 
ATOM      5  C   UNL A   1     -23.462   0.688  27.617  0.00  0.00    -0.006 A 
ATOM      6  C   UNL A   1     -24.186  -0.439  27.871  0.00  0.00    -0.003 A 
ENDROOT
BRANCH   1   8
ATOM      7  C   UNL A   1     -25.631  -2.541  29.567  0.00  0.00    -0.000 A 
ATOM      8  C   UNL A   1     -24.516  -2.683  29.121  0.00  0.00    -0.000 A 
ATOM      9  C   UNL A   1     -24.029  -3.944  28.794  0.00  0.00    -0.000 A 
ATOM     10  C   UNL A   1     -24.821  -5.126  29.020  0.00  0.00    -0.000 A 
ATOM     11  C   UNL A   1     -26.088  -4.872  29.561  0.00  0.00    +0.000 A 
ATOM     12  C   UNL A   1     -26.495  -3.661  29.868  0.00  0.00    -0.000 A 
ENDBRANCH   1   8
BRANCH   5  13
ATOM     13  C   UNL A   1     -23.948   1.704  26.693  0.00  0.00    +0.121 C 
ATOM     14 CL   UNL A   1     -22.841   2.311  25.486  0.00  0.00    -0.108 Cl
ENDBRANCH   5  13
TORSDOF 2
ENDMDL
ENDMDL
