REMARK  Name = No_3755-gen_results/8p0m/2024-11-26-14-13-15/
REMARK  3 active torsions:
REMARK  status: ('A' for Active; 'I' for Inactive)
REMARK    1  A    between atoms: C_1  and  C_2
REMARK    2  A    between atoms: C_1  and  C_7
REMARK    3  A    between atoms: C_2  and  P_3
REMARK                            x       y       z     vdW  Elec       q    Type
REMARK                         _______ _______ _______ _____ _____    ______ ____
ROOT
ATOM      1  C   UNL A   1     -28.016  -0.814  28.878  0.00  0.00    +0.095 C 
ENDROOT
BRANCH   1   2
ATOM      2  C   UNL A   1     -29.143  -0.229  29.550  0.00  0.00    +0.242 C 
ATOM      3  O   UNL A   1     -28.904   0.159  30.709  0.00  0.00    -0.273 OA
ATOM      4  N   UNL A   1     -30.234  -0.016  28.924  0.00  0.00    -0.203 NA
ATOM      5  C   UNL A   1     -30.567  -0.547  27.696  0.00  0.00    +0.139 C 
ENDBRANCH   1   2
BRANCH   1   6
ATOM      6  C   UNL A   1     -27.064  -0.119  28.608  0.00  0.00    +0.069 C 
BRANCH   6   7
ATOM      7  P   UNL A   1     -27.060   1.181  27.575  0.00  0.00    +0.118 P 
ATOM      8  O   UNL A   1     -27.404   2.374  28.236  0.00  0.00    -0.357 OA
ATOM      9  O   UNL A   1     -25.736   1.275  26.908  0.00  0.00    -0.357 OA
ATOM     10  O   UNL A   1     -28.171   0.809  26.559  0.00  0.00    -0.460 OA
ENDBRANCH   6   7
ENDBRANCH   1   6
TORSDOF 3
