MODEL 3755
MODEL 1
REMARK VINA RESULT:    -4.134      0.000      0.000
REMARK INTER + INTRA:          -4.963
REMARK INTER:                  -4.858
REMARK INTRA:                  -0.104
REMARK UNBOUND:                -0.104
REMARK  Name = No_3755-gen_results/8p0m/2024-11-26-14-13-15/
REMARK  3 active torsions:
REMARK  status: ('A' for Active; 'I' for Inactive)
REMARK    1  A    between atoms: C_1  and  C_2
REMARK    2  A    between atoms: C_1  and  C_7
REMARK    3  A    between atoms: C_2  and  P_3
REMARK                            x       y       z     vdW  Elec       q    Type
REMARK                         _______ _______ _______ _____ _____    ______ ____
ROOT
ATOM      1  C   UNL A   1     -24.202  -2.992  29.572  0.00  0.00    +0.095 C 
ENDROOT
BRANCH   1   2
ATOM      2  C   UNL A   1     -24.637  -4.239  29.005  0.00  0.00    +0.242 C 
ATOM      3  O   UNL A   1     -23.772  -4.821  28.324  0.00  0.00    -0.273 OA
ATOM      4  N   UNL A   1     -25.770  -4.735  29.317  0.00  0.00    -0.203 NA
ATOM      5  C   UNL A   1     -26.789  -4.060  29.955  0.00  0.00    +0.139 C 
ENDBRANCH   1   2
BRANCH   1   6
ATOM      6  C   UNL A   1     -23.590  -2.211  28.881  0.00  0.00    +0.069 C 
BRANCH   6   7
ATOM      7  P   UNL A   1     -22.704  -0.913  29.416  0.00  0.00    +0.118 P 
ATOM      8  O   UNL A   1     -22.790  -0.763  30.812  0.00  0.00    -0.357 OA
ATOM      9  O   UNL A   1     -21.299  -1.054  28.956  0.00  0.00    -0.357 OA
ATOM     10  O   UNL A   1     -23.402   0.283  28.719  0.00  0.00    -0.460 OA
ENDBRANCH   6   7
ENDBRANCH   1   6
TORSDOF 3
ENDMDL
ENDMDL
