REMARK  Name = No_3756-gen_results/8p0m/2024-11-26-14-13-15/
REMARK  0 active torsions:
REMARK  status: ('A' for Active; 'I' for Inactive)
REMARK                            x       y       z     vdW  Elec       q    Type
REMARK                         _______ _______ _______ _____ _____    ______ ____
ROOT
ATOM      1  C   UNL A   1     -28.016  -0.814  28.878  0.00  0.00    +0.002 A 
ATOM      2  C   UNL A   1     -28.469  -0.785  29.829  0.00  0.00    +0.000 A 
ATOM      3  C   UNL A   1     -27.087   0.290  28.638  0.00  0.00    +0.018 A 
ATOM      4  C   UNL A   1     -26.252   0.411  27.422  0.00  0.00    +0.003 A 
ATOM      5  C   UNL A   1     -28.391   0.104  30.980  0.00  0.00    +0.002 A 
ATOM      6  C   UNL A   1     -27.533   1.167  30.787  0.00  0.00    +0.019 A 
ATOM      7  C   UNL A   1     -26.828   1.256  29.645  0.00  0.00    +0.081 A 
ATOM      8  C   UNL A   1     -25.644   1.665  27.222  0.00  0.00    +0.018 A 
ATOM      9  C   UNL A   1     -24.632   1.737  26.265  0.00  0.00    +0.002 A 
ATOM     10  C   UNL A   1     -23.843   2.989  26.242  0.00  0.00    +0.000 A 
ATOM     11  C   UNL A   1     -24.258   4.086  27.022  0.00  0.00    +0.002 A 
ATOM     12  C   UNL A   1     -25.359   3.945  27.829  0.00  0.00    +0.019 A 
ATOM     13  C   UNL A   1     -25.986   2.734  28.016  0.00  0.00    +0.081 A 
ATOM     14  N   UNL A   1     -26.642   2.539  29.226  0.00  0.00    -0.245 NA
ENDROOT
TORSDOF 0
