MODEL 3756
MODEL 1
REMARK VINA RESULT:    -7.080      0.000      0.000
REMARK INTER + INTRA:          -7.080
REMARK INTER:                  -7.080
REMARK INTRA:                   0.000
REMARK UNBOUND:                 0.000
REMARK  Name = No_3756-gen_results/8p0m/2024-11-26-14-13-15/
REMARK  0 active torsions:
REMARK  status: ('A' for Active; 'I' for Inactive)
REMARK                            x       y       z     vdW  Elec       q    Type
REMARK                         _______ _______ _______ _____ _____    ______ ____
ROOT
ATOM      1  C   UNL A   1     -26.510  -3.402  29.772  0.00  0.00    +0.002 A 
ATOM      2  C   UNL A   1     -26.307  -4.433  29.697  0.00  0.00    +0.000 A 
ATOM      3  C   UNL A   1     -25.428  -2.554  29.275  0.00  0.00    +0.018 A 
ATOM      4  C   UNL A   1     -25.518  -1.080  29.178  0.00  0.00    +0.003 A 
ATOM      5  C   UNL A   1     -25.189  -5.229  29.210  0.00  0.00    +0.002 A 
ATOM      6  C   UNL A   1     -24.140  -4.463  28.743  0.00  0.00    +0.019 A 
ATOM      7  C   UNL A   1     -24.254  -3.123  28.716  0.00  0.00    +0.081 A 
ATOM      8  C   UNL A   1     -24.300  -0.407  28.960  0.00  0.00    +0.018 A 
ATOM      9  C   UNL A   1     -24.372   0.932  28.577  0.00  0.00    +0.002 A 
ATOM     10  C   UNL A   1     -23.107   1.548  28.117  0.00  0.00    +0.000 A 
ATOM     11  C   UNL A   1     -21.897   0.843  28.267  0.00  0.00    +0.002 A 
ATOM     12  C   UNL A   1     -21.930  -0.425  28.789  0.00  0.00    +0.019 A 
ATOM     13  C   UNL A   1     -23.110  -1.090  29.037  0.00  0.00    +0.081 A 
ATOM     14  N   UNL A   1     -23.082  -2.478  28.972  0.00  0.00    -0.245 NA
ENDROOT
TORSDOF 0
ENDMDL
ENDMDL
