MODEL 3757
MODEL 1
REMARK VINA RESULT:    -7.079      0.000      0.000
REMARK INTER + INTRA:         -12.740
REMARK INTER:                  -8.735
REMARK INTRA:                  -4.005
REMARK UNBOUND:                -4.005
REMARK  Name = No_3757-gen_results/8p0m/2024-11-26-14-13-15/
REMARK  4 active torsions:
REMARK  status: ('A' for Active; 'I' for Inactive)
REMARK    1  A    between atoms: C_4  and  C_11
REMARK    2  A    between atoms: C_12  and  O_17
REMARK    3  A    between atoms: O_17  and  C_18
REMARK    4  A    between atoms: C_18  and  C_19
REMARK                            x       y       z     vdW  Elec       q    Type
REMARK                         _______ _______ _______ _____ _____    ______ ____
ROOT
ATOM      1  C   UNL A   1     -29.328 -10.969  10.050  0.00  0.00    +0.053 A 
ATOM      2  C   UNL A   1     -29.181  -9.896   9.513  0.00  0.00    +0.015 A 
ATOM      3  C   UNL A   1     -30.057  -8.824   9.678  0.00  0.00    +0.001 A 
ATOM      4  C   UNL A   1     -29.962  -7.489   9.054  0.00  0.00    +0.003 A 
ATOM      5  C   UNL A   1     -30.909  -6.417   9.215  0.00  0.00    +0.000 A 
ATOM      6  C   UNL A   1     -31.874  -6.632  10.205  0.00  0.00    +0.000 A 
ATOM      7  C   UNL A   1     -30.608 -11.194  10.804  0.00  0.00    +0.067 A 
ATOM      8  C   UNL A   1     -31.483 -10.171  11.092  0.00  0.00    +0.006 A 
ATOM      9  C   UNL A   1     -31.284  -8.933  10.509  0.00  0.00    +0.000 A 
ATOM     10  C   UNL A   1     -32.136  -7.860  10.774  0.00  0.00    +0.000 A 
ATOM     11  C   UNL A   1     -30.782 -12.580  11.377  0.00  0.00    +0.251 C 
ATOM     12  O   UNL A   1     -31.328 -12.789  12.380  0.00  0.00    -0.270 OA
ATOM     13  N   UNL A   1     -30.454 -13.639  10.602  0.00  0.00    -0.261 N 
ATOM     14  C   UNL A   1     -30.634 -14.993  10.984  0.00  0.00    +0.095 C 
ATOM     15  C   UNL A   1     -30.017 -15.738  10.659  0.00  0.00    +0.022 C 
ATOM     16  C   UNL A   1     -29.088 -15.636   9.470  0.00  0.00    +0.005 C 
ATOM     17  C   UNL A   1     -28.934 -14.305   8.983  0.00  0.00    +0.041 C 
ATOM     18  C   UNL A   1     -29.525 -13.368   9.569  0.00  0.00    +0.152 C 
ATOM     19  N   UNL A   1     -29.130 -12.073   9.248  0.00  0.00    -0.291 N 
ATOM     20  C   UNL A   1     -28.191 -11.969   8.136  0.00  0.00    +0.114 C 
ENDROOT
BRANCH   4  21
ATOM     21  C   UNL A   1     -28.826  -7.174   8.129  0.00  0.00    +0.035 A 
ATOM     22  C   UNL A   1     -28.985  -7.428   6.881  0.00  0.00    +0.149 A 
ATOM     23  C   UNL A   1     -27.906  -7.327   5.984  0.00  0.00    +0.038 A 
ATOM     24  C   UNL A   1     -27.676  -6.659   8.667  0.00  0.00    +0.003 A 
ATOM     25  C   UNL A   1     -26.570  -6.417   7.843  0.00  0.00    +0.000 A 
ATOM     26  C   UNL A   1     -26.717  -6.668   6.461  0.00  0.00    +0.003 A 
BRANCH  22  27
ATOM     27  O   UNL A   1     -30.103  -7.951   6.293  0.00  0.00    -0.421 OA
BRANCH  27  28
ATOM     28  C   UNL A   1     -30.370  -9.244   6.038  0.00  0.00    +0.346 C 
ATOM     29  O   UNL A   1     -29.785  -9.902   5.205  0.00  0.00    -0.244 OA
BRANCH  28  30
ATOM     30  C   UNL A   1     -31.540  -9.725   6.658  0.00  0.00    +0.076 A 
ATOM     31  C   UNL A   1     -31.610 -10.968   6.988  0.00  0.00    +0.006 A 
ATOM     32  C   UNL A   1     -32.621  -8.810   6.922  0.00  0.00    +0.006 A 
ATOM     33  C   UNL A   1     -33.711  -9.161   7.710  0.00  0.00    +0.000 A 
ATOM     34  C   UNL A   1     -32.771 -11.393   7.830  0.00  0.00    +0.000 A 
ATOM     35  C   UNL A   1     -33.830 -10.538   8.054  0.00  0.00    +0.000 A 
ENDBRANCH  28  30
ENDBRANCH  27  28
ENDBRANCH  22  27
ENDBRANCH   4  21
TORSDOF 4
ENDMDL
ENDMDL
