REMARK  Name = No_3757-gen_results/8p0m/2024-11-26-14-13-15/
REMARK  4 active torsions:
REMARK  status: ('A' for Active; 'I' for Inactive)
REMARK    1  A    between atoms: C_4  and  C_11
REMARK    2  A    between atoms: C_12  and  O_17
REMARK    3  A    between atoms: O_17  and  C_18
REMARK    4  A    between atoms: C_18  and  C_19
REMARK                            x       y       z     vdW  Elec       q    Type
REMARK                         _______ _______ _______ _____ _____    ______ ____
ROOT
ATOM      1  C   UNL A   1     -28.016  -0.814  28.878  0.00  0.00    +0.053 A 
ATOM      2  C   UNL A   1     -27.064  -0.119  28.608  0.00  0.00    +0.015 A 
ATOM      3  C   UNL A   1     -25.765  -0.390  29.036  0.00  0.00    +0.001 A 
ATOM      4  C   UNL A   1     -24.552   0.406  28.765  0.00  0.00    +0.003 A 
ATOM      5  C   UNL A   1     -23.230   0.118  29.258  0.00  0.00    +0.000 A 
ATOM      6  C   UNL A   1     -23.094  -1.131  29.873  0.00  0.00    +0.000 A 
ATOM      7  C   UNL A   1     -27.798  -1.934  29.856  0.00  0.00    +0.067 A 
ATOM      8  C   UNL A   1     -26.542  -2.327  30.258  0.00  0.00    +0.006 A 
ATOM      9  C   UNL A   1     -25.451  -1.552  29.908  0.00  0.00    +0.000 A 
ATOM     10  C   UNL A   1     -24.156  -1.910  30.281  0.00  0.00    +0.000 A 
ATOM     11  C   UNL A   1     -29.037  -2.712  30.230  0.00  0.00    +0.251 C 
ATOM     12  O   UNL A   1     -29.027  -3.850  30.461  0.00  0.00    -0.270 OA
ATOM     13  N   UNL A   1     -30.172  -2.023  30.488  0.00  0.00    -0.261 N 
ATOM     14  C   UNL A   1     -31.385  -2.618  30.919  0.00  0.00    +0.095 C 
ATOM     15  C   UNL A   1     -32.298  -2.228  30.682  0.00  0.00    +0.022 C 
ATOM     16  C   UNL A   1     -32.537  -0.816  30.196  0.00  0.00    +0.005 C 
ATOM     17  C   UNL A   1     -31.341  -0.133  29.829  0.00  0.00    +0.041 C 
ATOM     18  C   UNL A   1     -30.245  -0.736  29.904  0.00  0.00    +0.152 C 
ATOM     19  N   UNL A   1     -29.154  -0.144  29.276  0.00  0.00    -0.291 N 
ATOM     20  C   UNL A   1     -29.391   1.199  28.756  0.00  0.00    +0.114 C 
ENDROOT
BRANCH   4  21
ATOM     21  C   UNL A   1     -24.645   1.658  27.946  0.00  0.00    +0.035 A 
ATOM     22  C   UNL A   1     -24.896   2.756  28.561  0.00  0.00    +0.149 A 
ATOM     23  C   UNL A   1     -25.173   3.934  27.844  0.00  0.00    +0.038 A 
ATOM     24  C   UNL A   1     -24.484   1.557  26.589  0.00  0.00    +0.003 A 
ATOM     25  C   UNL A   1     -24.632   2.694  25.785  0.00  0.00    +0.000 A 
ATOM     26  C   UNL A   1     -24.890   3.923  26.432  0.00  0.00    +0.003 A 
BRANCH  22  27
ATOM     27  O   UNL A   1     -25.076   2.911  29.907  0.00  0.00    -0.421 OA
BRANCH  27  28
ATOM     28  C   UNL A   1     -25.914   3.756  30.533  0.00  0.00    +0.346 C 
ATOM     29  O   UNL A   1     -25.881   4.960  30.402  0.00  0.00    -0.244 OA
BRANCH  28  30
ATOM     30  C   UNL A   1     -26.700   3.153  31.535  0.00  0.00    +0.076 A 
ATOM     31  C   UNL A   1     -27.957   3.426  31.596  0.00  0.00    +0.006 A 
ATOM     32  C   UNL A   1     -26.080   2.233  32.454  0.00  0.00    +0.006 A 
ATOM     33  C   UNL A   1     -26.823   1.447  33.328  0.00  0.00    +0.000 A 
ATOM     34  C   UNL A   1     -28.795   2.611  32.529  0.00  0.00    +0.000 A 
ATOM     35  C   UNL A   1     -28.208   1.758  33.441  0.00  0.00    +0.000 A 
ENDBRANCH  28  30
ENDBRANCH  27  28
ENDBRANCH  22  27
ENDBRANCH   4  21
TORSDOF 4
