MODEL 3758
MODEL 1
REMARK VINA RESULT:    -6.048      0.000      0.000
REMARK INTER + INTRA:          -7.032
REMARK INTER:                  -6.755
REMARK INTRA:                  -0.277
REMARK UNBOUND:                -0.277
REMARK  Name = No_3758-gen_results/8p0m/2024-11-26-14-13-15/
REMARK  2 active torsions:
REMARK  status: ('A' for Active; 'I' for Inactive)
REMARK    1  A    between atoms: C_2  and  C_11
REMARK    2  A    between atoms: C_3  and  C_7
REMARK                            x       y       z     vdW  Elec       q    Type
REMARK                         _______ _______ _______ _____ _____    ______ ____
ROOT
ATOM      1  C   UNL A   1     -28.312 -11.949  31.158  0.00  0.00    +0.010 A 
ATOM      2  C   UNL A   1     -28.196 -11.629  32.155  0.00  0.00    +0.080 A 
ATOM      3  C   UNL A   1     -29.208 -11.232  30.336  0.00  0.00    +0.072 A 
ATOM      4  C   UNL A   1     -29.928 -10.152  30.808  0.00  0.00    +0.004 A 
ATOM      5  C   UNL A   1     -28.831 -10.523  32.898  0.00  0.00    +0.007 A 
ATOM      6  C   UNL A   1     -29.699  -9.810  32.147  0.00  0.00    +0.000 A 
ENDROOT
BRANCH   3   7
ATOM      7  C   UNL A   1     -29.438 -11.562  28.889  0.00  0.00    +0.419 C 
ATOM      8  F   UNL A   1     -28.519 -11.865  28.265  0.00  0.00    -0.166 F 
ATOM      9  F   UNL A   1     -30.116 -10.457  28.312  0.00  0.00    -0.166 F 
ATOM     10  F   UNL A   1     -30.456 -12.541  28.671  0.00  0.00    -0.166 F 
ENDBRANCH   3   7
BRANCH   2  11
ATOM     11  C   UNL A   1     -27.116 -12.335  33.119  0.00  0.00    +0.388 C 
ATOM     12  O   UNL A   1     -26.403 -12.983  32.616  0.00  0.00    -0.241 OA
ATOM     13  O   UNL A   1     -27.362 -12.365  34.433  0.00  0.00    -0.241 OA
ENDBRANCH   2  11
TORSDOF 2
ENDMDL
ENDMDL
