REMARK  Name = No_3759-gen_results/8p0m/2024-11-26-14-13-15/
REMARK  8 active torsions:
REMARK  status: ('A' for Active; 'I' for Inactive)
REMARK    1  A    between atoms: C_2  and  C_11
REMARK    2  A    between atoms: C_3  and  C_7
REMARK    3  A    between atoms: C_6  and  C_21
REMARK    4  A    between atoms: N_13  and  C_15
REMARK    5  A    between atoms: C_14  and  C_28
REMARK    6  A    between atoms: C_21  and  O_23
REMARK    7  A    between atoms: O_23  and  C_24
REMARK    8  A    between atoms: C_24  and  C_25
REMARK                            x       y       z     vdW  Elec       q    Type
REMARK                         _______ _______ _______ _____ _____    ______ ____
ROOT
ATOM      1  C   UNL A   1     -28.016  -0.814  28.878  0.00  0.00    +0.008 A 
ATOM      2  C   UNL A   1     -28.469  -0.785  29.829  0.00  0.00    +0.054 A 
ATOM      3  C   UNL A   1     -27.136   0.236  28.535  0.00  0.00    +0.072 A 
ATOM      4  C   UNL A   1     -26.875   1.282  29.398  0.00  0.00    +0.010 A 
ATOM      5  C   UNL A   1     -28.361   0.199  30.924  0.00  0.00    +0.011 A 
ATOM      6  C   UNL A   1     -27.528   1.223  30.636  0.00  0.00    +0.076 A 
ENDROOT
BRANCH   2   7
ATOM      7  C   UNL A   1     -29.402  -1.998  30.327  0.00  0.00    +0.259 C 
ATOM      8  O   UNL A   1     -28.997  -3.131  30.393  0.00  0.00    -0.269 OA
ATOM      9  N   UNL A   1     -30.636  -1.815  30.751  0.00  0.00    -0.201 N 
ATOM     10  C   UNL A   1     -31.501  -2.860  31.159  0.00  0.00    +0.259 C 
ATOM     11  O   UNL A   1     -32.045  -3.512  30.232  0.00  0.00    -0.269 OA
BRANCH   9  12
ATOM     12  C   UNL A   1     -31.269  -0.453  30.746  0.00  0.00    +0.061 A 
ATOM     13  C   UNL A   1     -32.366  -0.481  29.930  0.00  0.00    +0.015 A 
ATOM     14  C   UNL A   1     -32.991   0.690  29.878  0.00  0.00    +0.001 A 
ATOM     15  C   UNL A   1     -32.533   1.875  30.547  0.00  0.00    +0.000 A 
ATOM     16  C   UNL A   1     -31.442   1.736  31.352  0.00  0.00    +0.001 A 
ATOM     17  C   UNL A   1     -30.828   0.597  31.456  0.00  0.00    +0.015 A 
ENDBRANCH   9  12
BRANCH  10  18
ATOM     18  C   UNL A   1     -31.332  -3.276  32.469  0.00  0.00    +0.054 A 
ATOM     19  C   UNL A   1     -30.839  -2.755  33.331  0.00  0.00    +0.004 A 
ATOM     20  C   UNL A   1     -30.647  -3.243  34.734  0.00  0.00    +0.000 A 
ATOM     21  C   UNL A   1     -31.206  -4.489  34.949  0.00  0.00    +0.000 A 
ATOM     22  C   UNL A   1     -31.890  -4.623  32.774  0.00  0.00    +0.004 A 
ATOM     23  C   UNL A   1     -31.788  -5.177  33.984  0.00  0.00    +0.000 A 
ENDBRANCH  10  18
ENDBRANCH   2   7
BRANCH   3  24
ATOM     24  C   UNL A   1     -26.399   0.295  27.228  0.00  0.00    +0.419 C 
ATOM     25  F   UNL A   1     -26.931  -0.135  26.303  0.00  0.00    -0.166 F 
ATOM     26  F   UNL A   1     -25.961   1.614  26.936  0.00  0.00    -0.166 F 
ATOM     27  F   UNL A   1     -25.082  -0.351  27.429  0.00  0.00    -0.166 F 
ENDBRANCH   3  24
BRANCH   6  28
ATOM     28  C   UNL A   1     -27.317   2.406  31.567  0.00  0.00    +0.342 C 
ATOM     29  O   UNL A   1     -28.006   3.408  31.483  0.00  0.00    -0.245 OA
BRANCH  28  30
ATOM     30  O   UNL A   1     -26.199   2.367  32.288  0.00  0.00    -0.433 OA
BRANCH  30  31
ATOM     31  C   UNL A   1     -25.968   3.420  33.049  0.00  0.00    +0.322 C 
BRANCH  31  32
ATOM     32  C   UNL A   1     -24.949   4.378  32.484  0.00  0.00    +0.409 C 
ATOM     33  O   UNL A   1     -24.562   5.294  33.201  0.00  0.00    -0.241 OA
ATOM     34  O   UNL A   1     -24.453   4.069  31.350  0.00  0.00    -0.241 OA
ENDBRANCH  31  32
ENDBRANCH  30  31
ENDBRANCH  28  30
ENDBRANCH   6  28
TORSDOF 8
