MODEL 3759
MODEL 1
REMARK VINA RESULT:    -7.811      0.000      0.000
REMARK INTER + INTRA:         -13.317
REMARK INTER:                 -11.464
REMARK INTRA:                  -1.854
REMARK UNBOUND:                -1.854
REMARK  Name = No_3759-gen_results/8p0m/2024-11-26-14-13-15/
REMARK  8 active torsions:
REMARK  status: ('A' for Active; 'I' for Inactive)
REMARK    1  A    between atoms: C_2  and  C_11
REMARK    2  A    between atoms: C_3  and  C_7
REMARK    3  A    between atoms: C_6  and  C_21
REMARK    4  A    between atoms: N_13  and  C_15
REMARK    5  A    between atoms: C_14  and  C_28
REMARK    6  A    between atoms: C_21  and  O_23
REMARK    7  A    between atoms: O_23  and  C_24
REMARK    8  A    between atoms: C_24  and  C_25
REMARK                            x       y       z     vdW  Elec       q    Type
REMARK                         _______ _______ _______ _____ _____    ______ ____
ROOT
ATOM      1  C   UNL A   1     -24.192   0.902  26.481  0.00  0.00    +0.008 A 
ATOM      2  C   UNL A   1     -25.031   0.269  26.556  0.00  0.00    +0.054 A 
ATOM      3  C   UNL A   1     -23.175   0.767  27.452  0.00  0.00    +0.072 A 
ATOM      4  C   UNL A   1     -23.264  -0.150  28.480  0.00  0.00    +0.010 A 
ATOM      5  C   UNL A   1     -25.368  -0.781  27.538  0.00  0.00    +0.011 A 
ATOM      6  C   UNL A   1     -24.420  -0.942  28.487  0.00  0.00    +0.076 A 
ENDROOT
BRANCH   2   7
ATOM      7  C   UNL A   1     -26.180   0.297  25.430  0.00  0.00    +0.259 C 
ATOM      8  O   UNL A   1     -26.202  -0.492  24.520  0.00  0.00    -0.269 OA
ATOM      9  N   UNL A   1     -27.193   1.138  25.471  0.00  0.00    -0.201 N 
ATOM     10  C   UNL A   1     -28.200   1.221  24.479  0.00  0.00    +0.259 C 
ATOM     11  O   UNL A   1     -27.886   1.840  23.431  0.00  0.00    -0.269 OA
BRANCH   9  12
ATOM     12  C   UNL A   1     -27.309   2.167  26.559  0.00  0.00    +0.061 A 
ATOM     13  C   UNL A   1     -26.783   3.346  26.107  0.00  0.00    +0.015 A 
ATOM     14  C   UNL A   1     -26.857   4.315  27.012  0.00  0.00    +0.001 A 
ATOM     15  C   UNL A   1     -27.366   4.135  28.342  0.00  0.00    +0.000 A 
ATOM     16  C   UNL A   1     -27.887   2.910  28.634  0.00  0.00    +0.001 A 
ATOM     17  C   UNL A   1     -27.866   1.949  27.760  0.00  0.00    +0.015 A 
ENDBRANCH   9  12
BRANCH  10  18
ATOM     18  C   UNL A   1     -29.226   0.300  24.615  0.00  0.00    +0.054 A 
ATOM     19  C   UNL A   1     -30.046   0.245  25.378  0.00  0.00    +0.004 A 
ATOM     20  C   UNL A   1     -31.129  -0.781  25.515  0.00  0.00    +0.000 A 
ATOM     21  C   UNL A   1     -31.088  -1.740  24.521  0.00  0.00    +0.000 A 
ATOM     22  C   UNL A   1     -29.236  -0.780  23.589  0.00  0.00    +0.004 A 
ATOM     23  C   UNL A   1     -30.146  -1.757  23.596  0.00  0.00    +0.000 A 
ENDBRANCH  10  18
ENDBRANCH   2   7
BRANCH   3  24
ATOM     24  C   UNL A   1     -21.913   1.581  27.437  0.00  0.00    +0.419 C 
ATOM     25  F   UNL A   1     -21.888   2.524  28.095  0.00  0.00    -0.166 F 
ATOM     26  F   UNL A   1     -20.775   0.784  27.731  0.00  0.00    -0.166 F 
ATOM     27  F   UNL A   1     -21.612   1.911  26.026  0.00  0.00    -0.166 F 
ENDBRANCH   3  24
BRANCH   6  28
ATOM     28  C   UNL A   1     -24.574  -1.901  29.657  0.00  0.00    +0.342 C 
ATOM     29  O   UNL A   1     -25.119  -1.554  30.691  0.00  0.00    -0.245 OA
BRANCH  28  30
ATOM     30  O   UNL A   1     -23.870  -3.026  29.564  0.00  0.00    -0.433 OA
BRANCH  30  31
ATOM     31  C   UNL A   1     -24.314  -3.912  28.692  0.00  0.00    +0.322 C 
BRANCH  31  32
ATOM     32  C   UNL A   1     -25.212  -4.967  29.288  0.00  0.00    +0.409 C 
ATOM     33  O   UNL A   1     -24.730  -6.071  29.515  0.00  0.00    -0.241 OA
ATOM     34  O   UNL A   1     -26.372  -4.580  29.652  0.00  0.00    -0.241 OA
ENDBRANCH  31  32
ENDBRANCH  30  31
ENDBRANCH  28  30
ENDBRANCH   6  28
TORSDOF 8
ENDMDL
ENDMDL
