MODEL 375
MODEL 1
REMARK VINA RESULT:    -6.156      0.000      0.000
REMARK INTER + INTRA:          -8.026
REMARK INTER:                  -7.595
REMARK INTRA:                  -0.431
REMARK UNBOUND:                -0.431
REMARK  Name = No_375-gen_results/8p0m/2024-11-26-14-13-15/
REMARK  4 active torsions:
REMARK  status: ('A' for Active; 'I' for Inactive)
REMARK    1  A    between atoms: C_2  and  C_5
REMARK    2  A    between atoms: C_3  and  C_9
REMARK    3  A    between atoms: C_10  and  C_11
REMARK    4  A    between atoms: C_12  and  C_13
REMARK                            x       y       z     vdW  Elec       q    Type
REMARK                         _______ _______ _______ _____ _____    ______ ____
ROOT
ATOM      1  C   UNL A   1     -25.609  -2.519  29.997  0.00  0.00    -0.002 A 
ATOM      2  C   UNL A   1     -26.233  -3.365  29.926  0.00  0.00    +0.011 A 
ATOM      3  C   UNL A   1     -24.298  -2.622  29.481  0.00  0.00    -0.000 A 
ATOM      4  C   UNL A   1     -23.827  -3.788  28.911  0.00  0.00    -0.000 A 
ATOM      5  C   UNL A   1     -24.749  -4.843  28.861  0.00  0.00    -0.000 A 
ATOM      6  C   UNL A   1     -26.044  -4.676  29.314  0.00  0.00    -0.002 A 
ENDROOT
BRANCH   2   7
ATOM      7  C   UNL A   1     -27.688  -3.303  30.419  0.00  0.00    +0.209 C 
ATOM      8  O   UNL A   1     -28.467  -4.317  30.040  0.00  0.00    -0.215 OA
ENDBRANCH   2   7
BRANCH   3   9
ATOM      9  C   UNL A   1     -23.288  -1.482  29.494  0.00  0.00    -0.000 C 
ATOM     10  C   UNL A   1     -23.238  -0.528  28.659  0.00  0.00    -0.000 C 
BRANCH  10  11
ATOM     11  C   UNL A   1     -22.080   0.348  28.518  0.00  0.00    -0.000 C 
ATOM     12  C   UNL A   1     -22.115   1.449  27.681  0.00  0.00    +0.000 C 
BRANCH  12  13
ATOM     13  C   UNL A   1     -23.290   1.713  26.962  0.00  0.00    +0.000 C 
ATOM     14  C   UNL A   1     -23.230   2.235  25.638  0.00  0.00    +0.000 C 
ENDBRANCH  12  13
ENDBRANCH  10  11
ENDBRANCH   3   9
TORSDOF 4
ENDMDL
ENDMDL
