REMARK  Name = No_376-gen_results/8p0m/2024-11-26-14-13-15/
REMARK  4 active torsions:
REMARK  status: ('A' for Active; 'I' for Inactive)
REMARK    1  A    between atoms: C_2  and  C_7
REMARK    2  A    between atoms: C_7  and  N_8
REMARK    3  A    between atoms: C_7  and  C_9
REMARK    4  A    between atoms: C_9  and  C_10
REMARK                            x       y       z     vdW  Elec       q    Type
REMARK                         _______ _______ _______ _____ _____    ______ ____
ROOT
ATOM      1  C   UNL A   1     -30.077  -0.886  30.024  0.00  0.00    +0.099 C 
ENDROOT
BRANCH   1   3
ATOM      2  C   UNL A   1     -28.016  -0.814  28.878  0.00  0.00    -0.003 A 
ATOM      3  C   UNL A   1     -28.469  -0.785  29.829  0.00  0.00    -0.006 A 
ATOM      4  C   UNL A   1     -26.504  -0.778  28.877  0.00  0.00    -0.000 A 
ATOM      5  C   UNL A   1     -25.810  -0.853  30.103  0.00  0.00    -0.000 A 
ATOM      6  C   UNL A   1     -27.991  -0.892  31.226  0.00  0.00    -0.003 A 
ATOM      7  C   UNL A   1     -26.604  -0.868  31.265  0.00  0.00    -0.000 A 
ENDBRANCH   1   3
BRANCH   1   8
ATOM      8  N   UNL A   1     -30.657  -1.889  30.185  0.00  0.00    -0.213 NA
ATOM      9  C   UNL A   1     -31.904  -2.173  29.910  0.00  0.00    +0.108 C 
ENDBRANCH   1   8
BRANCH   1  10
ATOM     10  C   UNL A   1     -30.806   0.344  29.674  0.00  0.00    +0.048 C 
BRANCH  10  11
ATOM     11  C   UNL A   1     -30.286   1.502  29.591  0.00  0.00    -0.020 A 
ATOM     12  C   UNL A   1     -31.073   2.639  29.212  0.00  0.00    -0.004 A 
ATOM     13  C   UNL A   1     -30.561   3.955  29.101  0.00  0.00    -0.000 A 
ATOM     14  C   UNL A   1     -29.167   4.124  29.330  0.00  0.00    -0.000 A 
ATOM     15  C   UNL A   1     -28.351   3.022  29.652  0.00  0.00    -0.000 A 
ATOM     16  C   UNL A   1     -28.899   1.775  29.766  0.00  0.00    -0.004 A 
ENDBRANCH  10  11
ENDBRANCH   1  10
TORSDOF 4
