MODEL 3760
MODEL 1
REMARK VINA RESULT:    -6.533      0.000      0.000
REMARK INTER + INTRA:          -8.321
REMARK INTER:                  -7.679
REMARK INTRA:                  -0.642
REMARK UNBOUND:                -0.642
REMARK  Name = No_3760-gen_results/8p0m/2024-11-26-14-13-15/
REMARK  3 active torsions:
REMARK  status: ('A' for Active; 'I' for Inactive)
REMARK    1  A    between atoms: C_3  and  C_8
REMARK    2  A    between atoms: C_6  and  O_7
REMARK    3  A    between atoms: O_7  and  C_14
REMARK                            x       y       z     vdW  Elec       q    Type
REMARK                         _______ _______ _______ _____ _____    ______ ____
ROOT
ATOM      1  C   UNL A   1     -29.487  -9.952  32.656  0.00  0.00    +0.037 A 
ATOM      2  C   UNL A   1     -29.794 -10.026  31.489  0.00  0.00    +0.003 A 
ATOM      3  C   UNL A   1     -29.230 -10.987  30.658  0.00  0.00    +0.000 A 
ATOM      4  C   UNL A   1     -28.227 -11.896  31.150  0.00  0.00    +0.003 A 
ATOM      5  C   UNL A   1     -27.914 -11.725  32.505  0.00  0.00    +0.037 A 
ATOM      6  C   UNL A   1     -28.465 -10.789  33.244  0.00  0.00    +0.145 A 
ENDROOT
BRANCH   3   7
ATOM      7  C   UNL A   1     -29.539 -11.187  29.194  0.00  0.00    +0.000 A 
ATOM      8  C   UNL A   1     -28.819 -12.023  28.467  0.00  0.00    +0.000 A 
ATOM      9  C   UNL A   1     -29.070 -12.153  27.052  0.00  0.00    +0.000 A 
ATOM     10  C   UNL A   1     -29.993 -11.324  26.390  0.00  0.00    +0.000 A 
ATOM     11  C   UNL A   1     -30.457 -10.324  28.518  0.00  0.00    +0.000 A 
ATOM     12  C   UNL A   1     -30.684 -10.450  27.108  0.00  0.00    +0.000 A 
ENDBRANCH   3   7
BRANCH   6  13
ATOM     13  O   UNL A   1     -28.076 -10.666  34.543  0.00  0.00    -0.456 OA
BRANCH  13  14
ATOM     14  C   UNL A   1     -27.935  -9.460  35.124  0.00  0.00    +0.148 C 
ATOM     15  C   UNL A   1     -26.718  -9.007  35.029  0.00  0.00    +0.132 C 
ATOM     16  N   UNL A   1     -26.444  -7.914  35.780  0.00  0.00    -0.244 NA
ATOM     17  C   UNL A   1     -27.416  -7.380  36.425  0.00  0.00    +0.081 C 
ATOM     18  C   UNL A   1     -28.733  -8.613  35.953  0.00  0.00    +0.113 C 
ENDBRANCH  13  14
ENDBRANCH   6  13
TORSDOF 3
ENDMDL
ENDMDL
