REMARK  Name = No_3761-gen_results/8p0m/2024-11-26-14-13-15/
REMARK  1 active torsions:
REMARK  status: ('A' for Active; 'I' for Inactive)
REMARK    1  A    between atoms: C_3  and  C_12
REMARK                            x       y       z     vdW  Elec       q    Type
REMARK                         _______ _______ _______ _____ _____    ______ ____
ROOT
ATOM      1  O   UNL A   1     -28.123  -1.335  28.487  0.00  0.00    -0.273 OA
ATOM      2  C   UNL A   1     -27.064  -0.824  28.869  0.00  0.00    +0.245 C 
ATOM      3  C   UNL A   1     -26.402  -0.062  28.622  0.00  0.00    +0.107 C 
ATOM      4  N   UNL A   1     -26.381  -1.799  29.962  0.00  0.00    -0.205 NA
ATOM      5  C   UNL A   1     -25.033   0.374  29.048  0.00  0.00    +0.072 C 
ATOM      6  C   UNL A   1     -24.192   1.436  28.663  0.00  0.00    +0.151 C 
ATOM      7  C   UNL A   1     -22.883   1.589  29.145  0.00  0.00    +0.065 C 
ATOM      8  C   UNL A   1     -22.386   0.491  29.857  0.00  0.00    +0.008 C 
ATOM      9  C   UNL A   1     -23.098  -0.632  30.186  0.00  0.00    +0.003 C 
ATOM     10  C   UNL A   1     -24.367  -0.730  29.757  0.00  0.00    +0.029 C 
ATOM     11  C   UNL A   1     -25.174  -1.802  30.270  0.00  0.00    +0.116 C 
ATOM     12  O   UNL A   1     -24.677   2.505  27.979  0.00  0.00    -0.296 OA
ENDROOT
BRANCH   3  13
ATOM     13  C   UNL A   1     -26.698   0.931  27.437  0.00  0.00    -0.013 A 
ATOM     14  C   UNL A   1     -26.408   0.596  26.142  0.00  0.00    -0.004 A 
ATOM     15  C   UNL A   1     -27.551   1.968  27.715  0.00  0.00    -0.004 A 
ATOM     16  C   UNL A   1     -26.986   1.156  25.031  0.00  0.00    -0.000 A 
ATOM     17  C   UNL A   1     -28.128   2.679  26.636  0.00  0.00    -0.000 A 
ATOM     18  C   UNL A   1     -27.831   2.313  25.283  0.00  0.00    -0.000 A 
ENDBRANCH   3  13
TORSDOF 1
