MODEL 3761
MODEL 1
REMARK VINA RESULT:    -6.950      0.000      0.000
REMARK INTER + INTRA:          -7.142
REMARK INTER:                  -7.356
REMARK INTRA:                   0.215
REMARK UNBOUND:                 0.215
REMARK  Name = No_3761-gen_results/8p0m/2024-11-26-14-13-15/
REMARK  1 active torsions:
REMARK  status: ('A' for Active; 'I' for Inactive)
REMARK    1  A    between atoms: C_3  and  C_12
REMARK                            x       y       z     vdW  Elec       q    Type
REMARK                         _______ _______ _______ _____ _____    ______ ____
ROOT
ATOM      1  O   UNL A   1     -23.920  -1.514  32.015  0.00  0.00    -0.273 OA
ATOM      2  C   UNL A   1     -24.089  -0.873  30.971  0.00  0.00    +0.245 C 
ATOM      3  C   UNL A   1     -24.360  -1.009  29.977  0.00  0.00    +0.107 C 
ATOM      4  N   UNL A   1     -23.470   0.608  31.164  0.00  0.00    -0.205 NA
ATOM      5  C   UNL A   1     -24.366  -0.184  28.726  0.00  0.00    +0.072 C 
ATOM      6  C   UNL A   1     -24.758  -0.443  27.398  0.00  0.00    +0.151 C 
ATOM      7  C   UNL A   1     -24.576   0.477  26.353  0.00  0.00    +0.065 C 
ATOM      8  C   UNL A   1     -23.771   1.577  26.671  0.00  0.00    +0.008 C 
ATOM      9  C   UNL A   1     -23.255   1.854  27.910  0.00  0.00    +0.003 C 
ATOM     10  C   UNL A   1     -23.489   0.984  28.906  0.00  0.00    +0.029 C 
ATOM     11  C   UNL A   1     -23.128   1.371  30.241  0.00  0.00    +0.116 C 
ATOM     12  O   UNL A   1     -25.546  -1.506  27.092  0.00  0.00    -0.296 OA
ENDROOT
BRANCH   3  13
ATOM     13  C   UNL A   1     -24.806  -2.417  29.432  0.00  0.00    -0.013 A 
ATOM     14  C   UNL A   1     -23.900  -3.284  28.885  0.00  0.00    -0.004 A 
ATOM     15  C   UNL A   1     -26.040  -2.859  29.836  0.00  0.00    -0.004 A 
ATOM     16  C   UNL A   1     -24.068  -4.642  28.779  0.00  0.00    -0.000 A 
ATOM     17  C   UNL A   1     -26.353  -4.230  29.680  0.00  0.00    -0.000 A 
ATOM     18  C   UNL A   1     -25.394  -5.135  29.119  0.00  0.00    -0.000 A 
ENDBRANCH   3  13
TORSDOF 1
ENDMDL
ENDMDL
