MODEL 3762
MODEL 1
REMARK VINA RESULT:    -5.365      0.000      0.000
REMARK INTER + INTRA:          -8.861
REMARK INTER:                  -6.934
REMARK INTRA:                  -1.928
REMARK UNBOUND:                -1.928
REMARK  Name = No_3762-gen_results/8p0m/2024-11-26-14-13-15/
REMARK  5 active torsions:
REMARK  status: ('A' for Active; 'I' for Inactive)
REMARK    1  A    between atoms: C_2  and  C_7
REMARK    2  A    between atoms: C_7  and  C_9
REMARK    3  A    between atoms: C_9  and  C_10
REMARK    4  A    between atoms: C_10  and  C_11
REMARK    5  A    between atoms: C_11  and  C_12
REMARK                            x       y       z     vdW  Elec       q    Type
REMARK                         _______ _______ _______ _____ _____    ______ ____
ROOT
ATOM      1  C   UNL A   1     -30.094 -14.839  12.417  0.00  0.00    +0.022 C 
ATOM      2  C   UNL A   1     -29.377 -15.679  13.271  0.00  0.00    +0.005 C 
ENDROOT
BRANCH   1   4
ATOM      3  C   UNL A   1     -29.389 -15.720  10.302  0.00  0.00    -0.004 A 
ATOM      4  C   UNL A   1     -30.282 -15.243  10.964  0.00  0.00    -0.022 A 
ATOM      5  C   UNL A   1     -31.538 -15.024  10.498  0.00  0.00    -0.004 A 
ATOM      6  C   UNL A   1     -31.825 -15.371   9.164  0.00  0.00    -0.000 A 
ATOM      7  C   UNL A   1     -29.638 -16.186   8.961  0.00  0.00    -0.000 A 
ATOM      8  C   UNL A   1     -30.875 -15.962   8.437  0.00  0.00    -0.000 A 
ENDBRANCH   1   4
BRANCH   1   9
ATOM      9  C   UNL A   1     -30.375 -13.522  12.888  0.00  0.00    +0.005 C 
BRANCH   9  10
ATOM     10  C   UNL A   1     -29.710 -12.363  12.505  0.00  0.00    +0.005 C 
BRANCH  10  11
ATOM     11  C   UNL A   1     -30.073 -11.640  11.327  0.00  0.00    +0.022 C 
ATOM     12  C   UNL A   1     -31.215 -10.935  11.134  0.00  0.00    +0.005 C 
BRANCH  11  13
ATOM     13  C   UNL A   1     -29.108 -11.700  10.273  0.00  0.00    -0.031 C 
ATOM     14  C   UNL A   1     -29.259 -12.350   9.014  0.00  0.00    -0.030 C 
ATOM     15  C   UNL A   1     -28.343 -12.728   8.132  0.00  0.00    +0.030 C 
ENDBRANCH  11  13
ENDBRANCH  10  11
ENDBRANCH   9  10
ENDBRANCH   1   9
TORSDOF 5
ENDMDL
ENDMDL
