MODEL 3763
MODEL 1
REMARK VINA RESULT:    -4.897      0.000      0.000
REMARK INTER + INTRA:          -5.253
REMARK INTER:                  -5.183
REMARK INTRA:                  -0.070
REMARK UNBOUND:                -0.070
REMARK  Name = No_3763-gen_results/8p0m/2024-11-26-14-13-15/
REMARK  1 active torsions:
REMARK  status: ('A' for Active; 'I' for Inactive)
REMARK    1  A    between atoms: C_2  and  C_7
REMARK                            x       y       z     vdW  Elec       q    Type
REMARK                         _______ _______ _______ _____ _____    ______ ____
ROOT
ATOM      1  C   UNL A   1     -23.863  -3.476  28.605  0.00  0.00    -0.000 A 
ATOM      2  C   UNL A   1     -24.636  -2.631  28.994  0.00  0.00    -0.000 A 
ATOM      3  C   UNL A   1     -25.846  -2.980  29.584  0.00  0.00    -0.000 A 
ATOM      4  C   UNL A   1     -26.238  -4.360  29.708  0.00  0.00    -0.000 A 
ATOM      5  C   UNL A   1     -25.296  -5.271  29.212  0.00  0.00    -0.000 A 
ATOM      6  C   UNL A   1     -24.173  -4.889  28.648  0.00  0.00    -0.000 A 
ENDROOT
BRANCH   2   7
ATOM      7  C   UNL A   1     -24.409  -1.162  28.922  0.00  0.00    -0.005 C 
ATOM      8  C   UNL A   1     -23.601  -0.535  29.702  0.00  0.00    -0.026 C 
ATOM      9  C   UNL A   1     -23.389  -1.102  31.101  0.00  0.00    +0.031 C 
ENDBRANCH   2   7
TORSDOF 1
ENDMDL
ENDMDL
