MODEL 3764
MODEL 1
REMARK VINA RESULT:    -7.417      0.000      0.000
REMARK INTER + INTRA:         -10.763
REMARK INTER:                  -9.151
REMARK INTRA:                  -1.612
REMARK UNBOUND:                -1.612
REMARK  Name = No_3764-gen_results/8p0m/2024-11-26-14-13-15/
REMARK  4 active torsions:
REMARK  status: ('A' for Active; 'I' for Inactive)
REMARK    1  A    between atoms: C_3  and  C_7
REMARK    2  A    between atoms: C_5  and  C_25
REMARK    3  A    between atoms: N_8  and  C_11
REMARK    4  A    between atoms: C_11  and  C_12
REMARK                            x       y       z     vdW  Elec       q    Type
REMARK                         _______ _______ _______ _____ _____    ______ ____
ROOT
ATOM      1  C   UNL A   1      -8.830   1.592  36.502  0.00  0.00    +0.098 C 
ATOM      2  C   UNL A   1      -8.072   2.518  37.316  0.00  0.00    +0.026 C 
ENDROOT
BRANCH   1   3
ATOM      3  C   UNL A   1      -9.631   0.561  37.013  0.00  0.00    -0.004 A 
ATOM      4  C   UNL A   1      -9.719  -0.470  36.688  0.00  0.00    -0.003 A 
ATOM      5  C   UNL A   1     -10.651  -1.485  37.275  0.00  0.00    -0.004 A 
ATOM      6  C   UNL A   1     -11.387  -1.147  38.396  0.00  0.00    -0.013 A 
ATOM      7  C   UNL A   1     -11.377   0.195  38.790  0.00  0.00    +0.051 A 
ATOM      8  C   UNL A   1     -10.527   1.149  38.183  0.00  0.00    +0.002 A 
ATOM      9  C   UNL A   1     -12.282   0.614  39.936  0.00  0.00    +0.269 C 
ATOM     10  N   UNL A   1     -12.478  -0.091  40.946  0.00  0.00    -0.174 NA
ATOM     11  C   UNL A   1     -12.154  -1.090  41.272  0.00  0.00    +0.085 C 
ATOM     12  C   UNL A   1     -11.961  -2.244  40.482  0.00  0.00    -0.004 C 
ATOM     13  C   UNL A   1     -11.615  -2.235  39.325  0.00  0.00    +0.054 C 
ATOM     14  O   UNL A   1     -12.712   1.836  39.691  0.00  0.00    -0.268 OA
ENDBRANCH   1   3
BRANCH   1  16
ATOM     15  C   UNL A   1      -9.691   2.047  34.344  0.00  0.00    +0.249 C 
ATOM     16  N   UNL A   1      -8.770   1.812  35.040  0.00  0.00    -0.272 N 
ATOM     17  O   UNL A   1      -9.488   2.274  33.039  0.00  0.00    -0.270 OA
ATOM     18  C   UNL A   1      -7.376   1.632  34.564  0.00  0.00    +0.115 C 
BRANCH  15  21
ATOM     19  C   UNL A   1     -11.239   3.636  35.661  0.00  0.00    +0.004 A 
ATOM     20  C   UNL A   1     -12.239   3.788  35.955  0.00  0.00    +0.000 A 
ATOM     21  C   UNL A   1     -11.035   2.409  34.890  0.00  0.00    +0.054 A 
ATOM     22  C   UNL A   1     -12.070   1.564  34.576  0.00  0.00    +0.004 A 
ATOM     23  C   UNL A   1     -13.509   3.087  35.768  0.00  0.00    -0.000 A 
ATOM     24  C   UNL A   1     -13.323   1.898  35.023  0.00  0.00    +0.000 A 
BRANCH  23  25
ATOM     25  C   UNL A   1     -14.835   3.426  36.291  0.00  0.00    -0.005 C 
ATOM     26  C   UNL A   1     -15.082   3.190  37.587  0.00  0.00    -0.026 C 
ATOM     27  C   UNL A   1     -16.365   3.530  38.143  0.00  0.00    +0.031 C 
ENDBRANCH  23  25
ENDBRANCH  15  21
ENDBRANCH   1  16
TORSDOF 4
ENDMDL
ENDMDL
