REMARK  Name = No_3764-gen_results/8p0m/2024-11-26-14-13-15/
REMARK  4 active torsions:
REMARK  status: ('A' for Active; 'I' for Inactive)
REMARK    1  A    between atoms: C_3  and  C_7
REMARK    2  A    between atoms: C_5  and  C_25
REMARK    3  A    between atoms: N_8  and  C_11
REMARK    4  A    between atoms: C_11  and  C_12
REMARK                            x       y       z     vdW  Elec       q    Type
REMARK                         _______ _______ _______ _____ _____    ______ ____
ROOT
ATOM      1  C   UNL A   1     -28.061   1.562  26.280  0.00  0.00    +0.098 C 
ATOM      2  C   UNL A   1     -27.975   2.947  25.868  0.00  0.00    +0.026 C 
ENDROOT
BRANCH   1   3
ATOM      3  C   UNL A   1     -29.261   0.885  26.537  0.00  0.00    -0.004 A 
ATOM      4  C   UNL A   1     -29.795   0.169  25.921  0.00  0.00    -0.003 A 
ATOM      5  C   UNL A   1     -31.108  -0.462  26.271  0.00  0.00    -0.004 A 
ATOM      6  C   UNL A   1     -31.652  -0.225  27.519  0.00  0.00    -0.013 A 
ATOM      7  C   UNL A   1     -31.049   0.763  28.305  0.00  0.00    +0.051 A 
ATOM      8  C   UNL A   1     -29.837   1.386  27.928  0.00  0.00    +0.002 A 
ATOM      9  C   UNL A   1     -31.709   1.134  29.623  0.00  0.00    +0.269 C 
ATOM     10  N   UNL A   1     -32.241   0.299  30.381  0.00  0.00    -0.174 NA
ATOM     11  C   UNL A   1     -32.419  -0.786  30.341  0.00  0.00    +0.085 C 
ATOM     12  C   UNL A   1     -32.741  -1.575  29.215  0.00  0.00    -0.004 C 
ATOM     13  C   UNL A   1     -32.384  -1.339  28.086  0.00  0.00    +0.054 C 
ATOM     14  O   UNL A   1     -31.528   2.425  29.820  0.00  0.00    -0.268 OA
ENDBRANCH   1   3
BRANCH   1  16
ATOM     15  C   UNL A   1     -26.311   0.392  27.364  0.00  0.00    +0.249 C 
ATOM     16  N   UNL A   1     -26.777   0.832  26.376  0.00  0.00    -0.272 N 
ATOM     17  O   UNL A   1     -25.161  -0.292  27.301  0.00  0.00    -0.270 OA
ATOM     18  C   UNL A   1     -26.126   0.788  25.043  0.00  0.00    +0.115 C 
BRANCH  15  21
ATOM     19  C   UNL A   1     -28.016  -0.814  28.878  0.00  0.00    +0.004 A 
ATOM     20  C   UNL A   1     -28.469  -0.785  29.829  0.00  0.00    +0.000 A 
ATOM     21  C   UNL A   1     -27.087   0.290  28.638  0.00  0.00    +0.054 A 
ATOM     22  C   UNL A   1     -26.832   1.249  29.587  0.00  0.00    +0.004 A 
ATOM     23  C   UNL A   1     -28.391   0.080  31.006  0.00  0.00    -0.000 A 
ATOM     24  C   UNL A   1     -27.494   1.152  30.784  0.00  0.00    +0.000 A 
BRANCH  23  25
ATOM     25  C   UNL A   1     -29.139  -0.004  32.263  0.00  0.00    -0.005 C 
ATOM     26  C   UNL A   1     -29.387  -1.219  32.771  0.00  0.00    -0.026 C 
ATOM     27  C   UNL A   1     -30.099  -1.341  34.015  0.00  0.00    +0.031 C 
ENDBRANCH  23  25
ENDBRANCH  15  21
ENDBRANCH   1  16
TORSDOF 4
