REMARK  Name = No_3765-gen_results/8p0m/2024-11-26-14-13-15/
REMARK  2 active torsions:
REMARK  status: ('A' for Active; 'I' for Inactive)
REMARK    1  A    between atoms: C_1  and  C_2
REMARK    2  A    between atoms: C_5  and  C_13
REMARK                            x       y       z     vdW  Elec       q    Type
REMARK                         _______ _______ _______ _____ _____    ______ ____
ROOT
ATOM      1  C   UNL A   1     -27.064  -0.119  28.608  0.00  0.00    -0.000 A 
ATOM      2  C   UNL A   1     -27.001   0.691  27.491  0.00  0.00    -0.000 A 
ATOM      3  C   UNL A   1     -25.855   1.482  27.083  0.00  0.00    -0.000 A 
ATOM      4  C   UNL A   1     -24.690   1.453  27.881  0.00  0.00    -0.000 A 
ATOM      5  C   UNL A   1     -24.738   0.601  29.042  0.00  0.00    -0.000 A 
ATOM      6  C   UNL A   1     -25.823  -0.169  29.389  0.00  0.00    -0.000 A 
ENDROOT
BRANCH   1   7
ATOM      7  C   UNL A   1     -28.016  -0.814  28.878  0.00  0.00    +0.000 A 
ATOM      8  C   UNL A   1     -28.752  -0.459  30.141  0.00  0.00    +0.000 A 
ATOM      9  C   UNL A   1     -29.832  -1.294  30.590  0.00  0.00    +0.000 A 
ATOM     10  C   UNL A   1     -29.852  -2.499  30.137  0.00  0.00    +0.000 A 
ATOM     11  C   UNL A   1     -28.877  -3.155  29.517  0.00  0.00    +0.000 A 
ATOM     12  C   UNL A   1     -27.812  -2.411  29.039  0.00  0.00    +0.000 A 
ENDBRANCH   1   7
BRANCH   4  13
ATOM     13  C   UNL A   1     -23.512   2.226  27.553  0.00  0.00    -0.005 C 
ATOM     14  C   UNL A   1     -22.406   2.146  28.382  0.00  0.00    -0.026 C 
ATOM     15  C   UNL A   1     -22.454   1.145  29.396  0.00  0.00    +0.031 C 
ENDBRANCH   4  13
TORSDOF 2
