MODEL 3765
MODEL 1
REMARK VINA RESULT:    -6.833      0.000      0.000
REMARK INTER + INTRA:          -7.826
REMARK INTER:                  -7.631
REMARK INTRA:                  -0.194
REMARK UNBOUND:                -0.194
REMARK  Name = No_3765-gen_results/8p0m/2024-11-26-14-13-15/
REMARK  2 active torsions:
REMARK  status: ('A' for Active; 'I' for Inactive)
REMARK    1  A    between atoms: C_1  and  C_2
REMARK    2  A    between atoms: C_5  and  C_13
REMARK                            x       y       z     vdW  Elec       q    Type
REMARK                         _______ _______ _______ _____ _____    ______ ____
ROOT
ATOM      1  C   UNL A   1     -24.217  -1.663  28.974  0.00  0.00    -0.000 A 
ATOM      2  C   UNL A   1     -25.123  -0.768  28.439  0.00  0.00    -0.000 A 
ATOM      3  C   UNL A   1     -24.804   0.545  27.911  0.00  0.00    -0.000 A 
ATOM      4  C   UNL A   1     -23.462   0.982  27.940  0.00  0.00    -0.000 A 
ATOM      5  C   UNL A   1     -22.504   0.052  28.483  0.00  0.00    -0.000 A 
ATOM      6  C   UNL A   1     -22.824  -1.203  28.944  0.00  0.00    -0.000 A 
ENDROOT
BRANCH   1   7
ATOM      7  C   UNL A   1     -24.513  -2.776  29.344  0.00  0.00    +0.000 A 
ATOM      8  C   UNL A   1     -24.009  -3.908  28.492  0.00  0.00    +0.000 A 
ATOM      9  C   UNL A   1     -24.400  -5.256  28.801  0.00  0.00    +0.000 A 
ATOM     10  C   UNL A   1     -25.463  -5.395  29.514  0.00  0.00    +0.000 A 
ATOM     11  C   UNL A   1     -26.389  -4.482  29.787  0.00  0.00    +0.000 A 
ATOM     12  C   UNL A   1     -26.074  -3.159  29.533  0.00  0.00    +0.000 A 
ENDBRANCH   1   7
BRANCH   4  13
ATOM     13  C   UNL A   1     -23.064   2.284  27.450  0.00  0.00    -0.005 C 
ATOM     14  C   UNL A   1     -23.090   2.522  26.086  0.00  0.00    -0.026 C 
ATOM     15  C   UNL A   1     -23.700   1.513  25.285  0.00  0.00    +0.031 C 
ENDBRANCH   4  13
TORSDOF 2
ENDMDL
ENDMDL
