REMARK  Name = No_3766-gen_results/8p0m/2024-11-26-14-13-15/
REMARK  3 active torsions:
REMARK  status: ('A' for Active; 'I' for Inactive)
REMARK    1  A    between atoms: C_3  and  C_7
REMARK    2  A    between atoms: C_6  and  C_13
REMARK    3  A    between atoms: C_20  and  C_26
REMARK                            x       y       z     vdW  Elec       q    Type
REMARK                         _______ _______ _______ _____ _____    ______ ____
ROOT
ATOM      1  C   UNL A   1     -29.037  -2.786  30.161  0.00  0.00    +0.266 C 
ATOM      2  N   UNL A   1     -30.191  -2.319  30.165  0.00  0.00    -0.186 N 
ATOM      3  O   UNL A   1     -28.833  -4.000  30.507  0.00  0.00    -0.268 OA
ATOM      4  C   UNL A   1     -31.387  -3.102  30.527  0.00  0.00    +0.122 C 
ATOM      5  C   UNL A   1     -32.397  -2.528  30.791  0.00  0.00    +0.051 C 
ATOM      6  C   UNL A   1     -32.639  -1.427  30.169  0.00  0.00    -0.003 A 
ATOM      7  C   UNL A   1     -33.871  -0.611  30.405  0.00  0.00    +0.007 A 
ATOM      8  C   UNL A   1     -33.998   0.665  29.855  0.00  0.00    +0.068 A 
ATOM      9  C   UNL A   1     -32.970   1.132  28.994  0.00  0.00    +0.012 A 
ATOM     10  C   UNL A   1     -31.847   0.408  28.730  0.00  0.00    +0.018 A 
ATOM     11  C   UNL A   1     -31.736  -0.828  29.347  0.00  0.00    +0.084 A 
ATOM     12  N   UNL A   1     -30.440  -1.389  29.351  0.00  0.00    -0.145 NA
ENDROOT
BRANCH   1  18
ATOM     13  C   UNL A   1     -28.016  -0.814  28.878  0.00  0.00    +0.005 A 
ATOM     14  C   UNL A   1     -27.064  -0.119  28.608  0.00  0.00    +0.000 A 
ATOM     15  C   UNL A   1     -25.765  -0.390  29.036  0.00  0.00    +0.000 A 
ATOM     16  C   UNL A   1     -25.530  -1.530  29.901  0.00  0.00    +0.000 A 
ATOM     17  C   UNL A   1     -26.689  -2.289  30.181  0.00  0.00    +0.005 A 
ATOM     18  C   UNL A   1     -27.873  -1.951  29.737  0.00  0.00    +0.055 A 
BRANCH  15  19
ATOM     19  C   UNL A   1     -24.549   0.410  28.734  0.00  0.00    +0.001 A 
ATOM     20  C   UNL A   1     -24.479   1.187  27.684  0.00  0.00    +0.011 A 
ATOM     21  C   UNL A   1     -23.386   1.861  27.361  0.00  0.00    +0.058 A 
ATOM     22  C   UNL A   1     -22.145   1.722  28.003  0.00  0.00    +0.011 A 
ATOM     23  C   UNL A   1     -23.329   0.182  29.468  0.00  0.00    +0.000 A 
ATOM     24  C   UNL A   1     -22.130   0.861  29.076  0.00  0.00    +0.001 A 
ATOM     25 CL   UNL A   1     -23.407   2.972  25.990  0.00  0.00    -0.082 Cl
ENDBRANCH  15  19
ENDBRANCH   1  18
BRANCH   8  26
ATOM     26  C   UNL A   1     -35.257   1.427  30.022  0.00  0.00    +0.100 C 
ATOM     27  N   UNL A   1     -35.724   1.487  31.129  0.00  0.00    -0.191 NA
ENDBRANCH   8  26
TORSDOF 3
