MODEL 3766
MODEL 1
REMARK VINA RESULT:    -7.611      0.000      0.000
REMARK INTER + INTRA:          -9.378
REMARK INTER:                  -8.946
REMARK INTRA:                  -0.433
REMARK UNBOUND:                -0.433
REMARK  Name = No_3766-gen_results/8p0m/2024-11-26-14-13-15/
REMARK  3 active torsions:
REMARK  status: ('A' for Active; 'I' for Inactive)
REMARK    1  A    between atoms: C_3  and  C_7
REMARK    2  A    between atoms: C_6  and  C_13
REMARK    3  A    between atoms: C_20  and  C_26
REMARK                            x       y       z     vdW  Elec       q    Type
REMARK                         _______ _______ _______ _____ _____    ______ ____
ROOT
ATOM      1  C   UNL A   1     -10.743   0.341  36.876  0.00  0.00    +0.266 C 
ATOM      2  N   UNL A   1     -11.697   1.108  36.647  0.00  0.00    -0.186 N 
ATOM      3  O   UNL A   1      -9.860   0.126  35.977  0.00  0.00    -0.268 OA
ATOM      4  C   UNL A   1     -11.872   1.835  35.377  0.00  0.00    +0.122 C 
ATOM      5  C   UNL A   1     -12.936   2.307  35.122  0.00  0.00    +0.051 C 
ATOM      6  C   UNL A   1     -13.643   2.751  36.101  0.00  0.00    -0.003 A 
ATOM      7  C   UNL A   1     -14.994   3.369  35.918  0.00  0.00    +0.007 A 
ATOM      8  C   UNL A   1     -15.802   3.658  37.018  0.00  0.00    +0.068 A 
ATOM      9  C   UNL A   1     -15.275   3.433  38.317  0.00  0.00    +0.012 A 
ATOM     10  C   UNL A   1     -14.040   2.900  38.527  0.00  0.00    +0.018 A 
ATOM     11  C   UNL A   1     -13.297   2.573  37.404  0.00  0.00    +0.084 A 
ATOM     12  N   UNL A   1     -12.202   1.711  37.633  0.00  0.00    -0.145 NA
ENDROOT
BRANCH   1  18
ATOM     13  C   UNL A   1     -11.477  -1.374  38.637  0.00  0.00    +0.005 A 
ATOM     14  C   UNL A   1     -11.292  -1.941  39.688  0.00  0.00    +0.000 A 
ATOM     15  C   UNL A   1     -10.281  -1.596  40.584  0.00  0.00    +0.000 A 
ATOM     16  C   UNL A   1      -9.353  -0.540  40.228  0.00  0.00    +0.000 A 
ATOM     17  C   UNL A   1      -9.625   0.070  38.982  0.00  0.00    +0.005 A 
ATOM     18  C   UNL A   1     -10.599  -0.329  38.204  0.00  0.00    +0.055 A 
BRANCH  15  19
ATOM     19  C   UNL A   1     -10.003  -2.239  41.895  0.00  0.00    +0.001 A 
ATOM     20  C   UNL A   1      -9.097  -3.174  42.025  0.00  0.00    +0.011 A 
ATOM     21  C   UNL A   1      -8.874  -3.804  43.168  0.00  0.00    +0.058 A 
ATOM     22  C   UNL A   1      -9.658  -3.659  44.324  0.00  0.00    +0.011 A 
ATOM     23  C   UNL A   1     -10.878  -2.009  43.017  0.00  0.00    +0.000 A 
ATOM     24  C   UNL A   1     -10.678  -2.740  44.233  0.00  0.00    +0.001 A 
ATOM     25 CL   UNL A   1      -7.561  -4.976  43.289  0.00  0.00    -0.082 Cl
ENDBRANCH  15  19
ENDBRANCH   1  18
BRANCH   8  26
ATOM     26  C   UNL A   1     -17.098   4.349  36.830  0.00  0.00    +0.100 C 
ATOM     27  N   UNL A   1     -17.092   5.552  36.855  0.00  0.00    -0.191 NA
ENDBRANCH   8  26
TORSDOF 3
ENDMDL
ENDMDL
