MODEL 3767
MODEL 1
REMARK VINA RESULT:    -4.685      0.000      0.000
REMARK INTER + INTRA:          -5.796
REMARK INTER:                  -5.507
REMARK INTRA:                  -0.289
REMARK UNBOUND:                -0.289
REMARK  Name = No_3767-gen_results/8p0m/2024-11-26-14-13-15/
REMARK  3 active torsions:
REMARK  status: ('A' for Active; 'I' for Inactive)
REMARK    1  A    between atoms: C_2  and  C_7
REMARK    2  A    between atoms: C_7  and  N_8
REMARK    3  A    between atoms: N_8  and  C_9
REMARK                            x       y       z     vdW  Elec       q    Type
REMARK                         _______ _______ _______ _____ _____    ______ ____
ROOT
ATOM      1  C   UNL A   1     -23.830  -3.448  28.601  0.00  0.00    -0.003 A 
ATOM      2  C   UNL A   1     -24.476  -2.754  29.061  0.00  0.00    -0.001 A 
ATOM      3  C   UNL A   1     -24.220  -4.865  28.684  0.00  0.00    -0.000 A 
ATOM      4  C   UNL A   1     -25.480  -5.239  29.237  0.00  0.00    -0.000 A 
ATOM      5  C   UNL A   1     -25.843  -2.870  29.638  0.00  0.00    -0.003 A 
ATOM      6  C   UNL A   1     -26.235  -4.171  29.741  0.00  0.00    -0.000 A 
ENDROOT
BRANCH   2   7
ATOM      7  C   UNL A   1     -24.098  -1.207  28.976  0.00  0.00    +0.139 C 
BRANCH   7   8
ATOM      8  N   UNL A   1     -23.175  -0.849  29.756  0.00  0.00    -0.232 NA
BRANCH   8   9
ATOM      9  C   UNL A   1     -23.016  -0.435  30.700  0.00  0.00    +0.081 C 
ATOM     10  C   UNL A   1     -23.152  -1.090  32.016  0.00  0.00    +0.019 C 
ENDBRANCH   8   9
ENDBRANCH   7   8
ENDBRANCH   2   7
TORSDOF 3
ENDMDL
ENDMDL
