REMARK  Name = No_3768-gen_results/8p0m/2024-11-26-14-13-15/
REMARK  5 active torsions:
REMARK  status: ('A' for Active; 'I' for Inactive)
REMARK    1  A    between atoms: C_2  and  C_3
REMARK    2  A    between atoms: N_4  and  C_11
REMARK    3  A    between atoms: C_12  and  C_13
REMARK    4  A    between atoms: C_14  and  C_15
REMARK    5  A    between atoms: C_16  and  C_17
REMARK                            x       y       z     vdW  Elec       q    Type
REMARK                         _______ _______ _______ _____ _____    ______ ____
ROOT
ATOM      1  C   UNL A   1     -26.849   1.525  30.194  0.00  0.00    +0.068 C 
ATOM      2  C   UNL A   1     -27.073   2.471  30.583  0.00  0.00    +0.017 C 
ENDROOT
BRANCH   1   5
ATOM      3  O   UNL A   1     -28.123  -1.335  28.487  0.00  0.00    -0.270 OA
ATOM      4  C   UNL A   1     -27.481  -0.404  28.709  0.00  0.00    +0.253 C 
ATOM      5  N   UNL A   1     -27.666   0.447  29.899  0.00  0.00    -0.252 N 
ATOM      6  C   UNL A   1     -28.761   0.107  30.784  0.00  0.00    +0.120 C 
BRANCH   4   7
ATOM      7  C   UNL A   1     -26.380  -0.087  27.939  0.00  0.00    +0.054 A 
ATOM      8  C   UNL A   1     -25.177  -0.439  28.395  0.00  0.00    +0.004 A 
ATOM      9  C   UNL A   1     -26.526   0.604  26.687  0.00  0.00    +0.004 A 
ATOM     10  C   UNL A   1     -23.937   0.037  27.652  0.00  0.00    +0.000 A 
ATOM     11  C   UNL A   1     -25.382   0.970  25.943  0.00  0.00    +0.000 A 
ATOM     12  C   UNL A   1     -24.103   0.725  26.441  0.00  0.00    +0.000 A 
ENDBRANCH   4   7
ENDBRANCH   1   5
BRANCH   2  13
ATOM     13  C   UNL A   1     -26.044   3.498  30.794  0.00  0.00    +0.010 C 
ATOM     14  C   UNL A   1     -26.286   4.850  31.265  0.00  0.00    +0.050 C 
BRANCH  14  15
ATOM     15  C   UNL A   1     -25.323   5.847  31.240  0.00  0.00    -0.059 C 
ATOM     16  C   UNL A   1     -25.015   6.901  31.046  0.00  0.00    -0.060 C 
BRANCH  16  17
ATOM     17  C   UNL A   1     -24.557   7.888  30.688  0.00  0.00    +0.042 A 
ATOM     18  C   UNL A   1     -24.705   8.647  29.593  0.00  0.00    +0.008 A 
ATOM     19  C   UNL A   1     -23.973   9.881  29.258  0.00  0.00    +0.001 A 
ATOM     20  C   UNL A   1     -22.951  10.277  30.109  0.00  0.00    +0.000 A 
ATOM     21  C   UNL A   1     -23.355   8.531  31.460  0.00  0.00    +0.008 A 
ATOM     22  C   UNL A   1     -22.653   9.622  31.207  0.00  0.00    +0.001 A 
ENDBRANCH  16  17
ENDBRANCH  14  15
ENDBRANCH   2  13
TORSDOF 5
