MODEL 3768
MODEL 1
REMARK VINA RESULT:    -7.386      0.000      0.000
REMARK INTER + INTRA:         -10.071
REMARK INTER:                  -9.546
REMARK INTRA:                  -0.525
REMARK UNBOUND:                -0.525
REMARK  Name = No_3768-gen_results/8p0m/2024-11-26-14-13-15/
REMARK  5 active torsions:
REMARK  status: ('A' for Active; 'I' for Inactive)
REMARK    1  A    between atoms: C_2  and  C_3
REMARK    2  A    between atoms: N_4  and  C_11
REMARK    3  A    between atoms: C_12  and  C_13
REMARK    4  A    between atoms: C_14  and  C_15
REMARK    5  A    between atoms: C_16  and  C_17
REMARK                            x       y       z     vdW  Elec       q    Type
REMARK                         _______ _______ _______ _____ _____    ______ ____
ROOT
ATOM      1  C   UNL A   1     -24.892  -0.302  27.875  0.00  0.00    +0.068 C 
ATOM      2  C   UNL A   1     -24.690  -0.084  26.871  0.00  0.00    +0.017 C 
ENDROOT
BRANCH   1   5
ATOM      3  O   UNL A   1     -23.233  -1.057  30.939  0.00  0.00    -0.270 OA
ATOM      4  C   UNL A   1     -23.911  -1.183  30.016  0.00  0.00    +0.253 C 
ATOM      5  N   UNL A   1     -24.130  -0.122  29.016  0.00  0.00    -0.252 N 
ATOM      6  C   UNL A   1     -23.496   1.156  29.267  0.00  0.00    +0.120 C 
BRANCH   4   7
ATOM      7  C   UNL A   1     -24.471  -2.403  29.694  0.00  0.00    +0.054 A 
ATOM      8  C   UNL A   1     -25.718  -2.645  30.102  0.00  0.00    +0.004 A 
ATOM      9  C   UNL A   1     -23.732  -3.383  28.946  0.00  0.00    +0.004 A 
ATOM     10  C   UNL A   1     -26.303  -4.036  29.904  0.00  0.00    +0.000 A 
ATOM     11  C   UNL A   1     -24.303  -4.647  28.678  0.00  0.00    +0.000 A 
ATOM     12  C   UNL A   1     -25.557  -4.982  29.187  0.00  0.00    +0.000 A 
ENDBRANCH   4   7
ENDBRANCH   1   5
BRANCH   2  13
ATOM     13  C   UNL A   1     -25.666  -0.329  25.800  0.00  0.00    +0.010 C 
ATOM     14  C   UNL A   1     -26.290   0.693  24.978  0.00  0.00    +0.050 C 
BRANCH  14  15
ATOM     15  C   UNL A   1     -27.361   0.440  24.135  0.00  0.00    -0.059 C 
ATOM     16  C   UNL A   1     -28.456   0.325  23.956  0.00  0.00    -0.060 C 
BRANCH  16  17
ATOM     17  C   UNL A   1     -29.523  -0.010  23.713  0.00  0.00    +0.042 A 
ATOM     18  C   UNL A   1     -30.139  -1.199  23.644  0.00  0.00    +0.008 A 
ATOM     19  C   UNL A   1     -31.533  -1.458  23.244  0.00  0.00    +0.001 A 
ATOM     20  C   UNL A   1     -32.290  -0.382  22.801  0.00  0.00    +0.000 A 
ATOM     21  C   UNL A   1     -30.569   1.015  23.156  0.00  0.00    +0.008 A 
ATOM     22  C   UNL A   1     -31.822   0.844  22.772  0.00  0.00    +0.001 A 
ENDBRANCH  16  17
ENDBRANCH  14  15
ENDBRANCH   2  13
TORSDOF 5
ENDMDL
ENDMDL
