MODEL 3769
MODEL 1
REMARK VINA RESULT:    -6.359      0.000      0.000
REMARK INTER + INTRA:          -8.469
REMARK INTER:                  -7.846
REMARK INTRA:                  -0.622
REMARK UNBOUND:                -0.622
REMARK  Name = No_3769-gen_results/8p0m/2024-11-26-14-13-15/
REMARK  4 active torsions:
REMARK  status: ('A' for Active; 'I' for Inactive)
REMARK    1  A    between atoms: C_1  and  C_8
REMARK    2  A    between atoms: C_5  and  C_12
REMARK    3  A    between atoms: N_9  and  C_11
REMARK    4  A    between atoms: C_16  and  C_17
REMARK                            x       y       z     vdW  Elec       q    Type
REMARK                         _______ _______ _______ _____ _____    ______ ____
ROOT
ATOM      1  C   UNL A   1     -22.419   0.041  29.770  0.00  0.00    +0.052 C 
ATOM      2  C   UNL A   1     -23.280  -0.808  29.750  0.00  0.00    -0.025 C 
ATOM      3  C   UNL A   1     -24.418  -0.807  30.539  0.00  0.00    +0.099 C 
ATOM      4  C   UNL A   1     -25.420  -1.845  30.594  0.00  0.00    +0.030 C 
ATOM      5  C   UNL A   1     -25.259  -2.985  29.772  0.00  0.00    +0.082 C 
ATOM      6  C   UNL A   1     -24.114  -3.047  28.935  0.00  0.00    +0.014 C 
ATOM      7  C   UNL A   1     -23.210  -2.030  28.975  0.00  0.00    +0.024 C 
ATOM      8 CL   UNL A   1     -24.701   0.484  31.604  0.00  0.00    -0.111 Cl
ENDROOT
BRANCH   1   9
ATOM      9  C   UNL A   1     -22.262   0.811  28.477  0.00  0.00    +0.269 C 
ATOM     10  N   UNL A   1     -23.051   1.292  27.933  0.00  0.00    -0.174 NA
ATOM     11  O   UNL A   1     -21.023   0.599  27.922  0.00  0.00    -0.268 OA
BRANCH  10  12
ATOM     12  C   UNL A   1     -22.884   2.029  26.620  0.00  0.00    +0.084 C 
ATOM     13  C   UNL A   1     -23.780   1.743  25.763  0.00  0.00    -0.008 C 
BRANCH  13  14
ATOM     14  C   UNL A   1     -24.617   1.218  25.571  0.00  0.00    +0.027 C 
ATOM     15  C   UNL A   1     -25.115  -0.117  25.377  0.00  0.00    +0.005 C 
ENDBRANCH  13  14
ENDBRANCH  10  12
ENDBRANCH   1   9
BRANCH   5  16
ATOM     16  C   UNL A   1     -26.234  -4.061  29.718  0.00  0.00    +0.260 C 
ATOM     17  N   UNL A   1     -27.542  -3.801  30.002  0.00  0.00    -0.088 NA
ATOM     18  O   UNL A   1     -25.932  -5.281  29.786  0.00  0.00    -0.272 OA
ENDBRANCH   5  16
TORSDOF 4
ENDMDL
ENDMDL
