REMARK  Name = No_3769-gen_results/8p0m/2024-11-26-14-13-15/
REMARK  4 active torsions:
REMARK  status: ('A' for Active; 'I' for Inactive)
REMARK    1  A    between atoms: C_1  and  C_8
REMARK    2  A    between atoms: C_5  and  C_12
REMARK    3  A    between atoms: N_9  and  C_11
REMARK    4  A    between atoms: C_16  and  C_17
REMARK                            x       y       z     vdW  Elec       q    Type
REMARK                         _______ _______ _______ _____ _____    ______ ____
ROOT
ATOM      1  C   UNL A   1     -28.016  -0.814  28.878  0.00  0.00    +0.052 C 
ATOM      2  C   UNL A   1     -27.064  -0.119  28.608  0.00  0.00    -0.025 C 
ATOM      3  C   UNL A   1     -26.972   0.714  27.506  0.00  0.00    +0.099 C 
ATOM      4  C   UNL A   1     -25.820   1.491  27.116  0.00  0.00    +0.030 C 
ATOM      5  C   UNL A   1     -24.656   1.424  27.918  0.00  0.00    +0.082 C 
ATOM      6  C   UNL A   1     -24.685   0.590  29.066  0.00  0.00    +0.014 C 
ATOM      7  C   UNL A   1     -25.810  -0.127  29.334  0.00  0.00    +0.024 C 
ATOM      8 CL   UNL A   1     -28.287   0.844  26.440  0.00  0.00    -0.111 Cl
ENDROOT
BRANCH   1   9
ATOM      9  C   UNL A   1     -28.709  -0.459  30.175  0.00  0.00    +0.269 C 
ATOM     10  N   UNL A   1     -28.616   0.469  30.703  0.00  0.00    -0.174 NA
ATOM     11  O   UNL A   1     -29.270  -1.571  30.756  0.00  0.00    -0.268 OA
BRANCH  10  12
ATOM     12  C   UNL A   1     -29.288   0.796  32.021  0.00  0.00    +0.084 C 
ATOM     13  C   UNL A   1     -29.363   2.045  32.254  0.00  0.00    -0.008 C 
BRANCH  13  14
ATOM     14  C   UNL A   1     -29.171   2.972  31.913  0.00  0.00    +0.027 C 
ATOM     15  C   UNL A   1     -29.284   4.365  32.249  0.00  0.00    +0.005 C 
ENDBRANCH  13  14
ENDBRANCH  10  12
ENDBRANCH   1   9
BRANCH   5  16
ATOM     16  C   UNL A   1     -23.462   2.204  27.639  0.00  0.00    +0.260 C 
ATOM     17  N   UNL A   1     -22.916   2.178  26.390  0.00  0.00    -0.088 NA
ATOM     18  O   UNL A   1     -22.675   2.618  28.529  0.00  0.00    -0.272 OA
ENDBRANCH   5  16
TORSDOF 4
