MODEL 376
MODEL 1
REMARK VINA RESULT:    -6.798      0.000      0.000
REMARK INTER + INTRA:          -9.021
REMARK INTER:                  -8.388
REMARK INTRA:                  -0.633
REMARK UNBOUND:                -0.633
REMARK  Name = No_376-gen_results/8p0m/2024-11-26-14-13-15/
REMARK  4 active torsions:
REMARK  status: ('A' for Active; 'I' for Inactive)
REMARK    1  A    between atoms: C_2  and  C_7
REMARK    2  A    between atoms: C_7  and  N_8
REMARK    3  A    between atoms: C_7  and  C_9
REMARK    4  A    between atoms: C_9  and  C_10
REMARK                            x       y       z     vdW  Elec       q    Type
REMARK                         _______ _______ _______ _____ _____    ______ ____
ROOT
ATOM      1  C   UNL A   1     -24.839  -1.362  29.664  0.00  0.00    +0.099 C 
ENDROOT
BRANCH   1   3
ATOM      2  C   UNL A   1     -23.885  -3.318  28.754  0.00  0.00    -0.003 A 
ATOM      3  C   UNL A   1     -24.685  -2.942  29.328  0.00  0.00    -0.006 A 
ATOM      4  C   UNL A   1     -23.928  -4.804  28.475  0.00  0.00    -0.000 A 
ATOM      5  C   UNL A   1     -25.065  -5.547  28.859  0.00  0.00    -0.000 A 
ATOM      6  C   UNL A   1     -25.978  -3.478  29.811  0.00  0.00    -0.003 A 
ATOM      7  C   UNL A   1     -26.056  -4.842  29.567  0.00  0.00    -0.000 A 
ENDBRANCH   1   3
BRANCH   1   8
ATOM      8  N   UNL A   1     -25.191  -0.942  30.697  0.00  0.00    -0.213 NA
ATOM      9  C   UNL A   1     -24.534  -0.875  31.826  0.00  0.00    +0.108 C 
ENDBRANCH   1   8
BRANCH   1  10
ATOM     10  C   UNL A   1     -24.806  -0.487  28.480  0.00  0.00    +0.048 C 
BRANCH  10  11
ATOM     11  C   UNL A   1     -23.801   0.197  28.107  0.00  0.00    -0.020 A 
ATOM     12  C   UNL A   1     -23.912   1.149  27.040  0.00  0.00    -0.004 A 
ATOM     13  C   UNL A   1     -22.836   1.945  26.574  0.00  0.00    -0.000 A 
ATOM     14  C   UNL A   1     -21.567   1.728  27.179  0.00  0.00    -0.000 A 
ATOM     15  C   UNL A   1     -21.407   0.763  28.193  0.00  0.00    -0.000 A 
ATOM     16  C   UNL A   1     -22.482   0.035  28.620  0.00  0.00    -0.004 A 
ENDBRANCH  10  11
ENDBRANCH   1  10
TORSDOF 4
ENDMDL
ENDMDL
