REMARK  Name = No_377-gen_results/8p0m/2024-11-26-14-13-15/
REMARK  7 active torsions:
REMARK  status: ('A' for Active; 'I' for Inactive)
REMARK    1  A    between atoms: C_2  and  C_7
REMARK    2  A    between atoms: C_7  and  N_9
REMARK    3  A    between atoms: N_9  and  C_10
REMARK    4  A    between atoms: N_9  and  C_23
REMARK    5  A    between atoms: C_10  and  C_11
REMARK    6  A    between atoms: C_15  and  C_17
REMARK    7  A    between atoms: C_18  and  C_30
REMARK                            x       y       z     vdW  Elec       q    Type
REMARK                         _______ _______ _______ _____ _____    ______ ____
ROOT
ATOM      1  N   UNL A   1     -30.449   0.368  28.971  0.00  0.00    -0.276 N 
ENDROOT
BRANCH   1   2
ATOM      2  C   UNL A   1     -31.916   0.493  28.767  0.00  0.00    +0.050 A 
ATOM      3  C   UNL A   1     -32.678   1.247  29.581  0.00  0.00    +0.015 A 
ATOM      4  C   UNL A   1     -33.873   1.423  29.527  0.00  0.00    +0.001 A 
ATOM      5  C   UNL A   1     -34.577   0.741  28.519  0.00  0.00    +0.000 A 
ATOM      6  C   UNL A   1     -32.536  -0.243  27.743  0.00  0.00    +0.015 A 
ATOM      7  C   UNL A   1     -33.556  -0.072  27.588  0.00  0.00    +0.001 A 
ENDBRANCH   1   2
BRANCH   1   8
ATOM      8  C   UNL A   1     -30.028  -0.659  29.697  0.00  0.00    +0.252 C 
ATOM      9  O   UNL A   1     -30.776  -1.416  30.189  0.00  0.00    -0.196 OA
BRANCH   8  11
ATOM     10  C   UNL A   1     -28.016  -0.814  28.878  0.00  0.00    +0.011 A 
ATOM     11  C   UNL A   1     -28.469  -0.785  29.829  0.00  0.00    +0.028 A 
ATOM     12  C   UNL A   1     -26.546  -0.876  28.850  0.00  0.00    +0.058 A 
ATOM     13  C   UNL A   1     -25.804  -1.032  30.057  0.00  0.00    +0.011 A 
ATOM     14  C   UNL A   1     -27.944  -0.987  31.207  0.00  0.00    -0.000 A 
ATOM     15  C   UNL A   1     -26.582  -1.039  31.223  0.00  0.00    +0.001 A 
ATOM     16 CL   UNL A   1     -25.595  -0.757  27.423  0.00  0.00    -0.082 Cl
ENDBRANCH   8  11
ENDBRANCH   1   8
BRANCH   1  17
ATOM     17  C   UNL A   1     -29.695   1.401  28.383  0.00  0.00    +0.120 C 
BRANCH  17  18
ATOM     18  C   UNL A   1     -29.318   2.331  29.209  0.00  0.00    -0.002 A 
ATOM     19  C   UNL A   1     -29.105   3.336  29.070  0.00  0.00    -0.003 A 
ATOM     20  C   UNL A   1     -28.691   4.396  30.088  0.00  0.00    -0.000 A 
ATOM     21  C   UNL A   1     -28.374   3.935  31.355  0.00  0.00    +0.000 A 
ATOM     22  C   UNL A   1     -28.558   2.575  31.609  0.00  0.00    +0.000 A 
ATOM     23  C   UNL A   1     -28.940   1.762  30.628  0.00  0.00    -0.003 A 
BRANCH  22  24
ATOM     24  C   UNL A   1     -28.219   2.143  33.009  0.00  0.00    +0.008 A 
ATOM     25  C   UNL A   1     -26.943   2.128  33.405  0.00  0.00    +0.043 A 
ATOM     26  C   UNL A   1     -29.280   1.551  33.754  0.00  0.00    +0.001 A 
ATOM     27  C   UNL A   1     -28.968   0.703  34.790  0.00  0.00    +0.000 A 
ATOM     28  C   UNL A   1     -26.614   1.431  34.604  0.00  0.00    +0.008 A 
ATOM     29  C   UNL A   1     -27.597   0.746  35.312  0.00  0.00    +0.001 A 
BRANCH  25  30
ATOM     30  C   UNL A   1     -25.864   2.796  32.682  0.00  0.00    -0.051 C 
ATOM     31  C   UNL A   1     -25.440   4.100  32.978  0.00  0.00    -0.009 C 
ENDBRANCH  25  30
ENDBRANCH  22  24
ENDBRANCH  17  18
ENDBRANCH   1  17
TORSDOF 7
