REMARK  Name = No_3770-gen_results/8p0m/2024-11-26-14-13-15/
REMARK  0 active torsions:
REMARK  status: ('A' for Active; 'I' for Inactive)
REMARK                            x       y       z     vdW  Elec       q    Type
REMARK                         _______ _______ _______ _____ _____    ______ ____
ROOT
ATOM      1  C   UNL A   1     -28.016  -0.814  28.878  0.00  0.00    +0.099 A 
ATOM      2  C   UNL A   1     -27.064  -0.119  28.608  0.00  0.00    +0.019 A 
ATOM      3  C   UNL A   1     -25.792  -0.430  29.076  0.00  0.00    +0.003 A 
ATOM      4  C   UNL A   1     -24.546   0.349  28.823  0.00  0.00    +0.000 A 
ATOM      5  C   UNL A   1     -24.659   1.420  27.888  0.00  0.00    +0.000 A 
ATOM      6  C   UNL A   1     -25.947   1.681  27.379  0.00  0.00    +0.000 A 
ATOM      7  C   UNL A   1     -27.044   0.974  27.687  0.00  0.00    +0.002 A 
ATOM      8  N   UNL A   1     -27.952  -1.752  29.938  0.00  0.00    -0.242 NA
ATOM      9  C   UNL A   1     -26.716  -2.198  30.372  0.00  0.00    +0.099 A 
ATOM     10  C   UNL A   1     -25.570  -1.497  30.039  0.00  0.00    +0.021 A 
ENDROOT
TORSDOF 0
