MODEL 3770
MODEL 1
REMARK VINA RESULT:    -5.217      0.000      0.000
REMARK INTER + INTRA:          -5.217
REMARK INTER:                  -5.217
REMARK INTRA:                   0.000
REMARK UNBOUND:                 0.000
REMARK  Name = No_3770-gen_results/8p0m/2024-11-26-14-13-15/
REMARK  0 active torsions:
REMARK  status: ('A' for Active; 'I' for Inactive)
REMARK                            x       y       z     vdW  Elec       q    Type
REMARK                         _______ _______ _______ _____ _____    ______ ____
ROOT
ATOM      1  C   UNL A   1     -25.721  -1.321  30.221  0.00  0.00    +0.099 A 
ATOM      2  C   UNL A   1     -25.551  -2.453  29.831  0.00  0.00    +0.019 A 
ATOM      3  C   UNL A   1     -24.336  -2.848  29.282  0.00  0.00    +0.003 A 
ATOM      4  C   UNL A   1     -24.006  -4.204  28.758  0.00  0.00    +0.000 A 
ATOM      5  C   UNL A   1     -24.983  -5.217  28.990  0.00  0.00    +0.000 A 
ATOM      6  C   UNL A   1     -26.184  -4.807  29.602  0.00  0.00    +0.000 A 
ATOM      7  C   UNL A   1     -26.444  -3.555  30.005  0.00  0.00    +0.002 A 
ATOM      8  N   UNL A   1     -24.844  -0.279  29.831  0.00  0.00    -0.242 NA
ATOM      9  C   UNL A   1     -23.571  -0.598  29.389  0.00  0.00    +0.099 A 
ATOM     10  C   UNL A   1     -23.277  -1.892  28.997  0.00  0.00    +0.021 A 
ENDROOT
TORSDOF 0
ENDMDL
ENDMDL
