MODEL 3771
MODEL 1
REMARK VINA RESULT:    -4.297      0.000      0.000
REMARK INTER + INTRA:          -4.297
REMARK INTER:                  -4.297
REMARK INTRA:                   0.000
REMARK UNBOUND:                 0.000
REMARK  Name = No_3771-gen_results/8p0m/2024-11-26-14-13-15/
REMARK  0 active torsions:
REMARK  status: ('A' for Active; 'I' for Inactive)
REMARK                            x       y       z     vdW  Elec       q    Type
REMARK                         _______ _______ _______ _____ _____    ______ ____
ROOT
ATOM      1  C   UNL A   1     -24.934  -5.383  28.986  0.00  0.00    +0.000 A 
ATOM      2  C   UNL A   1     -24.179  -4.685  28.753  0.00  0.00    +0.000 A 
ATOM      3  C   UNL A   1     -26.112  -4.783  29.613  0.00  0.00    +0.000 A 
ATOM      4  C   UNL A   1     -26.208  -3.434  29.846  0.00  0.00    +0.000 A 
ATOM      5  C   UNL A   1     -24.010  -3.237  28.875  0.00  0.00    +0.000 A 
ATOM      6  C   UNL A   1     -25.145  -2.648  29.481  0.00  0.00    +0.000 A 
ENDROOT
TORSDOF 0
ENDMDL
ENDMDL
