REMARK  Name = No_3772-gen_results/8p0m/2024-11-26-14-13-15/
REMARK  3 active torsions:
REMARK  status: ('A' for Active; 'I' for Inactive)
REMARK    1  A    between atoms: C_2  and  C_10
REMARK    2  A    between atoms: C_5  and  C_7
REMARK    3  A    between atoms: N_11  and  C_13
REMARK                            x       y       z     vdW  Elec       q    Type
REMARK                         _______ _______ _______ _____ _____    ______ ____
ROOT
ATOM      1  C   UNL A   1     -28.016  -0.814  28.878  0.00  0.00    +0.005 A 
ATOM      2  C   UNL A   1     -27.064  -0.119  28.608  0.00  0.00    +0.055 A 
ATOM      3  C   UNL A   1     -26.972   0.714  27.506  0.00  0.00    +0.005 A 
ATOM      4  C   UNL A   1     -28.105   0.774  26.642  0.00  0.00    +0.005 A 
ATOM      5  C   UNL A   1     -29.201   0.104  27.053  0.00  0.00    +0.057 A 
ATOM      6  C   UNL A   1     -29.210  -0.603  28.185  0.00  0.00    +0.005 A 
ENDROOT
BRANCH   5   7
ATOM      7  C   UNL A   1     -30.370   0.226  26.160  0.00  0.00    +0.284 C 
ATOM      8  N   UNL A   1     -30.299   0.234  24.938  0.00  0.00    -0.084 NA
ATOM      9  O   UNL A   1     -31.533   0.100  26.707  0.00  0.00    -0.267 OA
ENDBRANCH   5   7
BRANCH   2  10
ATOM     10  C   UNL A   1     -25.701  -0.222  29.426  0.00  0.00    +0.265 C 
ATOM     11  N   UNL A   1     -25.458  -0.862  30.263  0.00  0.00    -0.203 NA
ATOM     12  O   UNL A   1     -24.721   0.647  29.060  0.00  0.00    -0.268 OA
BRANCH  11  13
ATOM     13  C   UNL A   1     -24.203  -0.998  31.041  0.00  0.00    +0.096 C 
ATOM     14  C   UNL A   1     -24.113  -0.418  32.241  0.00  0.00    +0.023 C 
ATOM     15  C   UNL A   1     -23.104  -0.351  30.129  0.00  0.00    +0.023 C 
ENDBRANCH  11  13
ENDBRANCH   2  10
TORSDOF 3
