MODEL 3773
MODEL 1
REMARK VINA RESULT:    -5.414      0.000      0.000
REMARK INTER + INTRA:          -6.322
REMARK INTER:                  -6.046
REMARK INTRA:                  -0.275
REMARK UNBOUND:                -0.275
REMARK  Name = No_3773-gen_results/8p0m/2024-11-26-14-13-15/
REMARK  2 active torsions:
REMARK  status: ('A' for Active; 'I' for Inactive)
REMARK    1  A    between atoms: C_3  and  C_7
REMARK    2  A    between atoms: C_8  and  C_9
REMARK                            x       y       z     vdW  Elec       q    Type
REMARK                         _______ _______ _______ _____ _____    ______ ____
ROOT
ATOM      1  C   UNL A   1     -23.871  -3.706  28.585  0.00  0.00    -0.000 A 
ATOM      2  C   UNL A   1     -24.282  -4.672  28.682  0.00  0.00    +0.000 A 
ATOM      3  C   UNL A   1     -24.612  -2.619  29.098  0.00  0.00    -0.000 A 
ATOM      4  C   UNL A   1     -25.843  -2.794  29.700  0.00  0.00    -0.000 A 
ATOM      5  C   UNL A   1     -25.554  -5.128  29.276  0.00  0.00    +0.000 A 
ATOM      6  C   UNL A   1     -26.297  -4.117  29.779  0.00  0.00    +0.000 A 
ENDROOT
BRANCH   3   7
ATOM      7  C   UNL A   1     -24.124  -1.200  29.056  0.00  0.00    -0.000 C 
ATOM      8  C   UNL A   1     -24.450  -0.422  28.185  0.00  0.00    -0.000 C 
BRANCH   8   9
ATOM      9  C   UNL A   1     -25.367  -0.790  27.152  0.00  0.00    -0.005 C 
ATOM     10  C   UNL A   1     -25.352   0.027  25.934  0.00  0.00    -0.026 C 
ATOM     11  C   UNL A   1     -24.360   0.990  25.831  0.00  0.00    +0.031 C 
ENDBRANCH   8   9
ENDBRANCH   3   7
TORSDOF 2
ENDMDL
ENDMDL
