MODEL 3774
MODEL 1
REMARK VINA RESULT:    -5.709      0.000      0.000
REMARK INTER + INTRA:          -5.786
REMARK INTER:                  -6.376
REMARK INTRA:                   0.591
REMARK UNBOUND:                 0.591
REMARK  Name = No_3774-gen_results/8p0m/2024-11-26-14-13-15/
REMARK  2 active torsions:
REMARK  status: ('A' for Active; 'I' for Inactive)
REMARK    1  A    between atoms: C_4  and  C_5
REMARK    2  A    between atoms: C_5  and  C_8
REMARK                            x       y       z     vdW  Elec       q    Type
REMARK                         _______ _______ _______ _____ _____    ______ ____
ROOT
ATOM      1  C   UNL A   1     -24.271  -5.074  28.772  0.00  0.00    -0.000 A 
ATOM      2  C   UNL A   1     -25.249  -5.286  29.100  0.00  0.00    -0.000 A 
ATOM      3  C   UNL A   1     -23.903  -3.652  28.671  0.00  0.00    -0.004 A 
ATOM      4  C   UNL A   1     -24.793  -2.639  29.133  0.00  0.00    -0.019 A 
ATOM      5  C   UNL A   1     -26.333  -4.485  29.706  0.00  0.00    -0.000 A 
ATOM      6  C   UNL A   1     -26.023  -3.084  29.700  0.00  0.00    -0.004 A 
ENDROOT
BRANCH   4   7
ATOM      7  C   UNL A   1     -24.470  -1.242  29.055  0.00  0.00    +0.037 C 
ATOM      8  C   UNL A   1     -23.141  -0.766  28.878  0.00  0.00    +0.009 C 
ATOM      9  C   UNL A   1     -25.168  -0.778  27.604  0.00  0.00    +0.009 C 
BRANCH   7  10
ATOM     10  C   UNL A   1     -25.057  -0.452  30.086  0.00  0.00    -0.027 C 
ATOM     11  C   UNL A   1     -24.445  -0.376  31.364  0.00  0.00    -0.030 C 
ATOM     12  C   UNL A   1     -23.386  -1.321  31.605  0.00  0.00    +0.030 C 
ENDBRANCH   7  10
ENDBRANCH   4   7
TORSDOF 2
ENDMDL
ENDMDL
