REMARK  Name = No_3774-gen_results/8p0m/2024-11-26-14-13-15/
REMARK  2 active torsions:
REMARK  status: ('A' for Active; 'I' for Inactive)
REMARK    1  A    between atoms: C_4  and  C_5
REMARK    2  A    between atoms: C_5  and  C_8
REMARK                            x       y       z     vdW  Elec       q    Type
REMARK                         _______ _______ _______ _____ _____    ______ ____
ROOT
ATOM      1  C   UNL A   1     -28.016  -0.814  28.878  0.00  0.00    -0.000 A 
ATOM      2  C   UNL A   1     -28.469  -0.785  29.829  0.00  0.00    -0.000 A 
ATOM      3  C   UNL A   1     -26.546  -0.876  28.850  0.00  0.00    -0.004 A 
ATOM      4  C   UNL A   1     -25.804  -1.032  30.057  0.00  0.00    -0.019 A 
ATOM      5  C   UNL A   1     -27.990  -1.005  31.209  0.00  0.00    -0.000 A 
ATOM      6  C   UNL A   1     -26.562  -1.137  31.260  0.00  0.00    -0.004 A 
ENDROOT
BRANCH   4   7
ATOM      7  C   UNL A   1     -24.370  -1.100  30.072  0.00  0.00    +0.037 C 
ATOM      8  C   UNL A   1     -23.645  -1.894  31.004  0.00  0.00    +0.009 C 
ATOM      9  C   UNL A   1     -24.018  -1.896  28.639  0.00  0.00    +0.009 C 
BRANCH   7  10
ATOM     10  C   UNL A   1     -23.727   0.171  30.026  0.00  0.00    -0.027 C 
ATOM     11  C   UNL A   1     -22.455   0.306  29.412  0.00  0.00    -0.030 C 
ATOM     12  C   UNL A   1     -21.783  -0.926  29.091  0.00  0.00    +0.030 C 
ENDBRANCH   7  10
ENDBRANCH   4   7
TORSDOF 2
