REMARK  Name = No_3775-gen_results/8p0m/2024-11-26-14-13-15/
REMARK  1 active torsions:
REMARK  status: ('A' for Active; 'I' for Inactive)
REMARK    1  A    between atoms: C_3  and  C_7
REMARK                            x       y       z     vdW  Elec       q    Type
REMARK                         _______ _______ _______ _____ _____    ______ ____
ROOT
ATOM      1  C   UNL A   1     -28.016  -0.814  28.878  0.00  0.00    +0.015 A 
ATOM      2  C   UNL A   1     -28.469  -0.785  29.829  0.00  0.00    +0.058 A 
ATOM      3  C   UNL A   1     -27.087   0.290  28.638  0.00  0.00    +0.072 A 
ATOM      4  C   UNL A   1     -26.832   1.249  29.587  0.00  0.00    +0.004 A 
ATOM      5  C   UNL A   1     -28.391   0.080  31.006  0.00  0.00    +0.011 A 
ATOM      6  C   UNL A   1     -27.494   1.152  30.784  0.00  0.00    +0.001 A 
ATOM      7 CL   UNL A   1     -29.631  -2.144  30.347  0.00  0.00    -0.082 Cl
ENDROOT
BRANCH   3   8
ATOM      8  C   UNL A   1     -26.317   0.399  27.365  0.00  0.00    +0.419 C 
ATOM      9  F   UNL A   1     -25.456  -0.360  27.315  0.00  0.00    -0.166 F 
ATOM     10  F   UNL A   1     -25.740   1.664  27.227  0.00  0.00    -0.166 F 
ATOM     11  F   UNL A   1     -27.186   0.313  26.275  0.00  0.00    -0.166 F 
ENDBRANCH   3   8
TORSDOF 1
