MODEL 3775
MODEL 1
REMARK VINA RESULT:    -5.285      0.000      0.000
REMARK INTER + INTRA:          -5.727
REMARK INTER:                  -5.593
REMARK INTRA:                  -0.133
REMARK UNBOUND:                -0.133
REMARK  Name = No_3775-gen_results/8p0m/2024-11-26-14-13-15/
REMARK  1 active torsions:
REMARK  status: ('A' for Active; 'I' for Inactive)
REMARK    1  A    between atoms: C_3  and  C_7
REMARK                            x       y       z     vdW  Elec       q    Type
REMARK                         _______ _______ _______ _____ _____    ______ ____
ROOT
ATOM      1  C   UNL A   1     -25.950  -2.929  29.659  0.00  0.00    +0.015 A 
ATOM      2  C   UNL A   1     -26.199  -3.951  29.719  0.00  0.00    +0.058 A 
ATOM      3  C   UNL A   1     -24.643  -2.679  29.052  0.00  0.00    +0.072 A 
ATOM      4  C   UNL A   1     -23.844  -3.698  28.595  0.00  0.00    +0.004 A 
ATOM      5  C   UNL A   1     -25.571  -5.212  29.325  0.00  0.00    +0.011 A 
ATOM      6  C   UNL A   1     -24.305  -4.982  28.737  0.00  0.00    +0.001 A 
ATOM      7 CL   UNL A   1     -27.853  -4.466  30.399  0.00  0.00    -0.082 Cl
ENDROOT
BRANCH   3   8
ATOM      8  C   UNL A   1     -24.132  -1.294  28.842  0.00  0.00    +0.419 C 
ATOM      9  F   UNL A   1     -24.490  -0.849  27.845  0.00  0.00    -0.166 F 
ATOM     10  F   UNL A   1     -22.735  -1.267  28.810  0.00  0.00    -0.166 F 
ATOM     11  F   UNL A   1     -24.451  -0.497  29.943  0.00  0.00    -0.166 F 
ENDBRANCH   3   8
TORSDOF 1
ENDMDL
ENDMDL
