MODEL 3776
MODEL 1
REMARK VINA RESULT:    -3.476      0.000      0.000
REMARK INTER + INTRA:          -3.476
REMARK INTER:                  -3.476
REMARK INTRA:                   0.000
REMARK UNBOUND:                 0.000
REMARK  Name = No_3776-gen_results/8p0m/2024-11-26-14-13-15/
REMARK  0 active torsions:
REMARK  status: ('A' for Active; 'I' for Inactive)
REMARK                            x       y       z     vdW  Elec       q    Type
REMARK                         _______ _______ _______ _____ _____    ______ ____
ROOT
ATOM      1  F   UNL A   1      -7.694 -10.439  19.630  0.00  0.00    -0.140 F 
ATOM      2  C   UNL A   1      -7.708  -9.775  20.483  0.00  0.00    +0.561 C 
ATOM      3  F   UNL A   1      -7.230 -10.247  21.490  0.00  0.00    -0.140 F 
ATOM      4  F   UNL A   1      -9.019  -9.461  20.701  0.00  0.00    -0.140 F 
ATOM      5  F   UNL A   1      -7.105  -8.628  20.124  0.00  0.00    -0.140 F 
ENDROOT
TORSDOF 0
ENDMDL
ENDMDL
