MODEL 3777
MODEL 1
REMARK VINA RESULT:    -6.937      0.000      0.000
REMARK INTER + INTRA:          -8.109
REMARK INTER:                  -7.748
REMARK INTRA:                  -0.361
REMARK UNBOUND:                -0.361
REMARK  Name = No_3777-gen_results/8p0m/2024-11-26-14-13-15/
REMARK  2 active torsions:
REMARK  status: ('A' for Active; 'I' for Inactive)
REMARK    1  A    between atoms: C_6  and  N_8
REMARK    2  A    between atoms: C_10  and  C_15
REMARK                            x       y       z     vdW  Elec       q    Type
REMARK                         _______ _______ _______ _____ _____    ______ ____
ROOT
ATOM      1  N   UNL A   1     -24.001  -1.402  28.611  0.00  0.00    -0.256 NA
ATOM      2  C   UNL A   1     -24.333  -0.521  27.787  0.00  0.00    +0.088 C 
ATOM      3  C   UNL A   1     -23.517   0.609  27.454  0.00  0.00    +0.152 C 
ATOM      4  C   UNL A   1     -22.692  -1.112  29.254  0.00  0.00    +0.076 C 
ATOM      5  C   UNL A   1     -21.897  -0.106  28.992  0.00  0.00    +0.053 C 
ATOM      6  C   UNL A   1     -22.353   0.793  28.045  0.00  0.00    +0.174 C 
ATOM      7  F   UNL A   1     -21.660   1.851  27.700  0.00  0.00    -0.237 F 
ENDROOT
BRANCH   1  13
ATOM      8  O   UNL A   1     -27.406  -3.577  30.435  0.00  0.00    -0.273 OA
ATOM      9  C   UNL A   1     -26.460  -3.570  29.787  0.00  0.00    +0.243 C 
ATOM     10  C   UNL A   1     -25.859  -4.806  29.542  0.00  0.00    +0.087 C 
ATOM     11  N   UNL A   1     -25.736  -2.477  29.553  0.00  0.00    -0.191 NA
ATOM     12  C   UNL A   1     -24.760  -5.062  29.030  0.00  0.00    +0.013 C 
ATOM     13  C   UNL A   1     -24.727  -2.532  28.907  0.00  0.00    +0.155 C 
ATOM     14  C   UNL A   1     -24.015  -3.754  28.601  0.00  0.00    +0.039 C 
ENDBRANCH   1  13
BRANCH   3  15
ATOM     15  C   UNL A   1     -24.129   1.466  26.469  0.00  0.00    +0.368 C 
ATOM     16  O   UNL A   1     -24.395   2.583  26.463  0.00  0.00    -0.245 OA
ATOM     17  O   UNL A   1     -24.387   0.862  25.316  0.00  0.00    -0.245 OA
ENDBRANCH   3  15
TORSDOF 2
ENDMDL
ENDMDL
