REMARK  Name = No_3777-gen_results/8p0m/2024-11-26-14-13-15/
REMARK  2 active torsions:
REMARK  status: ('A' for Active; 'I' for Inactive)
REMARK    1  A    between atoms: C_6  and  N_8
REMARK    2  A    between atoms: C_10  and  C_15
REMARK                            x       y       z     vdW  Elec       q    Type
REMARK                         _______ _______ _______ _____ _____    ______ ____
ROOT
ATOM      1  N   UNL A   1     -31.504   1.183  29.860  0.00  0.00    -0.256 NA
ATOM      2  C   UNL A   1     -32.366   0.893  29.001  0.00  0.00    +0.088 C 
ATOM      3  C   UNL A   1     -33.720   1.361  29.040  0.00  0.00    +0.152 C 
ATOM      4  C   UNL A   1     -32.058   2.015  30.961  0.00  0.00    +0.076 C 
ATOM      5  C   UNL A   1     -33.278   2.479  31.053  0.00  0.00    +0.053 C 
ATOM      6  C   UNL A   1     -34.140   2.118  30.034  0.00  0.00    +0.174 C 
ATOM      7  F   UNL A   1     -35.392   2.505  30.012  0.00  0.00    -0.237 F 
ENDROOT
BRANCH   1  13
ATOM      8  O   UNL A   1     -28.123  -1.335  28.487  0.00  0.00    -0.273 OA
ATOM      9  C   UNL A   1     -28.521  -0.436  29.078  0.00  0.00    +0.243 C 
ATOM     10  C   UNL A   1     -27.666   0.113  30.035  0.00  0.00    +0.087 C 
ATOM     11  N   UNL A   1     -29.811  -0.116  29.150  0.00  0.00    -0.191 NA
ATOM     12  C   UNL A   1     -27.899   0.958  30.911  0.00  0.00    +0.013 C 
ATOM     13  C   UNL A   1     -30.181   0.807  29.821  0.00  0.00    +0.155 C 
ATOM     14  C   UNL A   1     -29.385   1.445  30.847  0.00  0.00    +0.039 C 
ENDBRANCH   1  13
BRANCH   3  15
ATOM     15  C   UNL A   1     -34.503   0.890  27.924  0.00  0.00    +0.368 C 
ATOM     16  O   UNL A   1     -34.292   0.132  27.087  0.00  0.00    -0.245 OA
ATOM     17  O   UNL A   1     -35.733   1.384  27.882  0.00  0.00    -0.245 OA
ENDBRANCH   3  15
TORSDOF 2
