MODEL 3778
MODEL 1
REMARK VINA RESULT:    -5.515      0.000      0.000
REMARK INTER + INTRA:          -5.515
REMARK INTER:                  -5.515
REMARK INTRA:                   0.000
REMARK UNBOUND:                 0.000
REMARK  Name = No_3778-gen_results/8p0m/2024-11-26-14-13-15/
REMARK  0 active torsions:
REMARK  status: ('A' for Active; 'I' for Inactive)
REMARK                            x       y       z     vdW  Elec       q    Type
REMARK                         _______ _______ _______ _____ _____    ______ ____
ROOT
ATOM      1  C   UNL A   1     -24.977  -5.332  29.010  0.00  0.00    +0.002 A 
ATOM      2  C   UNL A   1     -25.989  -4.894  29.505  0.00  0.00    +0.000 A 
ATOM      3  C   UNL A   1     -26.177  -3.582  29.908  0.00  0.00    +0.002 A 
ATOM      4  C   UNL A   1     -25.097  -2.676  29.692  0.00  0.00    +0.018 A 
ATOM      5  C   UNL A   1     -24.044  -3.162  29.004  0.00  0.00    +0.081 A 
ATOM      6  C   UNL A   1     -24.002  -4.428  28.583  0.00  0.00    +0.019 A 
ATOM      7  N   UNL A   1     -23.107  -2.088  28.886  0.00  0.00    -0.244 NA
ATOM      8  C   UNL A   1     -23.014  -1.084  29.587  0.00  0.00    +0.099 A 
ATOM      9  C   UNL A   1     -24.203  -0.575  30.241  0.00  0.00    +0.021 A 
ATOM     10  C   UNL A   1     -25.277  -1.410  30.322  0.00  0.00    +0.003 A 
ENDROOT
TORSDOF 0
ENDMDL
ENDMDL
