MODEL 3779
MODEL 1
REMARK VINA RESULT:    -7.499      0.000      0.000
REMARK INTER + INTRA:         -11.777
REMARK INTER:                  -9.690
REMARK INTRA:                  -2.087
REMARK UNBOUND:                -2.087
REMARK  Name = No_3779-gen_results/8p0m/2024-11-26-14-13-15/
REMARK  5 active torsions:
REMARK  status: ('A' for Active; 'I' for Inactive)
REMARK    1  A    between atoms: C_1  and  C_2
REMARK    2  A    between atoms: C_7  and  O_23
REMARK    3  A    between atoms: C_10  and  C_14
REMARK    4  A    between atoms: O_23  and  C_24
REMARK    5  A    between atoms: C_24  and  C_25
REMARK                            x       y       z     vdW  Elec       q    Type
REMARK                         _______ _______ _______ _____ _____    ______ ____
ROOT
ATOM      1  C   UNL A   1     -29.204 -14.772   9.339  0.00  0.00    +0.089 A 
ATOM      2  C   UNL A   1     -28.395 -15.866   9.054  0.00  0.00    +0.005 A 
ATOM      3  C   UNL A   1     -27.551 -16.044   7.837  0.00  0.00    +0.002 A 
ATOM      4  C   UNL A   1     -27.720 -15.066   6.813  0.00  0.00    +0.056 A 
ATOM      5  C   UNL A   1     -28.591 -13.996   7.098  0.00  0.00    +0.041 A 
ATOM      6  C   UNL A   1     -29.285 -13.863   8.238  0.00  0.00    +0.143 A 
ATOM      7  C   UNL A   1     -26.938 -15.231   5.614  0.00  0.00    +0.271 C 
ATOM      8  N   UNL A   1     -26.241 -16.361   5.410  0.00  0.00    -0.140 NA
ATOM      9  O   UNL A   1     -26.828 -14.253   4.831  0.00  0.00    -0.268 OA
ATOM     10  C   UNL A   1     -26.180 -17.483   6.133  0.00  0.00    +0.263 C 
ATOM     11  C   UNL A   1     -26.900 -17.373   7.434  0.00  0.00    +0.158 C 
ATOM     12 BR   UNL A   1     -26.900 -18.749   8.612  0.00  0.00    -0.067 Br
ATOM     13  O   UNL A   1     -25.680 -18.525   5.705  0.00  0.00    -0.272 OA
ENDROOT
BRANCH   1  14
ATOM     14  C   UNL A   1     -29.845 -14.719  10.363  0.00  0.00    +0.275 C 
ATOM     15  N   UNL A   1     -29.430 -13.894  11.437  0.00  0.00    -0.134 NA
ATOM     16  O   UNL A   1     -30.907 -15.296  10.558  0.00  0.00    -0.268 OA
ATOM     17  C   UNL A   1     -30.142 -13.699  12.700  0.00  0.00    +0.344 C 
ATOM     18  O   UNL A   1     -29.827 -14.480  13.558  0.00  0.00    -0.264 OA
BRANCH  17  19
ATOM     19  C   UNL A   1     -30.707 -12.452  12.715  0.00  0.00    +0.472 C 
ATOM     20  F   UNL A   1     -30.807 -12.068  13.723  0.00  0.00    -0.162 F 
ATOM     21  F   UNL A   1     -31.859 -12.448  12.012  0.00  0.00    -0.162 F 
ATOM     22  F   UNL A   1     -29.813 -11.598  11.974  0.00  0.00    -0.162 F 
ENDBRANCH  17  19
ENDBRANCH   1  14
BRANCH   6  23
ATOM     23  O   UNL A   1     -30.016 -12.779   8.447  0.00  0.00    -0.470 OA
BRANCH  23  24
ATOM     24  C   UNL A   1     -29.374 -11.592   8.136  0.00  0.00    +0.232 C 
BRANCH  24  25
ATOM     25  C   UNL A   1     -29.903 -10.627   8.769  0.00  0.00    +0.021 A 
ATOM     26  C   UNL A   1     -31.319 -10.845   9.171  0.00  0.00    +0.000 A 
ATOM     27  C   UNL A   1     -32.107  -9.868   9.871  0.00  0.00    +0.011 A 
ATOM     28  C   UNL A   1     -31.441  -8.609  10.076  0.00  0.00    +0.058 A 
ATOM     29  C   UNL A   1     -30.165  -8.399   9.712  0.00  0.00    +0.010 A 
ATOM     30  C   UNL A   1     -29.517  -9.358   9.060  0.00  0.00    +0.000 A 
ATOM     31 CL   UNL A   1     -32.347  -7.421  10.953  0.00  0.00    -0.082 Cl
ATOM     32  C   UNL A   1     -29.412  -7.149   9.922  0.00  0.00    +0.001 A 
ATOM     33  C   UNL A   1     -28.277  -7.002   9.528  0.00  0.00    +0.000 A 
ATOM     34  C   UNL A   1     -27.552  -8.123   8.820  0.00  0.00    -0.000 A 
ATOM     35  C   UNL A   1     -28.150  -9.162   8.608  0.00  0.00    -0.000 A 
ENDBRANCH  24  25
ENDBRANCH  23  24
ENDBRANCH   6  23
TORSDOF 5
ENDMDL
ENDMDL
