REMARK  Name = No_3779-gen_results/8p0m/2024-11-26-14-13-15/
REMARK  5 active torsions:
REMARK  status: ('A' for Active; 'I' for Inactive)
REMARK    1  A    between atoms: C_1  and  C_2
REMARK    2  A    between atoms: C_7  and  O_23
REMARK    3  A    between atoms: C_10  and  C_14
REMARK    4  A    between atoms: O_23  and  C_24
REMARK    5  A    between atoms: C_24  and  C_25
REMARK                            x       y       z     vdW  Elec       q    Type
REMARK                         _______ _______ _______ _____ _____    ______ ____
ROOT
ATOM      1  C   UNL A   1     -27.064  -0.119  28.608  0.00  0.00    +0.089 A 
ATOM      2  C   UNL A   1     -25.792  -0.430  29.076  0.00  0.00    +0.005 A 
ATOM      3  C   UNL A   1     -24.546   0.349  28.823  0.00  0.00    +0.002 A 
ATOM      4  C   UNL A   1     -24.659   1.420  27.888  0.00  0.00    +0.056 A 
ATOM      5  C   UNL A   1     -25.947   1.681  27.379  0.00  0.00    +0.041 A 
ATOM      6  C   UNL A   1     -27.044   0.974  27.687  0.00  0.00    +0.143 A 
ATOM      7  C   UNL A   1     -23.463   2.170  27.603  0.00  0.00    +0.271 C 
ATOM      8  N   UNL A   1     -22.272   1.743  28.054  0.00  0.00    -0.140 NA
ATOM      9  O   UNL A   1     -23.576   3.286  27.034  0.00  0.00    -0.268 OA
ATOM     10  C   UNL A   1     -21.945   0.628  28.713  0.00  0.00    +0.263 C 
ATOM     11  C   UNL A   1     -23.135  -0.174  29.119  0.00  0.00    +0.158 C 
ATOM     12 BR   UNL A   1     -22.941  -1.696  30.082  0.00  0.00    -0.067 Br
ATOM     13  O   UNL A   1     -20.779   0.257  28.859  0.00  0.00    -0.272 OA
ENDROOT
BRANCH   1  14
ATOM     14  C   UNL A   1     -28.016  -0.814  28.878  0.00  0.00    +0.275 C 
ATOM     15  N   UNL A   1     -27.952  -1.752  29.938  0.00  0.00    -0.134 NA
ATOM     16  O   UNL A   1     -29.111  -0.749  28.335  0.00  0.00    -0.268 OA
ATOM     17  C   UNL A   1     -29.045  -2.607  30.400  0.00  0.00    +0.344 C 
ATOM     18  O   UNL A   1     -29.092  -3.673  29.845  0.00  0.00    -0.264 OA
BRANCH  17  19
ATOM     19  C   UNL A   1     -29.508  -2.144  31.602  0.00  0.00    +0.472 C 
ATOM     20  F   UNL A   1     -30.453  -1.625  31.497  0.00  0.00    -0.162 F 
ATOM     21  F   UNL A   1     -28.555  -1.423  32.228  0.00  0.00    -0.162 F 
ATOM     22  F   UNL A   1     -29.702  -3.307  32.431  0.00  0.00    -0.162 F 
ENDBRANCH  17  19
ENDBRANCH   1  14
BRANCH   6  23
ATOM     23  O   UNL A   1     -28.226   1.347  27.220  0.00  0.00    -0.470 OA
BRANCH  23  24
ATOM     24  C   UNL A   1     -28.559   2.662  27.502  0.00  0.00    +0.232 C 
BRANCH  24  25
ATOM     25  C   UNL A   1     -29.747   2.904  27.128  0.00  0.00    +0.021 A 
ATOM     26  C   UNL A   1     -30.208   4.298  27.372  0.00  0.00    +0.000 A 
ATOM     27  C   UNL A   1     -31.526   4.769  27.047  0.00  0.00    +0.011 A 
ATOM     28  C   UNL A   1     -32.410   3.750  26.544  0.00  0.00    +0.058 A 
ATOM     29  C   UNL A   1     -32.007   2.487  26.325  0.00  0.00    +0.010 A 
ATOM     30  C   UNL A   1     -30.771   2.140  26.666  0.00  0.00    +0.000 A 
ATOM     31 CL   UNL A   1     -33.996   4.291  26.103  0.00  0.00    -0.082 Cl
ATOM     32  C   UNL A   1     -32.847   1.405  25.781  0.00  0.00    +0.001 A 
ATOM     33  C   UNL A   1     -32.441   0.272  25.651  0.00  0.00    +0.000 A 
ATOM     34  C   UNL A   1     -31.019  -0.087  26.015  0.00  0.00    -0.000 A 
ATOM     35  C   UNL A   1     -30.303   0.776  26.489  0.00  0.00    -0.000 A 
ENDBRANCH  24  25
ENDBRANCH  23  24
ENDBRANCH   6  23
TORSDOF 5
