MODEL 377
MODEL 1
REMARK VINA RESULT:    -8.832      0.000      0.000
REMARK INTER + INTRA:         -13.705
REMARK INTER:                 -12.447
REMARK INTRA:                  -1.258
REMARK UNBOUND:                -1.258
REMARK  Name = No_377-gen_results/8p0m/2024-11-26-14-13-15/
REMARK  7 active torsions:
REMARK  status: ('A' for Active; 'I' for Inactive)
REMARK    1  A    between atoms: C_2  and  C_7
REMARK    2  A    between atoms: C_7  and  N_9
REMARK    3  A    between atoms: N_9  and  C_10
REMARK    4  A    between atoms: N_9  and  C_23
REMARK    5  A    between atoms: C_10  and  C_11
REMARK    6  A    between atoms: C_15  and  C_17
REMARK    7  A    between atoms: C_18  and  C_30
REMARK                            x       y       z     vdW  Elec       q    Type
REMARK                         _______ _______ _______ _____ _____    ______ ____
ROOT
ATOM      1  N   UNL A   1     -23.506  -0.214  30.307  0.00  0.00    -0.276 N 
ENDROOT
BRANCH   1   2
ATOM      2  C   UNL A   1     -23.853  -0.436  31.735  0.00  0.00    +0.050 A 
ATOM      3  C   UNL A   1     -24.889   0.199  32.315  0.00  0.00    +0.015 A 
ATOM      4  C   UNL A   1     -25.267   0.112  33.460  0.00  0.00    +0.001 A 
ATOM      5  C   UNL A   1     -24.529  -0.723  34.317  0.00  0.00    +0.000 A 
ATOM      6  C   UNL A   1     -23.045  -1.275  32.520  0.00  0.00    +0.015 A 
ATOM      7  C   UNL A   1     -23.364  -1.461  33.499  0.00  0.00    +0.001 A 
ENDBRANCH   1   2
BRANCH   1   8
ATOM      8  C   UNL A   1     -23.287  -1.292  29.567  0.00  0.00    +0.252 C 
ATOM      9  O   UNL A   1     -22.290  -1.438  28.967  0.00  0.00    -0.196 OA
BRANCH   8  11
ATOM     10  C   UNL A   1     -24.103  -3.282  29.226  0.00  0.00    +0.011 A 
ATOM     11  C   UNL A   1     -24.448  -2.348  29.571  0.00  0.00    +0.028 A 
ATOM     12  C   UNL A   1     -25.076  -4.386  29.228  0.00  0.00    +0.058 A 
ATOM     13  C   UNL A   1     -26.444  -4.146  29.550  0.00  0.00    +0.011 A 
ATOM     14  C   UNL A   1     -25.803  -1.828  29.900  0.00  0.00    -0.000 A 
ATOM     15  C   UNL A   1     -26.732  -2.826  29.923  0.00  0.00    +0.001 A 
ATOM     16 CL   UNL A   1     -24.690  -6.023  28.875  0.00  0.00    -0.082 Cl
ENDBRANCH   8  11
ENDBRANCH   1   8
BRANCH   1  17
ATOM     17  C   UNL A   1     -23.419   1.142  29.939  0.00  0.00    +0.120 C 
BRANCH  17  18
ATOM     18  C   UNL A   1     -23.179   1.344  28.677  0.00  0.00    -0.002 A 
ATOM     19  C   UNL A   1     -22.336   1.683  28.179  0.00  0.00    -0.003 A 
ATOM     20  C   UNL A   1     -22.099   1.876  26.683  0.00  0.00    -0.000 A 
ATOM     21  C   UNL A   1     -23.212   1.757  25.867  0.00  0.00    +0.000 A 
ATOM     22  C   UNL A   1     -24.412   1.377  26.469  0.00  0.00    +0.000 A 
ATOM     23  C   UNL A   1     -24.475   1.228  27.790  0.00  0.00    -0.003 A 
BRANCH  22  24
ATOM     24  C   UNL A   1     -25.576   1.243  25.527  0.00  0.00    +0.008 A 
ATOM     25  C   UNL A   1     -26.515   2.194  25.496  0.00  0.00    +0.043 A 
ATOM     26  C   UNL A   1     -25.718  -0.022  24.886  0.00  0.00    +0.001 A 
ATOM     27  C   UNL A   1     -26.961  -0.399  24.435  0.00  0.00    +0.000 A 
ATOM     28  C   UNL A   1     -27.748   1.908  24.841  0.00  0.00    +0.008 A 
ATOM     29  C   UNL A   1     -27.977   0.649  24.292  0.00  0.00    +0.001 A 
BRANCH  25  30
ATOM     30  C   UNL A   1     -26.344   3.518  26.088  0.00  0.00    -0.051 C 
ATOM     31  C   UNL A   1     -27.371   4.186  26.771  0.00  0.00    -0.009 C 
ENDBRANCH  25  30
ENDBRANCH  22  24
ENDBRANCH  17  18
ENDBRANCH   1  17
TORSDOF 7
ENDMDL
ENDMDL
