REMARK  Name = No_378-gen_results/8p0m/2024-11-26-14-13-15/
REMARK  4 active torsions:
REMARK  status: ('A' for Active; 'I' for Inactive)
REMARK    1  A    between atoms: C_2  and  O_15
REMARK    2  A    between atoms: C_3  and  C_8
REMARK    3  A    between atoms: O_15  and  C_16
REMARK    4  A    between atoms: C_16  and  C_17
REMARK                            x       y       z     vdW  Elec       q    Type
REMARK                         _______ _______ _______ _____ _____    ______ ____
ROOT
ATOM      1  C   UNL A   1     -28.016  -0.814  28.878  0.00  0.00    +0.048 A 
ATOM      2  C   UNL A   1     -27.064  -0.119  28.608  0.00  0.00    +0.140 A 
ATOM      3  C   UNL A   1     -26.876   1.133  28.913  0.00  0.00    +0.034 A 
ATOM      4  C   UNL A   1     -27.901   1.807  29.644  0.00  0.00    +0.004 A 
ATOM      5  C   UNL A   1     -29.046  -0.232  29.718  0.00  0.00    +0.061 A 
ATOM      6  C   UNL A   1     -28.940   1.052  30.060  0.00  0.00    +0.012 A 
ATOM      7 CL   UNL A   1     -30.329  -1.251  30.191  0.00  0.00    -0.082 Cl
ENDROOT
BRANCH   3   8
ATOM      8  C   UNL A   1     -25.653   1.934  28.440  0.00  0.00    +0.005 A 
ATOM      9  C   UNL A   1     -24.913   1.697  27.675  0.00  0.00    +0.030 A 
ATOM     10  C   UNL A   1     -23.688   2.450  27.318  0.00  0.00    +0.140 A 
ATOM     11  C   UNL A   1     -25.465   3.252  29.180  0.00  0.00    +0.000 A 
ATOM     12  C   UNL A   1     -24.505   4.179  28.665  0.00  0.00    +0.002 A 
ATOM     13  C   UNL A   1     -23.571   3.699  27.774  0.00  0.00    +0.030 A 
ATOM     14  F   UNL A   1     -22.843   2.070  26.325  0.00  0.00    -0.204 F 
ENDBRANCH   3   8
BRANCH   2  15
ATOM     15  O   UNL A   1     -26.012  -0.696  27.818  0.00  0.00    -0.471 OA
BRANCH  15  16
ATOM     16  C   UNL A   1     -25.138  -1.610  28.427  0.00  0.00    +0.232 C 
BRANCH  16  17
ATOM     17  C   UNL A   1     -23.949  -1.094  29.090  0.00  0.00    +0.021 A 
ATOM     18  C   UNL A   1     -23.940  -0.831  30.476  0.00  0.00    -0.001 A 
ATOM     19  C   UNL A   1     -23.108   0.076  31.059  0.00  0.00    -0.000 A 
ATOM     20  C   UNL A   1     -22.045   0.526  30.244  0.00  0.00    -0.000 A 
ATOM     21  C   UNL A   1     -22.024   0.106  28.863  0.00  0.00    -0.000 A 
ATOM     22  C   UNL A   1     -22.978  -0.558  28.317  0.00  0.00    -0.001 A 
ENDBRANCH  16  17
ENDBRANCH  15  16
ENDBRANCH   2  15
TORSDOF 4
