REMARK  Name = No_3780-gen_results/8p0m/2024-11-26-14-13-15/
REMARK  1 active torsions:
REMARK  status: ('A' for Active; 'I' for Inactive)
REMARK    1  A    between atoms: C_2  and  C_5
REMARK                            x       y       z     vdW  Elec       q    Type
REMARK                         _______ _______ _______ _____ _____    ______ ____
ROOT
ATOM      1  C   UNL A   1     -28.016  -0.814  28.878  0.00  0.00    +0.005 A 
ATOM      2  C   UNL A   1     -28.469  -0.785  29.829  0.00  0.00    +0.055 A 
ATOM      3  C   UNL A   1     -27.136   0.236  28.535  0.00  0.00    +0.000 A 
ATOM      4  C   UNL A   1     -26.805   1.051  29.276  0.00  0.00    +0.000 A 
ATOM      5  C   UNL A   1     -27.321   1.128  30.607  0.00  0.00    +0.000 A 
ATOM      6  C   UNL A   1     -28.197   0.082  30.980  0.00  0.00    +0.005 A 
ATOM      7  C   UNL A   1     -26.472   0.213  27.115  0.00  0.00    +0.000 A 
ATOM      8  C   UNL A   1     -25.469   1.104  26.854  0.00  0.00    +0.003 A 
ATOM      9  C   UNL A   1     -25.153   2.144  27.791  0.00  0.00    +0.019 A 
ATOM     10  C   UNL A   1     -25.768   2.115  29.042  0.00  0.00    +0.002 A 
ATOM     11  C   UNL A   1     -24.110   3.108  27.397  0.00  0.00    +0.099 A 
ATOM     12  N   UNL A   1     -23.441   2.852  26.238  0.00  0.00    -0.242 NA
ATOM     13  C   UNL A   1     -23.741   1.881  25.354  0.00  0.00    +0.099 A 
ATOM     14  C   UNL A   1     -24.725   0.985  25.641  0.00  0.00    +0.021 A 
ENDROOT
BRANCH   2  15
ATOM     15  C   UNL A   1     -29.412  -1.889  30.314  0.00  0.00    +0.265 C 
ATOM     16  O   UNL A   1     -29.715  -2.897  30.207  0.00  0.00    -0.268 OA
ATOM     17  N   UNL A   1     -30.441  -1.240  31.308  0.00  0.00    -0.200 NA
ATOM     18  C   UNL A   1     -31.497  -1.664  31.542  0.00  0.00    +0.139 C 
ENDBRANCH   2  15
TORSDOF 1
