MODEL 3780
MODEL 1
REMARK VINA RESULT:    -6.873      0.000      0.000
REMARK INTER + INTRA:          -7.420
REMARK INTER:                  -7.275
REMARK INTRA:                  -0.145
REMARK UNBOUND:                -0.145
REMARK  Name = No_3780-gen_results/8p0m/2024-11-26-14-13-15/
REMARK  1 active torsions:
REMARK  status: ('A' for Active; 'I' for Inactive)
REMARK    1  A    between atoms: C_2  and  C_5
REMARK                            x       y       z     vdW  Elec       q    Type
REMARK                         _______ _______ _______ _____ _____    ______ ____
ROOT
ATOM      1  C   UNL A   1     -30.702  -9.838  29.478  0.00  0.00    +0.005 A 
ATOM      2  C   UNL A   1     -30.759 -10.258  28.514  0.00  0.00    +0.055 A 
ATOM      3  C   UNL A   1     -29.860 -10.465  30.422  0.00  0.00    +0.000 A 
ATOM      4  C   UNL A   1     -29.154 -11.335  30.161  0.00  0.00    +0.000 A 
ATOM      5  C   UNL A   1     -29.119 -11.925  28.859  0.00  0.00    +0.000 A 
ATOM      6  C   UNL A   1     -29.946 -11.308  27.891  0.00  0.00    +0.005 A 
ATOM      7  C   UNL A   1     -29.783  -9.859  31.866  0.00  0.00    +0.000 A 
ATOM      8  C   UNL A   1     -28.823 -10.331  32.717  0.00  0.00    +0.003 A 
ATOM      9  C   UNL A   1     -28.023 -11.467  32.359  0.00  0.00    +0.019 A 
ATOM     10  C   UNL A   1     -28.125 -11.963  31.060  0.00  0.00    +0.002 A 
ATOM     11  C   UNL A   1     -27.064 -11.956  33.365  0.00  0.00    +0.099 A 
ATOM     12  N   UNL A   1     -26.923 -11.209  34.496  0.00  0.00    -0.242 NA
ATOM     13  C   UNL A   1     -27.678 -10.147  34.837  0.00  0.00    +0.099 A 
ATOM     14  C   UNL A   1     -28.612  -9.673  33.967  0.00  0.00    +0.021 A 
ENDROOT
BRANCH   2  15
ATOM     15  C   UNL A   1     -31.614  -9.639  27.406  0.00  0.00    +0.265 C 
ATOM     16  O   UNL A   1     -32.209  -9.818  26.550  0.00  0.00    -0.268 OA
ATOM     17  N   UNL A   1     -31.465  -8.078  27.500  0.00  0.00    -0.200 NA
ATOM     18  C   UNL A   1     -31.633  -7.340  26.618  0.00  0.00    +0.139 C 
ENDBRANCH   2  15
TORSDOF 1
ENDMDL
ENDMDL
