REMARK  Name = No_3781-gen_results/8p0m/2024-11-26-14-13-15/
REMARK  3 active torsions:
REMARK  status: ('A' for Active; 'I' for Inactive)
REMARK    1  A    between atoms: C_1  and  C_2
REMARK    2  A    between atoms: C_1  and  C_8
REMARK    3  A    between atoms: C_4  and  C_12
REMARK                            x       y       z     vdW  Elec       q    Type
REMARK                         _______ _______ _______ _____ _____    ______ ____
ROOT
ATOM      1  C   UNL A   1     -27.064  -0.119  28.608  0.00  0.00    -0.011 A 
ATOM      2  C   UNL A   1     -25.765  -0.390  29.036  0.00  0.00    -0.007 A 
ATOM      3  C   UNL A   1     -24.552   0.406  28.765  0.00  0.00    -0.017 A 
ATOM      4  C   UNL A   1     -24.696   1.448  27.799  0.00  0.00    +0.031 A 
ATOM      5  C   UNL A   1     -25.976   1.725  27.308  0.00  0.00    +0.006 A 
ATOM      6  C   UNL A   1     -27.072   1.013  27.654  0.00  0.00    -0.003 A 
ATOM      7 BR   UNL A   1     -23.155   2.408  27.375  0.00  0.00    -0.049 Br
ENDROOT
BRANCH   3   8
ATOM      8  C   UNL A   1     -23.376  -0.009  29.480  0.00  0.00    +0.023 C 
ATOM      9  C   UNL A   1     -22.800  -1.154  29.444  0.00  0.00    +0.005 C 
ATOM     10  C   UNL A   1     -22.804   1.080  30.314  0.00  0.00    +0.005 C 
ENDBRANCH   3   8
BRANCH   1  11
ATOM     11  C   UNL A   1     -28.016  -0.814  28.878  0.00  0.00    +0.140 C 
BRANCH  11  12
ATOM     12  C   UNL A   1     -28.618  -0.469  30.221  0.00  0.00    +0.369 C 
ATOM     13  O   UNL A   1     -29.625  -1.271  30.682  0.00  0.00    -0.245 OA
ATOM     14  O   UNL A   1     -28.231   0.403  30.957  0.00  0.00    -0.245 OA
ENDBRANCH  11  12
ENDBRANCH   1  11
TORSDOF 3
