MODEL 3782
MODEL 1
REMARK VINA RESULT:    -5.812      0.000      0.000
REMARK INTER + INTRA:          -7.258
REMARK INTER:                  -6.831
REMARK INTRA:                  -0.427
REMARK UNBOUND:                -0.427
REMARK  Name = No_3782-gen_results/8p0m/2024-11-26-14-13-15/
REMARK  3 active torsions:
REMARK  status: ('A' for Active; 'I' for Inactive)
REMARK    1  A    between atoms: C_10  and  C_11
REMARK    2  A    between atoms: C_11  and  N_12
REMARK    3  A    between atoms: N_12  and  C_13
REMARK                            x       y       z     vdW  Elec       q    Type
REMARK                         _______ _______ _______ _____ _____    ______ ____
ROOT
ATOM      1  C   UNL A   1     -27.632  -4.489  30.236  0.00  0.00    -0.000 A 
ATOM      2  C   UNL A   1     -28.174  -3.660  30.593  0.00  0.00    -0.000 A 
ATOM      3  C   UNL A   1     -26.335  -4.258  29.725  0.00  0.00    -0.000 A 
ATOM      4  C   UNL A   1     -25.400  -5.326  29.285  0.00  0.00    -0.000 A 
ATOM      5  C   UNL A   1     -27.832  -2.228  30.657  0.00  0.00    -0.000 A 
ATOM      6  C   UNL A   1     -26.563  -1.923  30.165  0.00  0.00    -0.000 A 
ATOM      7  C   UNL A   1     -25.762  -2.930  29.731  0.00  0.00    -0.002 A 
ATOM      8  C   UNL A   1     -24.225  -4.922  28.579  0.00  0.00    -0.000 A 
ATOM      9  C   UNL A   1     -23.736  -3.604  28.634  0.00  0.00    -0.003 A 
ATOM     10  C   UNL A   1     -24.539  -2.587  29.097  0.00  0.00    -0.001 A 
ENDROOT
BRANCH  10  11
ATOM     11  C   UNL A   1     -23.994  -1.206  29.014  0.00  0.00    +0.139 C 
BRANCH  11  12
ATOM     12  N   UNL A   1     -22.891  -0.891  29.742  0.00  0.00    -0.232 NA
BRANCH  12  13
ATOM     13  C   UNL A   1     -22.979  -0.276  30.889  0.00  0.00    +0.081 C 
ATOM     14  C   UNL A   1     -23.097  -1.040  32.098  0.00  0.00    +0.019 C 
ENDBRANCH  12  13
ENDBRANCH  11  12
ENDBRANCH  10  11
TORSDOF 3
ENDMDL
ENDMDL
