REMARK  Name = No_3782-gen_results/8p0m/2024-11-26-14-13-15/
REMARK  3 active torsions:
REMARK  status: ('A' for Active; 'I' for Inactive)
REMARK    1  A    between atoms: C_10  and  C_11
REMARK    2  A    between atoms: C_11  and  N_12
REMARK    3  A    between atoms: N_12  and  C_13
REMARK                            x       y       z     vdW  Elec       q    Type
REMARK                         _______ _______ _______ _____ _____    ______ ____
ROOT
ATOM      1  C   UNL A   1     -28.016  -0.814  28.878  0.00  0.00    -0.000 A 
ATOM      2  C   UNL A   1     -28.469  -0.785  29.829  0.00  0.00    -0.000 A 
ATOM      3  C   UNL A   1     -27.136   0.236  28.535  0.00  0.00    -0.000 A 
ATOM      4  C   UNL A   1     -26.335   0.290  27.284  0.00  0.00    -0.000 A 
ATOM      5  C   UNL A   1     -28.369   0.196  30.924  0.00  0.00    -0.000 A 
ATOM      6  C   UNL A   1     -27.516   1.266  30.654  0.00  0.00    -0.000 A 
ATOM      7  C   UNL A   1     -26.841   1.294  29.476  0.00  0.00    -0.002 A 
ATOM      8  C   UNL A   1     -25.677   1.520  26.977  0.00  0.00    -0.000 A 
ATOM      9  C   UNL A   1     -25.432   2.502  27.954  0.00  0.00    -0.003 A 
ATOM     10  C   UNL A   1     -26.099   2.461  29.157  0.00  0.00    -0.001 A 
ENDROOT
BRANCH  10  11
ATOM     11  C   UNL A   1     -25.876   3.597  30.091  0.00  0.00    +0.139 C 
BRANCH  11  12
ATOM     12  N   UNL A   1     -26.124   4.861  29.659  0.00  0.00    -0.232 NA
BRANCH  12  13
ATOM     13  C   UNL A   1     -26.001   5.892  30.449  0.00  0.00    +0.081 C 
ATOM     14  C   UNL A   1     -25.980   7.215  29.893  0.00  0.00    +0.019 C 
ENDBRANCH  12  13
ENDBRANCH  11  12
ENDBRANCH  10  11
TORSDOF 3
