MODEL 3783
MODEL 1
REMARK VINA RESULT:    -7.997      0.000      0.000
REMARK INTER + INTRA:         -10.666
REMARK INTER:                  -9.867
REMARK INTRA:                  -0.798
REMARK UNBOUND:                -0.798
REMARK  Name = No_3783-gen_results/8p0m/2024-11-26-14-13-15/
REMARK  4 active torsions:
REMARK  status: ('A' for Active; 'I' for Inactive)
REMARK    1  A    between atoms: C_3  and  C_4
REMARK    2  A    between atoms: C_7  and  C_13
REMARK    3  A    between atoms: N_15  and  C_16
REMARK    4  A    between atoms: C_16  and  C_17
REMARK                            x       y       z     vdW  Elec       q    Type
REMARK                         _______ _______ _______ _____ _____    ______ ____
ROOT
ATOM      1  C   UNL A   1      -8.276  -0.007  35.105  0.00  0.00    +0.265 C 
ATOM      2  O   UNL A   1      -8.912   0.578  34.232  0.00  0.00    -0.268 OA
ATOM      3  N   UNL A   1      -8.875  -0.261  36.278  0.00  0.00    -0.197 NA
ENDROOT
BRANCH   1   7
ATOM      4  C   UNL A   1      -6.677  -1.944  34.513  0.00  0.00    +0.005 A 
ATOM      5  C   UNL A   1      -5.545  -2.311  34.295  0.00  0.00    +0.000 A 
ATOM      6  C   UNL A   1      -4.421  -1.518  34.521  0.00  0.00    +0.000 A 
ATOM      7  C   UNL A   1      -6.903  -0.514  34.884  0.00  0.00    +0.055 A 
ATOM      8  C   UNL A   1      -5.869   0.320  35.208  0.00  0.00    +0.005 A 
ATOM      9  C   UNL A   1      -4.533  -0.120  35.002  0.00  0.00    +0.000 A 
BRANCH   6  10
ATOM     10  C   UNL A   1      -3.011  -1.878  34.274  0.00  0.00    +0.000 A 
ATOM     11  C   UNL A   1      -2.446  -2.237  32.999  0.00  0.00    +0.000 A 
ATOM     12  C   UNL A   1      -1.078  -2.550  32.879  0.00  0.00    +0.000 A 
ATOM     13  C   UNL A   1      -0.150  -2.253  33.925  0.00  0.00    +0.000 A 
ATOM     14  C   UNL A   1      -1.990  -1.685  35.302  0.00  0.00    +0.000 A 
ATOM     15  C   UNL A   1      -0.654  -1.884  35.109  0.00  0.00    +0.000 A 
ENDBRANCH   6  10
ENDBRANCH   1   7
BRANCH   3  16
ATOM     16  C   UNL A   1     -10.242   0.193  36.548  0.00  0.00    +0.141 C 
BRANCH  16  17
ATOM     17  C   UNL A   1     -10.864  -0.605  37.342  0.00  0.00    -0.004 A 
ATOM     18  C   UNL A   1     -11.057  -1.713  37.302  0.00  0.00    -0.003 A 
ATOM     19  C   UNL A   1     -11.157  -0.035  38.765  0.00  0.00    -0.018 A 
ATOM     20  C   UNL A   1     -11.878  -0.812  39.746  0.00  0.00    +0.051 A 
ATOM     21  C   UNL A   1     -11.796  -2.629  38.233  0.00  0.00    -0.000 A 
ATOM     22  C   UNL A   1     -12.101  -2.107  39.459  0.00  0.00    +0.004 A 
ATOM     23  C   UNL A   1     -12.178  -0.165  41.035  0.00  0.00    +0.265 C 
ATOM     24  O   UNL A   1     -12.566  -0.710  41.952  0.00  0.00    -0.268 OA
ATOM     25  N   UNL A   1     -11.611   1.129  41.179  0.00  0.00    -0.201 NA
ATOM     26  C   UNL A   1     -11.055   1.907  40.162  0.00  0.00    +0.120 C 
ATOM     27  C   UNL A   1     -10.800   1.317  39.059  0.00  0.00    +0.050 C 
ENDBRANCH  16  17
ENDBRANCH   3  16
TORSDOF 4
ENDMDL
ENDMDL
