REMARK  Name = No_3783-gen_results/8p0m/2024-11-26-14-13-15/
REMARK  4 active torsions:
REMARK  status: ('A' for Active; 'I' for Inactive)
REMARK    1  A    between atoms: C_3  and  C_4
REMARK    2  A    between atoms: C_7  and  C_13
REMARK    3  A    between atoms: N_15  and  C_16
REMARK    4  A    between atoms: C_16  and  C_17
REMARK                            x       y       z     vdW  Elec       q    Type
REMARK                         _______ _______ _______ _____ _____    ______ ____
ROOT
ATOM      1  C   UNL A   1     -28.978  -2.771  30.258  0.00  0.00    +0.265 C 
ATOM      2  O   UNL A   1     -28.906  -3.995  30.332  0.00  0.00    -0.268 OA
ATOM      3  N   UNL A   1     -30.118  -2.169  30.628  0.00  0.00    -0.197 NA
ENDROOT
BRANCH   1   7
ATOM      4  C   UNL A   1     -28.016  -0.814  28.878  0.00  0.00    +0.005 A 
ATOM      5  C   UNL A   1     -27.064  -0.119  28.608  0.00  0.00    +0.000 A 
ATOM      6  C   UNL A   1     -25.765  -0.390  29.036  0.00  0.00    +0.000 A 
ATOM      7  C   UNL A   1     -27.829  -1.929  29.855  0.00  0.00    +0.055 A 
ATOM      8  C   UNL A   1     -26.588  -2.327  30.268  0.00  0.00    +0.005 A 
ATOM      9  C   UNL A   1     -25.456  -1.543  29.915  0.00  0.00    +0.000 A 
BRANCH   6  10
ATOM     10  C   UNL A   1     -24.552   0.406  28.765  0.00  0.00    +0.000 A 
ATOM     11  C   UNL A   1     -23.230   0.118  29.258  0.00  0.00    +0.000 A 
ATOM     12  C   UNL A   1     -22.139   0.943  28.922  0.00  0.00    +0.000 A 
ATOM     13  C   UNL A   1     -22.230   1.909  27.872  0.00  0.00    +0.000 A 
ATOM     14  C   UNL A   1     -24.554   1.470  27.762  0.00  0.00    +0.000 A 
ATOM     15  C   UNL A   1     -23.447   2.167  27.376  0.00  0.00    +0.000 A 
ENDBRANCH   6  10
ENDBRANCH   1   7
BRANCH   3  16
ATOM     16  C   UNL A   1     -31.283  -2.946  31.061  0.00  0.00    +0.141 C 
BRANCH  16  17
ATOM     17  C   UNL A   1     -32.239  -2.189  31.469  0.00  0.00    -0.004 A 
ATOM     18  C   UNL A   1     -33.204  -2.410  32.005  0.00  0.00    -0.003 A 
ATOM     19  C   UNL A   1     -31.906  -0.664  31.518  0.00  0.00    -0.018 A 
ATOM     20  C   UNL A   1     -32.899   0.303  31.925  0.00  0.00    +0.051 A 
ATOM     21  C   UNL A   1     -34.316  -1.513  32.465  0.00  0.00    -0.000 A 
ATOM     22  C   UNL A   1     -34.040  -0.175  32.453  0.00  0.00    +0.004 A 
ATOM     23  C   UNL A   1     -32.522   1.726  31.866  0.00  0.00    +0.265 C 
ATOM     24  O   UNL A   1     -33.126   2.570  32.326  0.00  0.00    -0.268 OA
ATOM     25  N   UNL A   1     -31.166   1.951  31.508  0.00  0.00    -0.201 NA
ATOM     26  C   UNL A   1     -30.283   1.010  30.975  0.00  0.00    +0.120 C 
ATOM     27  C   UNL A   1     -30.634  -0.215  31.047  0.00  0.00    +0.050 C 
ENDBRANCH  16  17
ENDBRANCH   3  16
TORSDOF 4
