MODEL 3784
MODEL 1
REMARK VINA RESULT:    -6.612      0.000      0.000
REMARK INTER + INTRA:          -7.802
REMARK INTER:                  -7.385
REMARK INTRA:                  -0.417
REMARK UNBOUND:                -0.417
REMARK  Name = No_3784-gen_results/8p0m/2024-11-26-14-13-15/
REMARK  2 active torsions:
REMARK  status: ('A' for Active; 'I' for Inactive)
REMARK    1  A    between atoms: C_3  and  C_4
REMARK    2  A    between atoms: C_6  and  C_13
REMARK                            x       y       z     vdW  Elec       q    Type
REMARK                         _______ _______ _______ _____ _____    ______ ____
ROOT
ATOM      1  C   UNL A   1     -29.307 -10.209  32.637  0.00  0.00    +0.007 A 
ATOM      2  C   UNL A   1     -29.752 -10.132  31.515  0.00  0.00    +0.000 A 
ATOM      3  C   UNL A   1     -29.384 -10.991  30.479  0.00  0.00    +0.000 A 
ATOM      4  C   UNL A   1     -28.178 -11.143  32.882  0.00  0.00    +0.080 A 
ATOM      5  C   UNL A   1     -27.815 -12.098  31.957  0.00  0.00    +0.007 A 
ATOM      6  C   UNL A   1     -28.360 -12.041  30.631  0.00  0.00    +0.000 A 
ENDROOT
BRANCH   3   7
ATOM      7  C   UNL A   1     -29.865 -10.963  29.084  0.00  0.00    +0.000 A 
ATOM      8  C   UNL A   1     -30.786 -10.004  28.531  0.00  0.00    +0.000 A 
ATOM      9  C   UNL A   1     -31.104 -10.060  27.182  0.00  0.00    +0.000 A 
ATOM     10  C   UNL A   1     -30.381 -10.932  26.263  0.00  0.00    +0.000 A 
ATOM     11  C   UNL A   1     -29.253 -11.786  28.056  0.00  0.00    +0.000 A 
ATOM     12  C   UNL A   1     -29.500 -11.752  26.765  0.00  0.00    +0.000 A 
ENDBRANCH   3   7
BRANCH   4  13
ATOM     13  C   UNL A   1     -27.556 -11.246  34.228  0.00  0.00    +0.388 C 
ATOM     14  O   UNL A   1     -27.264 -12.301  34.659  0.00  0.00    -0.241 OA
ATOM     15  O   UNL A   1     -27.449 -10.166  34.948  0.00  0.00    -0.241 OA
ENDBRANCH   4  13
TORSDOF 2
ENDMDL
ENDMDL
