REMARK  Name = No_3784-gen_results/8p0m/2024-11-26-14-13-15/
REMARK  2 active torsions:
REMARK  status: ('A' for Active; 'I' for Inactive)
REMARK    1  A    between atoms: C_3  and  C_4
REMARK    2  A    between atoms: C_6  and  C_13
REMARK                            x       y       z     vdW  Elec       q    Type
REMARK                         _______ _______ _______ _____ _____    ______ ____
ROOT
ATOM      1  C   UNL A   1     -28.016  -0.814  28.878  0.00  0.00    +0.007 A 
ATOM      2  C   UNL A   1     -27.064  -0.119  28.608  0.00  0.00    +0.000 A 
ATOM      3  C   UNL A   1     -25.765  -0.390  29.036  0.00  0.00    +0.000 A 
ATOM      4  C   UNL A   1     -27.828  -1.908  29.866  0.00  0.00    +0.080 A 
ATOM      5  C   UNL A   1     -26.573  -2.316  30.264  0.00  0.00    +0.007 A 
ATOM      6  C   UNL A   1     -25.430  -1.520  29.923  0.00  0.00    +0.000 A 
ENDROOT
BRANCH   3   7
ATOM      7  C   UNL A   1     -24.552   0.406  28.765  0.00  0.00    +0.000 A 
ATOM      8  C   UNL A   1     -23.230   0.118  29.258  0.00  0.00    +0.000 A 
ATOM      9  C   UNL A   1     -22.166   0.920  28.871  0.00  0.00    +0.000 A 
ATOM     10  C   UNL A   1     -22.308   1.923  27.822  0.00  0.00    +0.000 A 
ATOM     11  C   UNL A   1     -24.542   1.451  27.757  0.00  0.00    +0.000 A 
ATOM     12  C   UNL A   1     -23.499   2.132  27.334  0.00  0.00    +0.000 A 
ENDBRANCH   3   7
BRANCH   4  13
ATOM     13  C   UNL A   1     -28.971  -2.766  30.276  0.00  0.00    +0.388 C 
ATOM     14  O   UNL A   1     -30.064  -2.332  30.261  0.00  0.00    -0.241 OA
ATOM     15  O   UNL A   1     -28.719  -3.953  30.750  0.00  0.00    -0.241 OA
ENDBRANCH   4  13
TORSDOF 2
