REMARK  Name = No_3786-gen_results/8p0m/2024-11-26-14-13-15/
REMARK  0 active torsions:
REMARK  status: ('A' for Active; 'I' for Inactive)
REMARK                            x       y       z     vdW  Elec       q    Type
REMARK                         _______ _______ _______ _____ _____    ______ ____
ROOT
ATOM      1  C   UNL A   1     -28.016  -0.814  28.878  0.00  0.00    +0.000 A 
ATOM      2  C   UNL A   1     -27.064  -0.119  28.608  0.00  0.00    +0.000 A 
ATOM      3  C   UNL A   1     -25.792  -0.430  29.076  0.00  0.00    +0.000 A 
ATOM      4  C   UNL A   1     -25.576  -1.565  29.936  0.00  0.00    +0.000 A 
ATOM      5  C   UNL A   1     -26.735  -2.300  30.217  0.00  0.00    +0.000 A 
ATOM      6  C   UNL A   1     -27.918  -1.954  29.763  0.00  0.00    +0.000 A 
ATOM      7  C   UNL A   1     -26.897   1.102  27.705  0.00  0.00    +0.000 A 
ATOM      8  C   UNL A   1     -25.855   1.542  27.231  0.00  0.00    +0.000 A 
ATOM      9  C   UNL A   1     -24.549   1.163  27.849  0.00  0.00    +0.000 A 
ATOM     10  C   UNL A   1     -24.499   0.113  28.699  0.00  0.00    +0.000 A 
ENDROOT
TORSDOF 0
