MODEL 3786
MODEL 1
REMARK VINA RESULT:    -5.425      0.000      0.000
REMARK INTER + INTRA:          -5.425
REMARK INTER:                  -5.425
REMARK INTRA:                   0.000
REMARK UNBOUND:                 0.000
REMARK  Name = No_3786-gen_results/8p0m/2024-11-26-14-13-15/
REMARK  0 active torsions:
REMARK  status: ('A' for Active; 'I' for Inactive)
REMARK                            x       y       z     vdW  Elec       q    Type
REMARK                         _______ _______ _______ _____ _____    ______ ____
ROOT
ATOM      1  C   UNL A   1     -24.016  -4.241  28.754  0.00  0.00    +0.000 A 
ATOM      2  C   UNL A   1     -24.140  -3.086  29.093  0.00  0.00    +0.000 A 
ATOM      3  C   UNL A   1     -25.277  -2.654  29.766  0.00  0.00    +0.000 A 
ATOM      4  C   UNL A   1     -26.364  -3.557  30.041  0.00  0.00    +0.000 A 
ATOM      5  C   UNL A   1     -26.148  -4.867  29.594  0.00  0.00    +0.000 A 
ATOM      6  C   UNL A   1     -25.061  -5.222  28.947  0.00  0.00    +0.000 A 
ATOM      7  C   UNL A   1     -23.203  -1.882  29.025  0.00  0.00    +0.000 A 
ATOM      8  C   UNL A   1     -23.273  -0.845  29.676  0.00  0.00    +0.000 A 
ATOM      9  C   UNL A   1     -24.566  -0.469  30.323  0.00  0.00    +0.000 A 
ATOM     10  C   UNL A   1     -25.535  -1.402  30.456  0.00  0.00    +0.000 A 
ENDROOT
TORSDOF 0
ENDMDL
ENDMDL
