MODEL 3787
MODEL 1
REMARK VINA RESULT:    -8.083      0.000      0.000
REMARK INTER + INTRA:         -10.357
REMARK INTER:                  -9.029
REMARK INTRA:                  -1.329
REMARK UNBOUND:                -1.329
REMARK  Name = No_3787-gen_results/8p0m/2024-11-26-14-13-15/
REMARK  2 active torsions:
REMARK  status: ('A' for Active; 'I' for Inactive)
REMARK    1  A    between atoms: C_3  and  C_12
REMARK    2  A    between atoms: C_13  and  C_18
REMARK                            x       y       z     vdW  Elec       q    Type
REMARK                         _______ _______ _______ _____ _____    ______ ____
ROOT
ATOM      1  C   UNL A   1     -25.102  -0.381  28.924  0.00  0.00    +0.001 A 
ATOM      2  C   UNL A   1     -24.149   0.063  29.843  0.00  0.00    +0.000 A 
ATOM      3  C   UNL A   1     -25.084  -0.037  27.623  0.00  0.00    +0.000 A 
ATOM      4  C   UNL A   1     -24.050   0.620  27.095  0.00  0.00    +0.000 A 
ATOM      5  C   UNL A   1     -23.181   0.943  29.392  0.00  0.00    +0.000 A 
ATOM      6  C   UNL A   1     -23.076   1.196  27.989  0.00  0.00    +0.000 A 
ENDROOT
BRANCH   1   9
ATOM      7  N   UNL A   1     -27.653  -0.299  30.028  0.00  0.00    -0.128 NA
ATOM      8  C   UNL A   1     -27.003  -1.118  29.837  0.00  0.00    +0.089 A 
ATOM      9  C   UNL A   1     -26.142  -1.455  29.441  0.00  0.00    +0.017 A 
ATOM     10  C   UNL A   1     -25.496  -2.826  29.325  0.00  0.00    +0.001 A 
ATOM     11  C   UNL A   1     -26.346  -3.831  29.692  0.00  0.00    +0.000 A 
ATOM     12  C   UNL A   1     -25.967  -5.198  29.626  0.00  0.00    +0.000 A 
ATOM     13  C   UNL A   1     -27.979  -2.395  30.249  0.00  0.00    +0.018 A 
ATOM     14  C   UNL A   1     -27.489  -3.642  30.132  0.00  0.00    +0.001 A 
ATOM     15  C   UNL A   1     -24.748  -5.402  28.944  0.00  0.00    +0.000 A 
ATOM     16  C   UNL A   1     -23.897  -4.301  28.597  0.00  0.00    +0.000 A 
ATOM     17  C   UNL A   1     -24.306  -3.083  28.669  0.00  0.00    +0.000 A 
ENDBRANCH   1   9
BRANCH   2  18
ATOM     18  C   UNL A   1     -24.140  -0.182  31.276  0.00  0.00    +0.000 A 
ATOM     19  C   UNL A   1     -23.389  -1.222  31.857  0.00  0.00    +0.000 A 
ATOM     20  C   UNL A   1     -23.403  -1.432  33.184  0.00  0.00    +0.000 A 
ATOM     21  C   UNL A   1     -24.272  -0.775  34.056  0.00  0.00    +0.000 A 
ATOM     22  C   UNL A   1     -24.987   0.636  32.076  0.00  0.00    +0.000 A 
ATOM     23  C   UNL A   1     -25.053   0.303  33.482  0.00  0.00    +0.000 A 
ENDBRANCH   2  18
TORSDOF 2
ENDMDL
ENDMDL
