MODEL 3788
MODEL 1
REMARK VINA RESULT:    -6.038      0.000      0.000
REMARK INTER + INTRA:          -7.588
REMARK INTER:                  -7.097
REMARK INTRA:                  -0.490
REMARK UNBOUND:                -0.490
REMARK  Name = No_3788-gen_results/8p0m/2024-11-26-14-13-15/
REMARK  3 active torsions:
REMARK  status: ('A' for Active; 'I' for Inactive)
REMARK    1  A    between atoms: C_3  and  C_7
REMARK    2  A    between atoms: C_8  and  C_9
REMARK    3  A    between atoms: C_10  and  C_11
REMARK                            x       y       z     vdW  Elec       q    Type
REMARK                         _______ _______ _______ _____ _____    ______ ____
ROOT
ATOM      1  C   UNL A   1     -24.422   0.161  27.229  0.00  0.00    +0.000 A 
ATOM      2  C   UNL A   1     -24.401   0.810  26.400  0.00  0.00    +0.000 A 
ATOM      3  C   UNL A   1     -23.354   0.231  28.149  0.00  0.00    +0.000 A 
ATOM      4  C   UNL A   1     -22.299   1.106  27.979  0.00  0.00    +0.000 A 
ATOM      5  C   UNL A   1     -23.411   1.826  25.990  0.00  0.00    +0.000 A 
ATOM      6  C   UNL A   1     -22.369   1.925  26.845  0.00  0.00    +0.000 A 
ENDROOT
BRANCH   3   7
ATOM      7  C   UNL A   1     -23.286  -0.603  29.398  0.00  0.00    +0.000 C 
ATOM      8  C   UNL A   1     -23.305  -1.836  29.293  0.00  0.00    +0.000 C 
BRANCH   8   9
ATOM      9  C   UNL A   1     -23.932  -2.765  29.279  0.00  0.00    +0.000 C 
ATOM     10  C   UNL A   1     -23.995  -3.957  28.659  0.00  0.00    +0.000 C 
BRANCH  10  11
ATOM     11  C   UNL A   1     -24.963  -5.027  28.902  0.00  0.00    +0.000 C 
ATOM     12  C   UNL A   1     -26.060  -4.561  29.577  0.00  0.00    +0.000 C 
ENDBRANCH  10  11
ENDBRANCH   8   9
ENDBRANCH   3   7
TORSDOF 3
ENDMDL
ENDMDL
