MODEL 3789
MODEL 1
REMARK VINA RESULT:    -6.627      0.000      0.000
REMARK INTER + INTRA:          -7.369
REMARK INTER:                  -7.014
REMARK INTRA:                  -0.355
REMARK UNBOUND:                -0.355
REMARK  Name = No_3789-gen_results/8p0m/2024-11-26-14-13-15/
REMARK  1 active torsions:
REMARK  status: ('A' for Active; 'I' for Inactive)
REMARK    1  A    between atoms: C_1  and  C_3
REMARK                            x       y       z     vdW  Elec       q    Type
REMARK                         _______ _______ _______ _____ _____    ______ ____
ROOT
ATOM      1  C   UNL A   1     -23.775  -1.324  28.554  0.00  0.00    +0.000 A 
ATOM      2  C   UNL A   1     -24.371  -0.581  28.103  0.00  0.00    +0.000 A 
ATOM      3  C   UNL A   1     -23.777   0.767  27.687  0.00  0.00    +0.000 A 
ATOM      4  C   UNL A   1     -22.496   0.919  28.163  0.00  0.00    +0.000 A 
ATOM      5  C   UNL A   1     -21.928  -0.008  28.943  0.00  0.00    +0.000 A 
ATOM      6  C   UNL A   1     -22.580  -1.125  29.279  0.00  0.00    +0.000 A 
ENDROOT
BRANCH   1   7
ATOM      7  C   UNL A   1     -24.448  -2.585  28.904  0.00  0.00    +0.000 A 
ATOM      8  C   UNL A   1     -25.727  -2.743  29.579  0.00  0.00    +0.000 A 
ATOM      9  C   UNL A   1     -26.202  -4.100  29.713  0.00  0.00    +0.000 A 
ATOM     10  C   UNL A   1     -25.430  -5.198  29.302  0.00  0.00    +0.000 A 
ATOM     11  C   UNL A   1     -23.980  -3.967  28.611  0.00  0.00    +0.000 A 
ATOM     12  C   UNL A   1     -24.316  -5.110  28.691  0.00  0.00    +0.000 A 
ENDBRANCH   1   7
TORSDOF 1
ENDMDL
ENDMDL
