REMARK  Name = No_3789-gen_results/8p0m/2024-11-26-14-13-15/
REMARK  1 active torsions:
REMARK  status: ('A' for Active; 'I' for Inactive)
REMARK    1  A    between atoms: C_1  and  C_3
REMARK                            x       y       z     vdW  Elec       q    Type
REMARK                         _______ _______ _______ _____ _____    ______ ____
ROOT
ATOM      1  C   UNL A   1     -28.016  -0.814  28.878  0.00  0.00    +0.000 A 
ATOM      2  C   UNL A   1     -28.469  -0.785  29.829  0.00  0.00    +0.000 A 
ATOM      3  C   UNL A   1     -29.991  -0.730  29.981  0.00  0.00    +0.000 A 
ATOM      4  C   UNL A   1     -30.608  -0.517  28.771  0.00  0.00    +0.000 A 
ATOM      5  C   UNL A   1     -29.900  -0.324  27.652  0.00  0.00    +0.000 A 
ATOM      6  C   UNL A   1     -28.564  -0.343  27.665  0.00  0.00    +0.000 A 
ENDROOT
BRANCH   1   7
ATOM      7  C   UNL A   1     -26.546  -0.876  28.850  0.00  0.00    +0.000 A 
ATOM      8  C   UNL A   1     -25.683  -0.777  27.683  0.00  0.00    +0.000 A 
ATOM      9  C   UNL A   1     -24.264  -0.773  27.951  0.00  0.00    +0.000 A 
ATOM     10  C   UNL A   1     -23.755  -0.950  29.247  0.00  0.00    +0.000 A 
ATOM     11  C   UNL A   1     -25.628  -1.019  30.012  0.00  0.00    +0.000 A 
ATOM     12  C   UNL A   1     -24.469  -1.022  30.299  0.00  0.00    +0.000 A 
ENDBRANCH   1   7
TORSDOF 1
