REMARK  Name = No_379-gen_results/8p0m/2024-11-26-14-13-15/
REMARK  4 active torsions:
REMARK  status: ('A' for Active; 'I' for Inactive)
REMARK    1  A    between atoms: C_2  and  N_7
REMARK    2  A    between atoms: N_7  and  C_8
REMARK    3  A    between atoms: N_7  and  C_14
REMARK    4  A    between atoms: C_14  and  C_15
REMARK                            x       y       z     vdW  Elec       q    Type
REMARK                         _______ _______ _______ _____ _____    ______ ____
ROOT
ATOM      1  N   UNL A   1     -25.974  -0.594  27.838  0.00  0.00    -0.282 N 
ENDROOT
BRANCH   1   3
ATOM      2  C   UNL A   1     -28.016  -0.814  28.878  0.00  0.00    +0.015 A 
ATOM      3  C   UNL A   1     -27.064  -0.119  28.608  0.00  0.00    +0.052 A 
ATOM      4  C   UNL A   1     -26.929   1.171  29.008  0.00  0.00    +0.015 A 
ATOM      5  C   UNL A   1     -27.956   1.741  29.784  0.00  0.00    +0.001 A 
ATOM      6  C   UNL A   1     -29.057  -0.327  29.747  0.00  0.00    +0.001 A 
ATOM      7  C   UNL A   1     -28.983   0.972  30.152  0.00  0.00    +0.000 A 
ENDBRANCH   1   3
BRANCH   1   8
ATOM      8  C   UNL A   1     -24.846  -0.978  28.545  0.00  0.00    +0.052 A 
ATOM      9  C   UNL A   1     -24.600  -2.162  28.943  0.00  0.00    +0.015 A 
ATOM     10  C   UNL A   1     -23.409  -2.512  29.581  0.00  0.00    +0.001 A 
ATOM     11  C   UNL A   1     -23.896  -0.027  28.731  0.00  0.00    +0.015 A 
ATOM     12  C   UNL A   1     -22.641  -0.305  29.352  0.00  0.00    +0.001 A 
ATOM     13  C   UNL A   1     -22.421  -1.570  29.726  0.00  0.00    +0.000 A 
ENDBRANCH   1   8
BRANCH   1  14
ATOM     14  C   UNL A   1     -25.982  -0.407  26.453  0.00  0.00    +0.122 C 
BRANCH  14  15
ATOM     15  C   UNL A   1     -26.912   0.478  25.881  0.00  0.00    -0.002 A 
ATOM     16  C   UNL A   1     -28.177   0.398  25.909  0.00  0.00    -0.003 A 
ATOM     17  C   UNL A   1     -29.045   1.212  25.209  0.00  0.00    -0.000 A 
ATOM     18  C   UNL A   1     -28.438   2.257  24.482  0.00  0.00    -0.000 A 
ATOM     19  C   UNL A   1     -26.450   1.764  25.144  0.00  0.00    -0.003 A 
ATOM     20  C   UNL A   1     -27.156   2.520  24.491  0.00  0.00    -0.000 A 
ENDBRANCH  14  15
ENDBRANCH   1  14
TORSDOF 4
