MODEL 3790
MODEL 1
REMARK VINA RESULT:    -4.588      0.000      0.000
REMARK INTER + INTRA:          -4.588
REMARK INTER:                  -4.588
REMARK INTRA:                   0.000
REMARK UNBOUND:                 0.000
REMARK  Name = No_3790-gen_results/8p0m/2024-11-26-14-13-15/
REMARK  0 active torsions:
REMARK  status: ('A' for Active; 'I' for Inactive)
REMARK                            x       y       z     vdW  Elec       q    Type
REMARK                         _______ _______ _______ _____ _____    ______ ____
ROOT
ATOM      1  C   UNL A   1     -10.182  -9.800  18.375  0.00  0.00    +0.030 A 
ATOM      2  C   UNL A   1      -9.189 -10.369  17.984  0.00  0.00    +0.140 A 
ATOM      3  C   UNL A   1      -8.051 -10.456  18.777  0.00  0.00    +0.030 A 
ATOM      4  C   UNL A   1      -8.001  -9.830  20.073  0.00  0.00    +0.002 A 
ATOM      5  C   UNL A   1      -9.184  -9.172  20.438  0.00  0.00    +0.000 A 
ATOM      6  C   UNL A   1     -10.228  -9.105  19.643  0.00  0.00    +0.002 A 
ATOM      7  F   UNL A   1      -9.079 -10.937  16.782  0.00  0.00    -0.204 F 
ENDROOT
TORSDOF 0
ENDMDL
ENDMDL
