REMARK  Name = No_3791-gen_results/8p0m/2024-11-26-14-13-15/
REMARK  3 active torsions:
REMARK  status: ('A' for Active; 'I' for Inactive)
REMARK    1  A    between atoms: C_1  and  C_2
REMARK    2  A    between atoms: C_5  and  C_15
REMARK    3  A    between atoms: N_8  and  C_9
REMARK                            x       y       z     vdW  Elec       q    Type
REMARK                         _______ _______ _______ _____ _____    ______ ____
ROOT
ATOM      1  C   UNL A   1     -28.016  -0.814  28.878  0.00  0.00    +0.269 C 
ATOM      2  N   UNL A   1     -29.170  -0.298  28.947  0.00  0.00    -0.175 NA
ATOM      3  O   UNL A   1     -27.916  -2.003  29.340  0.00  0.00    -0.268 OA
ENDROOT
BRANCH   1   4
ATOM      4  C   UNL A   1     -27.064  -0.119  28.608  0.00  0.00    +0.055 A 
ATOM      5  C   UNL A   1     -26.929   1.171  29.008  0.00  0.00    +0.005 A 
ATOM      6  C   UNL A   1     -25.770   2.034  28.688  0.00  0.00    +0.010 A 
ATOM      7  C   UNL A   1     -24.714   1.443  27.919  0.00  0.00    +0.069 A 
ATOM      8  C   UNL A   1     -24.859   0.078  27.584  0.00  0.00    +0.010 A 
ATOM      9  C   UNL A   1     -25.965  -0.661  27.916  0.00  0.00    +0.005 A 
BRANCH   7  10
ATOM     10  C   UNL A   1     -23.479   2.110  27.630  0.00  0.00    +0.100 C 
ATOM     11  N   UNL A   1     -23.067   2.704  26.869  0.00  0.00    -0.191 NA
ENDBRANCH   7  10
ENDBRANCH   1   4
BRANCH   2  12
ATOM     12  C   UNL A   1     -29.722   0.373  28.043  0.00  0.00    +0.074 A 
ATOM     13  C   UNL A   1     -29.507   0.775  27.152  0.00  0.00    +0.017 A 
ATOM     14  C   UNL A   1     -30.281   1.499  26.122  0.00  0.00    +0.001 A 
ATOM     15  C   UNL A   1     -31.216   0.241  28.279  0.00  0.00    +0.017 A 
ATOM     16  C   UNL A   1     -32.093   0.904  27.415  0.00  0.00    +0.001 A 
ATOM     17  C   UNL A   1     -31.587   1.532  26.343  0.00  0.00    +0.000 A 
ENDBRANCH   2  12
TORSDOF 3
