MODEL 3791
MODEL 1
REMARK VINA RESULT:    -6.162      0.000      0.000
REMARK INTER + INTRA:          -7.527
REMARK INTER:                  -7.243
REMARK INTRA:                  -0.284
REMARK UNBOUND:                -0.284
REMARK  Name = No_3791-gen_results/8p0m/2024-11-26-14-13-15/
REMARK  3 active torsions:
REMARK  status: ('A' for Active; 'I' for Inactive)
REMARK    1  A    between atoms: C_1  and  C_2
REMARK    2  A    between atoms: C_5  and  C_15
REMARK    3  A    between atoms: N_8  and  C_9
REMARK                            x       y       z     vdW  Elec       q    Type
REMARK                         _______ _______ _______ _____ _____    ______ ____
ROOT
ATOM      1  C   UNL A   1     -10.631   1.493  36.929  0.00  0.00    +0.269 C 
ATOM      2  N   UNL A   1     -10.365   0.599  37.785  0.00  0.00    -0.175 NA
ATOM      3  O   UNL A   1      -9.618   2.027  36.359  0.00  0.00    -0.268 OA
ENDROOT
BRANCH   1   4
ATOM      4  C   UNL A   1     -11.752   1.942  36.859  0.00  0.00    +0.055 A 
ATOM      5  C   UNL A   1     -12.451   2.407  37.925  0.00  0.00    +0.005 A 
ATOM      6  C   UNL A   1     -13.821   2.960  37.856  0.00  0.00    +0.010 A 
ATOM      7  C   UNL A   1     -14.431   3.023  36.559  0.00  0.00    +0.069 A 
ATOM      8  C   UNL A   1     -13.644   2.596  35.466  0.00  0.00    +0.010 A 
ATOM      9  C   UNL A   1     -12.376   2.093  35.607  0.00  0.00    +0.005 A 
BRANCH   7  10
ATOM     10  C   UNL A   1     -15.702   3.638  36.313  0.00  0.00    +0.100 C 
ATOM     11  N   UNL A   1     -16.401   3.709  35.533  0.00  0.00    -0.191 NA
ENDBRANCH   7  10
ENDBRANCH   1   4
BRANCH   2  12
ATOM     12  C   UNL A   1     -10.974  -0.490  37.912  0.00  0.00    +0.074 A 
ATOM     13  C   UNL A   1     -11.093  -1.358  37.429  0.00  0.00    +0.017 A 
ATOM     14  C   UNL A   1     -11.795  -2.625  37.722  0.00  0.00    +0.001 A 
ATOM     15  C   UNL A   1     -11.375  -0.575  39.374  0.00  0.00    +0.017 A 
ATOM     16  C   UNL A   1     -12.088  -1.696  39.810  0.00  0.00    +0.001 A 
ATOM     17  C   UNL A   1     -12.286  -2.706  38.950  0.00  0.00    +0.000 A 
ENDBRANCH   2  12
TORSDOF 3
ENDMDL
ENDMDL
