REMARK  Name = No_3792-gen_results/8p0m/2024-11-26-14-13-15/
REMARK  4 active torsions:
REMARK  status: ('A' for Active; 'I' for Inactive)
REMARK    1  A    between atoms: C_3  and  O_13
REMARK    2  A    between atoms: C_5  and  C_10
REMARK    3  A    between atoms: O_13  and  C_14
REMARK    4  A    between atoms: C_14  and  C_15
REMARK                            x       y       z     vdW  Elec       q    Type
REMARK                         _______ _______ _______ _____ _____    ______ ____
ROOT
ATOM      1  C   UNL A   1     -28.016  -0.814  28.878  0.00  0.00    +0.273 C 
ATOM      2  C   UNL A   1     -27.064  -0.119  28.608  0.00  0.00    +0.038 C 
ATOM      3  C   UNL A   1     -26.972   0.714  27.506  0.00  0.00    +0.139 C 
ATOM      4  C   UNL A   1     -25.820   1.491  27.116  0.00  0.00    +0.045 C 
ATOM      5  C   UNL A   1     -24.656   1.424  27.918  0.00  0.00    +0.106 C 
ATOM      6  C   UNL A   1     -24.685   0.590  29.066  0.00  0.00    +0.016 C 
ATOM      7  C   UNL A   1     -25.810  -0.127  29.334  0.00  0.00    +0.030 C 
ATOM      8  F   UNL A   1     -27.868  -1.997  29.285  0.00  0.00    -0.173 F 
ATOM      9  F   UNL A   1     -29.188  -0.466  28.743  0.00  0.00    -0.173 F 
ENDROOT
BRANCH   5  10
ATOM     10  C   UNL A   1     -23.477   2.215  27.619  0.00  0.00    +0.364 C 
ATOM     11  O   UNL A   1     -22.339   1.815  28.067  0.00  0.00    -0.246 OA
ATOM     12  O   UNL A   1     -23.494   3.107  26.648  0.00  0.00    -0.246 OA
ENDBRANCH   5  10
BRANCH   3  13
ATOM     13  O   UNL A   1     -27.976   0.796  26.658  0.00  0.00    -0.344 OA
BRANCH  13  14
ATOM     14  C   UNL A   1     -28.501   2.052  26.419  0.00  0.00    +0.214 C 
BRANCH  14  15
ATOM     15  C   UNL A   1     -29.853   2.021  26.577  0.00  0.00    +0.240 C 
ATOM     16  O   UNL A   1     -30.410   3.031  26.454  0.00  0.00    -0.285 OA
ENDBRANCH  14  15
ENDBRANCH  13  14
ENDBRANCH   3  13
TORSDOF 4
