MODEL 3792
MODEL 1
REMARK VINA RESULT:    -5.721      0.000      0.000
REMARK INTER + INTRA:          -7.343
REMARK INTER:                  -7.059
REMARK INTRA:                  -0.284
REMARK UNBOUND:                -0.284
REMARK  Name = No_3792-gen_results/8p0m/2024-11-26-14-13-15/
REMARK  4 active torsions:
REMARK  status: ('A' for Active; 'I' for Inactive)
REMARK    1  A    between atoms: C_3  and  O_13
REMARK    2  A    between atoms: C_5  and  C_10
REMARK    3  A    between atoms: O_13  and  C_14
REMARK    4  A    between atoms: C_14  and  C_15
REMARK                            x       y       z     vdW  Elec       q    Type
REMARK                         _______ _______ _______ _____ _____    ______ ____
ROOT
ATOM      1  C   UNL A   1     -24.569  -5.088  28.822  0.00  0.00    +0.273 C 
ATOM      2  C   UNL A   1     -25.269  -4.233  29.312  0.00  0.00    +0.038 C 
ATOM      3  C   UNL A   1     -24.856  -2.950  29.631  0.00  0.00    +0.139 C 
ATOM      4  C   UNL A   1     -25.646  -1.937  30.289  0.00  0.00    +0.045 C 
ATOM      5  C   UNL A   1     -26.978  -2.248  30.652  0.00  0.00    +0.106 C 
ATOM      6  C   UNL A   1     -27.465  -3.546  30.350  0.00  0.00    +0.016 C 
ATOM      7  C   UNL A   1     -26.633  -4.443  29.753  0.00  0.00    +0.030 C 
ATOM      8  F   UNL A   1     -24.615  -6.281  29.224  0.00  0.00    -0.173 F 
ATOM      9  F   UNL A   1     -23.734  -4.880  27.942  0.00  0.00    -0.173 F 
ENDROOT
BRANCH   5  10
ATOM     10  C   UNL A   1     -27.849  -1.266  31.271  0.00  0.00    +0.364 C 
ATOM     11  O   UNL A   1     -29.001  -1.649  31.696  0.00  0.00    -0.246 OA
ATOM     12  O   UNL A   1     -27.368  -0.116  31.701  0.00  0.00    -0.246 OA
ENDBRANCH   5  10
BRANCH   3  13
ATOM     13  O   UNL A   1     -23.614  -2.582  29.396  0.00  0.00    -0.344 OA
BRANCH  13  14
ATOM     14  C   UNL A   1     -23.417  -1.315  28.880  0.00  0.00    +0.214 C 
BRANCH  14  15
ATOM     15  C   UNL A   1     -22.279  -0.780  29.403  0.00  0.00    +0.240 C 
ATOM     16  O   UNL A   1     -21.280  -1.127  28.928  0.00  0.00    -0.285 OA
ENDBRANCH  14  15
ENDBRANCH  13  14
ENDBRANCH   3  13
TORSDOF 4
ENDMDL
ENDMDL
