MODEL 3793
MODEL 1
REMARK VINA RESULT:    -5.309      0.000      0.000
REMARK INTER + INTRA:          -6.037
REMARK INTER:                  -5.929
REMARK INTRA:                  -0.108
REMARK UNBOUND:                -0.108
REMARK  Name = No_3793-gen_results/8p0m/2024-11-26-14-13-15/
REMARK  2 active torsions:
REMARK  status: ('A' for Active; 'I' for Inactive)
REMARK    1  A    between atoms: C_3  and  O_7
REMARK    2  A    between atoms: C_5  and  C_9
REMARK                            x       y       z     vdW  Elec       q    Type
REMARK                         _______ _______ _______ _____ _____    ______ ____
ROOT
ATOM      1  C   UNL A   1     -25.809  -5.041  29.388  0.00  0.00    +0.037 A 
ATOM      2  C   UNL A   1     -24.832  -5.053  28.993  0.00  0.00    +0.003 A 
ATOM      3  C   UNL A   1     -26.346  -3.749  29.709  0.00  0.00    +0.139 A 
ATOM      4  C   UNL A   1     -25.618  -2.629  29.677  0.00  0.00    +0.038 A 
ATOM      5  C   UNL A   1     -24.335  -2.751  29.222  0.00  0.00    +0.022 A 
ATOM      6  C   UNL A   1     -23.866  -3.984  28.854  0.00  0.00    +0.002 A 
ENDROOT
BRANCH   5   7
ATOM      7  C   UNL A   1     -23.465  -1.578  29.139  0.00  0.00    +0.093 C 
ATOM      8  N   UNL A   1     -22.427  -1.513  29.003  0.00  0.00    -0.267 NA
ATOM      9  C   UNL A   1     -21.649  -0.340  28.978  0.00  0.00    +0.152 C 
ENDBRANCH   5   7
BRANCH   3  10
ATOM     10  O   UNL A   1     -27.694  -3.719  30.147  0.00  0.00    -0.471 OA
ATOM     11  C   UNL A   1     -28.402  -4.482  30.542  0.00  0.00    +0.253 C 
ENDBRANCH   3  10
TORSDOF 2
ENDMDL
ENDMDL
