REMARK  Name = No_3793-gen_results/8p0m/2024-11-26-14-13-15/
REMARK  2 active torsions:
REMARK  status: ('A' for Active; 'I' for Inactive)
REMARK    1  A    between atoms: C_3  and  O_7
REMARK    2  A    between atoms: C_5  and  C_9
REMARK                            x       y       z     vdW  Elec       q    Type
REMARK                         _______ _______ _______ _____ _____    ______ ____
ROOT
ATOM      1  C   UNL A   1     -28.016  -0.814  28.878  0.00  0.00    +0.037 A 
ATOM      2  C   UNL A   1     -28.469  -0.785  29.829  0.00  0.00    +0.003 A 
ATOM      3  C   UNL A   1     -28.196   0.348  28.055  0.00  0.00    +0.139 A 
ATOM      4  C   UNL A   1     -29.019   1.350  28.378  0.00  0.00    +0.038 A 
ATOM      5  C   UNL A   1     -29.625   1.268  29.601  0.00  0.00    +0.022 A 
ATOM      6  C   UNL A   1     -29.382   0.182  30.400  0.00  0.00    +0.002 A 
ENDROOT
BRANCH   5   7
ATOM      7  C   UNL A   1     -30.533   2.323  30.048  0.00  0.00    +0.093 C 
ATOM      8  N   UNL A   1     -31.283   2.838  29.525  0.00  0.00    -0.267 NA
ATOM      9  C   UNL A   1     -32.093   3.880  30.014  0.00  0.00    +0.152 C 
ENDBRANCH   5   7
BRANCH   3  10
ATOM     10  O   UNL A   1     -27.506   0.355  26.816  0.00  0.00    -0.471 OA
ATOM     11  C   UNL A   1     -27.535   1.004  25.912  0.00  0.00    +0.253 C 
ENDBRANCH   3  10
TORSDOF 2
