MODEL 3794
MODEL 1
REMARK VINA RESULT:    -4.444      0.000      0.000
REMARK INTER + INTRA:          -4.444
REMARK INTER:                  -4.444
REMARK INTRA:                   0.000
REMARK UNBOUND:                 0.000
REMARK  Name = No_3794-gen_results/8p0m/2024-11-26-14-13-15/
REMARK  0 active torsions:
REMARK  status: ('A' for Active; 'I' for Inactive)
REMARK                            x       y       z     vdW  Elec       q    Type
REMARK                         _______ _______ _______ _____ _____    ______ ____
ROOT
ATOM      1  C   UNL A   1     -24.031  -4.147  28.777  0.00  0.00    +0.011 A 
ATOM      2  C   UNL A   1     -24.255  -3.012  29.131  0.00  0.00    +0.058 A 
ATOM      3  C   UNL A   1     -25.419  -2.613  29.704  0.00  0.00    +0.011 A 
ATOM      4  C   UNL A   1     -26.431  -3.572  29.901  0.00  0.00    +0.001 A 
ATOM      5  C   UNL A   1     -24.982  -5.198  29.035  0.00  0.00    +0.001 A 
ATOM      6  C   UNL A   1     -26.179  -4.843  29.582  0.00  0.00    +0.000 A 
ATOM      7 CL   UNL A   1     -23.068  -1.752  28.943  0.00  0.00    -0.082 Cl
ENDROOT
TORSDOF 0
ENDMDL
ENDMDL
