MODEL 3795
MODEL 1
REMARK VINA RESULT:    -5.312      0.000      0.000
REMARK INTER + INTRA:          -5.740
REMARK INTER:                  -5.623
REMARK INTRA:                  -0.118
REMARK UNBOUND:                -0.118
REMARK  Name = No_3795-gen_results/8p0m/2024-11-26-14-13-15/
REMARK  1 active torsions:
REMARK  status: ('A' for Active; 'I' for Inactive)
REMARK    1  A    between atoms: C_3  and  C_7
REMARK                            x       y       z     vdW  Elec       q    Type
REMARK                         _______ _______ _______ _____ _____    ______ ____
ROOT
ATOM      1  C   UNL A   1     -25.800  -2.611  29.852  0.00  0.00    +0.011 A 
ATOM      2  C   UNL A   1     -26.365  -3.492  29.972  0.00  0.00    +0.035 A 
ATOM      3  C   UNL A   1     -24.534  -2.718  29.235  0.00  0.00    +0.072 A 
ATOM      4  C   UNL A   1     -24.030  -3.931  28.808  0.00  0.00    +0.004 A 
ATOM      5  C   UNL A   1     -24.841  -5.038  28.998  0.00  0.00    +0.000 A 
ATOM      6  C   UNL A   1     -26.085  -4.879  29.572  0.00  0.00    +0.007 A 
ATOM      7 BR   UNL A   1     -28.218  -3.378  30.696  0.00  0.00    -0.049 Br
ENDROOT
BRANCH   3   8
ATOM      8  C   UNL A   1     -23.638  -1.543  28.982  0.00  0.00    +0.419 C 
ATOM      9  F   UNL A   1     -22.502  -1.766  28.890  0.00  0.00    -0.166 F 
ATOM     10  F   UNL A   1     -24.022  -0.794  27.826  0.00  0.00    -0.166 F 
ATOM     11  F   UNL A   1     -23.908  -0.546  30.009  0.00  0.00    -0.166 F 
ENDBRANCH   3   8
TORSDOF 1
ENDMDL
ENDMDL
