REMARK  Name = No_3795-gen_results/8p0m/2024-11-26-14-13-15/
REMARK  1 active torsions:
REMARK  status: ('A' for Active; 'I' for Inactive)
REMARK    1  A    between atoms: C_3  and  C_7
REMARK                            x       y       z     vdW  Elec       q    Type
REMARK                         _______ _______ _______ _____ _____    ______ ____
ROOT
ATOM      1  C   UNL A   1     -28.016  -0.814  28.878  0.00  0.00    +0.011 A 
ATOM      2  C   UNL A   1     -28.469  -0.785  29.829  0.00  0.00    +0.035 A 
ATOM      3  C   UNL A   1     -27.136   0.236  28.535  0.00  0.00    +0.072 A 
ATOM      4  C   UNL A   1     -26.875   1.282  29.398  0.00  0.00    +0.004 A 
ATOM      5  C   UNL A   1     -27.507   1.238  30.630  0.00  0.00    +0.000 A 
ATOM      6  C   UNL A   1     -28.329   0.174  30.935  0.00  0.00    +0.007 A 
ATOM      7 BR   UNL A   1     -29.598  -2.316  30.424  0.00  0.00    -0.049 Br
ENDROOT
BRANCH   3   8
ATOM      8  C   UNL A   1     -26.408   0.307  27.226  0.00  0.00    +0.419 C 
ATOM      9  F   UNL A   1     -27.019   0.035  26.276  0.00  0.00    -0.166 F 
ATOM     10  F   UNL A   1     -25.806   1.583  26.997  0.00  0.00    -0.166 F 
ATOM     11  F   UNL A   1     -25.204  -0.505  27.340  0.00  0.00    -0.166 F 
ENDBRANCH   3   8
TORSDOF 1
