MODEL 3796
MODEL 1
REMARK VINA RESULT:    -6.500      0.000      0.000
REMARK INTER + INTRA:          -7.255
REMARK INTER:                  -6.880
REMARK INTRA:                  -0.375
REMARK UNBOUND:                -0.375
REMARK  Name = No_3796-gen_results/8p0m/2024-11-26-14-13-15/
REMARK  1 active torsions:
REMARK  status: ('A' for Active; 'I' for Inactive)
REMARK    1  A    between atoms: C_2  and  C_3
REMARK                            x       y       z     vdW  Elec       q    Type
REMARK                         _______ _______ _______ _____ _____    ______ ____
ROOT
ATOM      1  C   UNL A   1     -25.747  -2.443  29.456  0.00  0.00    +0.000 A 
ATOM      2  C   UNL A   1     -24.616  -2.541  29.041  0.00  0.00    +0.000 A 
ATOM      3  C   UNL A   1     -26.434  -3.690  29.882  0.00  0.00    +0.000 A 
ATOM      4  C   UNL A   1     -25.887  -4.912  29.531  0.00  0.00    +0.000 A 
ATOM      5  C   UNL A   1     -24.685  -5.026  28.907  0.00  0.00    +0.000 A 
ATOM      6  C   UNL A   1     -23.997  -3.870  28.641  0.00  0.00    +0.000 A 
ENDROOT
BRANCH   2   7
ATOM      7  C   UNL A   1     -23.846  -1.460  28.658  0.00  0.00    +0.000 A 
ATOM      8  C   UNL A   1     -22.570  -1.301  29.266  0.00  0.00    +0.000 A 
ATOM      9  C   UNL A   1     -21.783  -0.243  29.016  0.00  0.00    +0.000 A 
ATOM     10  C   UNL A   1     -22.224   0.820  28.199  0.00  0.00    +0.000 A 
ATOM     11  C   UNL A   1     -23.477   0.768  27.634  0.00  0.00    +0.000 A 
ATOM     12  C   UNL A   1     -24.295  -0.314  27.878  0.00  0.00    +0.000 A 
ENDBRANCH   2   7
TORSDOF 1
ENDMDL
ENDMDL
