REMARK  Name = No_3796-gen_results/8p0m/2024-11-26-14-13-15/
REMARK  1 active torsions:
REMARK  status: ('A' for Active; 'I' for Inactive)
REMARK    1  A    between atoms: C_2  and  C_3
REMARK                            x       y       z     vdW  Elec       q    Type
REMARK                         _______ _______ _______ _____ _____    ______ ____
ROOT
ATOM      1  C   UNL A   1     -28.016  -0.814  28.878  0.00  0.00    +0.000 A 
ATOM      2  C   UNL A   1     -27.064  -0.119  28.608  0.00  0.00    +0.000 A 
ATOM      3  C   UNL A   1     -27.964  -1.592  30.143  0.00  0.00    +0.000 A 
ATOM      4  C   UNL A   1     -26.754  -1.721  30.803  0.00  0.00    +0.000 A 
ATOM      5  C   UNL A   1     -25.628  -1.073  30.405  0.00  0.00    +0.000 A 
ATOM      6  C   UNL A   1     -25.724  -0.249  29.313  0.00  0.00    +0.000 A 
ENDROOT
BRANCH   2   7
ATOM      7  C   UNL A   1     -27.001   0.691  27.491  0.00  0.00    +0.000 A 
ATOM      8  C   UNL A   1     -28.137   0.736  26.635  0.00  0.00    +0.000 A 
ATOM      9  C   UNL A   1     -28.144   1.432  25.488  0.00  0.00    +0.000 A 
ATOM     10  C   UNL A   1     -26.984   2.088  25.024  0.00  0.00    +0.000 A 
ATOM     11  C   UNL A   1     -25.826   2.028  25.765  0.00  0.00    +0.000 A 
ATOM     12  C   UNL A   1     -25.805   1.320  26.947  0.00  0.00    +0.000 A 
ENDBRANCH   2   7
TORSDOF 1
