REMARK  Name = No_3797-gen_results/8p0m/2024-11-26-14-13-15/
REMARK  5 active torsions:
REMARK  status: ('A' for Active; 'I' for Inactive)
REMARK    1  A    between atoms: C_2  and  N_10
REMARK    2  A    between atoms: C_5  and  C_7
REMARK    3  A    between atoms: N_10  and  C_11
REMARK    4  A    between atoms: C_12  and  C_13
REMARK    5  A    between atoms: C_14  and  C_15
REMARK                            x       y       z     vdW  Elec       q    Type
REMARK                         _______ _______ _______ _____ _____    ______ ____
ROOT
ATOM      1  C   UNL A   1     -28.016  -0.814  28.878  0.00  0.00    +0.017 A 
ATOM      2  C   UNL A   1     -27.064  -0.119  28.608  0.00  0.00    +0.070 A 
ATOM      3  C   UNL A   1     -26.972   0.714  27.506  0.00  0.00    +0.017 A 
ATOM      4  C   UNL A   1     -28.105   0.774  26.642  0.00  0.00    +0.006 A 
ATOM      5  C   UNL A   1     -29.201   0.104  27.053  0.00  0.00    +0.057 A 
ATOM      6  C   UNL A   1     -29.210  -0.603  28.185  0.00  0.00    +0.006 A 
ENDROOT
BRANCH   5   7
ATOM      7  C   UNL A   1     -30.370   0.226  26.160  0.00  0.00    +0.284 C 
ATOM      8  N   UNL A   1     -30.299   0.234  24.938  0.00  0.00    -0.084 NA
ATOM      9  O   UNL A   1     -31.446  -0.278  26.694  0.00  0.00    -0.267 OA
ENDBRANCH   5   7
BRANCH   2  10
ATOM     10  N   UNL A   1     -25.787  -0.208  29.381  0.00  0.00    -0.211 NA
BRANCH  10  11
ATOM     11  C   UNL A   1     -24.613  -0.374  28.873  0.00  0.00    +0.086 C 
ATOM     12  C   UNL A   1     -23.805   0.242  28.406  0.00  0.00    +0.018 C 
BRANCH  12  13
ATOM     13  C   UNL A   1     -23.798   1.663  28.059  0.00  0.00    +0.001 C 
ATOM     14  C   UNL A   1     -22.676   2.298  27.464  0.00  0.00    +0.000 C 
BRANCH  14  15
ATOM     15  C   UNL A   1     -21.434   1.623  27.583  0.00  0.00    +0.000 C 
ATOM     16  C   UNL A   1     -21.255   0.409  28.174  0.00  0.00    +0.000 C 
ENDBRANCH  14  15
ENDBRANCH  12  13
ENDBRANCH  10  11
ENDBRANCH   2  10
TORSDOF 5
