MODEL 3797
MODEL 1
REMARK VINA RESULT:    -5.206      0.000      0.000
REMARK INTER + INTRA:          -7.691
REMARK INTER:                  -6.727
REMARK INTRA:                  -0.964
REMARK UNBOUND:                -0.964
REMARK  Name = No_3797-gen_results/8p0m/2024-11-26-14-13-15/
REMARK  5 active torsions:
REMARK  status: ('A' for Active; 'I' for Inactive)
REMARK    1  A    between atoms: C_2  and  N_10
REMARK    2  A    between atoms: C_5  and  C_7
REMARK    3  A    between atoms: N_10  and  C_11
REMARK    4  A    between atoms: C_12  and  C_13
REMARK    5  A    between atoms: C_14  and  C_15
REMARK                            x       y       z     vdW  Elec       q    Type
REMARK                         _______ _______ _______ _____ _____    ______ ____
ROOT
ATOM      1  C   UNL A   1     -23.138  -0.935  29.035  0.00  0.00    +0.017 A 
ATOM      2  C   UNL A   1     -24.068  -0.201  29.276  0.00  0.00    +0.070 A 
ATOM      3  C   UNL A   1     -25.391  -0.596  29.372  0.00  0.00    +0.017 A 
ATOM      4  C   UNL A   1     -25.668  -1.985  29.201  0.00  0.00    +0.006 A 
ATOM      5  C   UNL A   1     -24.595  -2.793  29.084  0.00  0.00    +0.057 A 
ATOM      6  C   UNL A   1     -23.349  -2.314  29.091  0.00  0.00    +0.006 A 
ENDROOT
BRANCH   5   7
ATOM      7  C   UNL A   1     -24.914  -4.229  28.956  0.00  0.00    +0.284 C 
ATOM      8  N   UNL A   1     -24.077  -5.101  28.763  0.00  0.00    -0.084 NA
ATOM      9  O   UNL A   1     -25.972  -4.555  29.643  0.00  0.00    -0.267 OA
ENDBRANCH   5   7
BRANCH   2  10
ATOM     10  N   UNL A   1     -23.895   1.283  29.347  0.00  0.00    -0.211 NA
BRANCH  10  11
ATOM     11  C   UNL A   1     -24.529   2.147  28.628  0.00  0.00    +0.086 C 
ATOM     12  C   UNL A   1     -24.539   2.516  27.573  0.00  0.00    +0.018 C 
BRANCH  12  13
ATOM     13  C   UNL A   1     -23.653   2.181  26.459  0.00  0.00    +0.001 C 
ATOM     14  C   UNL A   1     -24.035   1.292  25.419  0.00  0.00    +0.000 C 
BRANCH  14  15
ATOM     15  C   UNL A   1     -25.132   0.435  25.696  0.00  0.00    +0.000 C 
ATOM     16  C   UNL A   1     -25.626  -0.505  24.843  0.00  0.00    +0.000 C 
ENDBRANCH  14  15
ENDBRANCH  12  13
ENDBRANCH  10  11
ENDBRANCH   2  10
TORSDOF 5
ENDMDL
ENDMDL
