MODEL 3798
MODEL 1
REMARK VINA RESULT:    -8.039      0.000      0.000
REMARK INTER + INTRA:         -11.850
REMARK INTER:                 -11.329
REMARK INTRA:                  -0.522
REMARK UNBOUND:                -0.522
REMARK  Name = No_3798-gen_results/8p0m/2024-11-26-14-13-15/
REMARK  7 active torsions:
REMARK  status: ('A' for Active; 'I' for Inactive)
REMARK    1  A    between atoms: C_2  and  C_11
REMARK    2  A    between atoms: C_3  and  C_4
REMARK    3  A    between atoms: C_6  and  C_14
REMARK    4  A    between atoms: C_7  and  O_22
REMARK    5  A    between atoms: C_7  and  O_31
REMARK    6  A    between atoms: C_14  and  C_15
REMARK    7  A    between atoms: O_22  and  C_23
REMARK                            x       y       z     vdW  Elec       q    Type
REMARK                         _______ _______ _______ _____ _____    ______ ____
ROOT
ATOM      1  C   UNL A   1     -10.162   1.056  34.375  0.00  0.00    +0.024 C 
ATOM      2  C   UNL A   1     -11.177   1.288  34.217  0.00  0.00    +0.104 C 
ATOM      3  C   UNL A   1      -9.723   1.260  35.755  0.00  0.00    +0.136 C 
ATOM      4  C   UNL A   1     -12.266   1.770  35.055  0.00  0.00    +0.017 C 
ATOM      5  C   UNL A   1     -11.887   1.987  36.364  0.00  0.00    +0.065 C 
ATOM      6  C   UNL A   1     -10.634   1.690  36.754  0.00  0.00    +0.234 C 
ENDROOT
BRANCH   3   7
ATOM      7  C   UNL A   1      -8.373   0.906  36.248  0.00  0.00    +0.315 C 
ATOM      8  F   UNL A   1      -8.257  -0.338  36.280  0.00  0.00    -0.192 F 
ATOM      9 BR   UNL A   1      -6.989   1.722  35.262  0.00  0.00    -0.010 Br
ATOM     10  F   UNL A   1      -8.217   1.288  37.580  0.00  0.00    -0.192 F 
ENDBRANCH   3   7
BRANCH   2  11
ATOM     11  C   UNL A   1     -11.777   1.016  32.718  0.00  0.00    +0.364 C 
ATOM     12  O   UNL A   1     -12.955   1.462  32.487  0.00  0.00    -0.246 OA
ATOM     13  O   UNL A   1     -11.032   0.670  31.862  0.00  0.00    -0.246 OA
ENDBRANCH   2  11
BRANCH   6  14
ATOM     14  O   UNL A   1     -10.100   3.085  36.666  0.00  0.00    -0.322 OA
ATOM     15  C   UNL A   1      -9.889   4.081  36.775  0.00  0.00    +0.178 C 
ENDBRANCH   6  14
BRANCH   5  16
ATOM     16  C   UNL A   1     -12.850   2.473  37.377  0.00  0.00    +0.015 C 
BRANCH  16  17
ATOM     17  C   UNL A   1     -13.926   2.887  37.063  0.00  0.00    +0.072 C 
ATOM     18  C   UNL A   1     -14.563   3.339  36.246  0.00  0.00    -0.022 C 
ATOM     19  C   UNL A   1     -16.011   3.686  36.051  0.00  0.00    -0.004 C 
ATOM     20  C   UNL A   1     -16.582   3.817  37.286  0.00  0.00    +0.011 C 
ATOM     21  C   UNL A   1     -15.960   3.438  38.448  0.00  0.00    +0.079 C 
ATOM     22  C   UNL A   1     -14.735   3.000  38.385  0.00  0.00    +0.231 C 
ATOM     23 CL   UNL A   1     -15.136   3.990  38.961  0.00  0.00    -0.075 Cl
ATOM     24 CL   UNL A   1     -17.279   2.781  39.417  0.00  0.00    -0.083 Cl
ATOM     25  F   UNL A   1     -14.417   2.429  37.612  0.00  0.00    -0.218 F 
ENDBRANCH  16  17
ENDBRANCH   5  16
BRANCH   6  26
ATOM     26  O   UNL A   1     -10.211   0.791  37.896  0.00  0.00    -0.458 OA
BRANCH  26  27
ATOM     27  C   UNL A   1     -11.119  -0.285  38.011  0.00  0.00    +0.141 A 
ATOM     28  C   UNL A   1     -11.722  -0.303  39.319  0.00  0.00    +0.037 A 
ATOM     29  C   UNL A   1     -11.174  -1.521  37.398  0.00  0.00    +0.037 A 
ATOM     30  C   UNL A   1     -11.752  -2.643  37.978  0.00  0.00    +0.003 A 
ATOM     31  C   UNL A   1     -12.137  -1.484  39.993  0.00  0.00    +0.003 A 
ATOM     32  C   UNL A   1     -12.155  -2.633  39.239  0.00  0.00    +0.000 A 
ENDBRANCH  26  27
ENDBRANCH   6  26
TORSDOF 7
ENDMDL
ENDMDL
