REMARK  Name = No_3798-gen_results/8p0m/2024-11-26-14-13-15/
REMARK  7 active torsions:
REMARK  status: ('A' for Active; 'I' for Inactive)
REMARK    1  A    between atoms: C_2  and  C_11
REMARK    2  A    between atoms: C_3  and  C_4
REMARK    3  A    between atoms: C_6  and  C_14
REMARK    4  A    between atoms: C_7  and  O_22
REMARK    5  A    between atoms: C_7  and  O_31
REMARK    6  A    between atoms: C_14  and  C_15
REMARK    7  A    between atoms: O_22  and  C_23
REMARK                            x       y       z     vdW  Elec       q    Type
REMARK                         _______ _______ _______ _____ _____    ______ ____
ROOT
ATOM      1  C   UNL A   1     -28.016  -0.814  28.878  0.00  0.00    +0.024 C 
ATOM      2  C   UNL A   1     -28.469  -0.785  29.829  0.00  0.00    +0.104 C 
ATOM      3  C   UNL A   1     -27.087   0.290  28.638  0.00  0.00    +0.136 C 
ATOM      4  C   UNL A   1     -28.391   0.104  30.980  0.00  0.00    +0.017 C 
ATOM      5  C   UNL A   1     -27.533   1.167  30.787  0.00  0.00    +0.065 C 
ATOM      6  C   UNL A   1     -26.828   1.256  29.645  0.00  0.00    +0.234 C 
ENDROOT
BRANCH   3   7
ATOM      7  C   UNL A   1     -26.252   0.411  27.422  0.00  0.00    +0.315 C 
ATOM      8  F   UNL A   1     -26.110   1.619  27.137  0.00  0.00    -0.192 F 
ATOM      9 BR   UNL A   1     -24.599  -0.483  27.569  0.00  0.00    -0.010 Br
ATOM     10  F   UNL A   1     -26.914  -0.116  26.314  0.00  0.00    -0.192 F 
ENDBRANCH   3   7
BRANCH   2  11
ATOM     11  C   UNL A   1     -29.466  -2.024  30.215  0.00  0.00    +0.364 C 
ATOM     12  O   UNL A   1     -29.914  -2.042  31.415  0.00  0.00    -0.246 OA
ATOM     13  O   UNL A   1     -29.926  -2.678  29.338  0.00  0.00    -0.246 OA
ENDBRANCH   2  11
BRANCH   6  14
ATOM     14  O   UNL A   1     -27.736   2.233  28.967  0.00  0.00    -0.322 OA
ATOM     15  C   UNL A   1     -28.453   2.709  28.413  0.00  0.00    +0.178 C 
ENDBRANCH   6  14
BRANCH   5  16
ATOM     16  C   UNL A   1     -27.310   2.181  31.841  0.00  0.00    +0.015 C 
BRANCH  16  17
ATOM     17  C   UNL A   1     -26.555   3.092  31.677  0.00  0.00    +0.072 C 
ATOM     18  C   UNL A   1     -26.138   4.059  32.087  0.00  0.00    -0.022 C 
ATOM     19  C   UNL A   1     -25.042   5.021  31.725  0.00  0.00    -0.004 C 
ATOM     20  C   UNL A   1     -24.756   4.853  30.399  0.00  0.00    +0.011 C 
ATOM     21  C   UNL A   1     -25.235   3.809  29.651  0.00  0.00    +0.079 C 
ATOM     22  C   UNL A   1     -26.064   2.972  30.207  0.00  0.00    +0.231 C 
ATOM     23 CL   UNL A   1     -26.277   3.703  29.262  0.00  0.00    -0.075 Cl
ATOM     24 CL   UNL A   1     -23.884   3.421  28.586  0.00  0.00    -0.083 Cl
ATOM     25  F   UNL A   1     -25.967   2.696  31.176  0.00  0.00    -0.218 F 
ENDBRANCH  16  17
ENDBRANCH   5  16
BRANCH   6  26
ATOM     26  O   UNL A   1     -25.327   1.391  29.494  0.00  0.00    -0.458 OA
BRANCH  26  27
ATOM     27  C   UNL A   1     -24.693   0.959  30.680  0.00  0.00    +0.141 A 
ATOM     28  C   UNL A   1     -23.265   0.908  30.503  0.00  0.00    +0.037 A 
ATOM     29  C   UNL A   1     -25.116   0.148  31.714  0.00  0.00    +0.037 A 
ATOM     30  C   UNL A   1     -24.257  -0.617  32.493  0.00  0.00    +0.003 A 
ATOM     31  C   UNL A   1     -22.408  -0.015  31.163  0.00  0.00    +0.003 A 
ATOM     32  C   UNL A   1     -22.975  -0.737  32.186  0.00  0.00    +0.000 A 
ENDBRANCH  26  27
ENDBRANCH   6  26
TORSDOF 7
