REMARK  Name = No_3799-gen_results/8p0m/2024-11-26-14-13-15/
REMARK  6 active torsions:
REMARK  status: ('A' for Active; 'I' for Inactive)
REMARK    1  A    between atoms: C_1  and  C_2
REMARK    2  A    between atoms: C_4  and  C_21
REMARK    3  A    between atoms: C_5  and  C_10
REMARK    4  A    between atoms: C_9  and  O_19
REMARK    5  A    between atoms: O_19  and  C_20
REMARK    6  A    between atoms: C_20  and  C_24
REMARK                            x       y       z     vdW  Elec       q    Type
REMARK                         _______ _______ _______ _____ _____    ______ ____
ROOT
ATOM      1  C   UNL A   1     -27.064  -0.119  28.608  0.00  0.00    +0.000 A 
ATOM      2  C   UNL A   1     -26.876   1.133  28.913  0.00  0.00    +0.007 A 
ATOM      3  C   UNL A   1     -25.688   1.952  28.567  0.00  0.00    +0.081 A 
ATOM      4  C   UNL A   1     -24.639   1.283  27.875  0.00  0.00    +0.025 A 
ATOM      5  C   UNL A   1     -24.807  -0.051  27.604  0.00  0.00    +0.002 A 
ATOM      6  C   UNL A   1     -25.902  -0.767  27.951  0.00  0.00    +0.000 A 
ENDROOT
BRANCH   1   7
ATOM      7  C   UNL A   1     -28.016  -0.814  28.878  0.00  0.00    +0.003 A 
ATOM      8  C   UNL A   1     -29.212  -0.115  29.122  0.00  0.00    +0.037 A 
ATOM      9  C   UNL A   1     -30.351  -0.818  29.578  0.00  0.00    +0.144 A 
ATOM     10  C   UNL A   1     -30.189  -2.113  30.046  0.00  0.00    +0.037 A 
ATOM     11  C   UNL A   1     -28.962  -2.746  30.131  0.00  0.00    +0.003 A 
ATOM     12  C   UNL A   1     -27.864  -2.096  29.623  0.00  0.00    +0.000 A 
BRANCH   9  13
ATOM     13  O   UNL A   1     -31.566  -0.293  29.588  0.00  0.00    -0.424 OA
BRANCH  13  14
ATOM     14  C   UNL A   1     -32.234  -0.127  28.567  0.00  0.00    +0.500 C 
ATOM     15  F   UNL A   1     -33.490   0.279  29.029  0.00  0.00    -0.156 F 
ATOM     16  F   UNL A   1     -32.436  -1.392  28.047  0.00  0.00    -0.156 F 
BRANCH  14  17
ATOM     17  C   UNL A   1     -31.840   0.701  27.606  0.00  0.00    +0.497 C 
ATOM     18  F   UNL A   1     -31.931   1.889  27.964  0.00  0.00    -0.162 F 
ATOM     19  F   UNL A   1     -30.547   0.470  27.319  0.00  0.00    -0.162 F 
ATOM     20  F   UNL A   1     -32.651   0.639  26.490  0.00  0.00    -0.162 F 
ENDBRANCH  14  17
ENDBRANCH  13  14
ENDBRANCH   9  13
ENDBRANCH   1   7
BRANCH   4  21
ATOM     21  C   UNL A   1     -23.338   1.759  27.616  0.00  0.00    +0.124 C 
ATOM     22  N   UNL A   1     -22.957   2.603  26.877  0.00  0.00    -0.130 NA
ATOM     23  C   UNL A   1     -22.205   1.280  28.510  0.00  0.00    +0.258 C 
ATOM     24  N   UNL A   1     -20.980   1.655  28.007  0.00  0.00    -0.131 NA
ATOM     25  N   UNL A   1     -22.334   0.420  29.455  0.00  0.00    -0.097 NA
ATOM     26  N   UNL A   1     -21.542   2.413  26.809  0.00  0.00    -0.045 NA
ENDBRANCH   4  21
BRANCH   3  27
ATOM     27  C   UNL A   1     -25.531   3.332  28.920  0.00  0.00    +0.388 C 
ATOM     28  O   UNL A   1     -25.897   4.200  28.129  0.00  0.00    -0.241 OA
ATOM     29  O   UNL A   1     -25.089   3.602  30.155  0.00  0.00    -0.241 OA
ENDBRANCH   3  27
TORSDOF 6
