MODEL 379
MODEL 1
REMARK VINA RESULT:    -7.757      0.000      0.000
REMARK INTER + INTRA:         -10.621
REMARK INTER:                  -9.570
REMARK INTRA:                  -1.050
REMARK UNBOUND:                -1.050
REMARK  Name = No_379-gen_results/8p0m/2024-11-26-14-13-15/
REMARK  4 active torsions:
REMARK  status: ('A' for Active; 'I' for Inactive)
REMARK    1  A    between atoms: C_2  and  N_7
REMARK    2  A    between atoms: N_7  and  C_8
REMARK    3  A    between atoms: N_7  and  C_14
REMARK    4  A    between atoms: C_14  and  C_15
REMARK                            x       y       z     vdW  Elec       q    Type
REMARK                         _______ _______ _______ _____ _____    ______ ____
ROOT
ATOM      1  N   UNL A   1     -24.592  -1.342  29.702  0.00  0.00    -0.282 N 
ENDROOT
BRANCH   1   3
ATOM      2  C   UNL A   1     -23.970  -3.395  28.868  0.00  0.00    +0.015 A 
ATOM      3  C   UNL A   1     -24.793  -2.719  29.440  0.00  0.00    +0.052 A 
ATOM      4  C   UNL A   1     -25.982  -3.193  29.894  0.00  0.00    +0.015 A 
ATOM      5  C   UNL A   1     -26.280  -4.554  29.689  0.00  0.00    +0.001 A 
ATOM      6  C   UNL A   1     -24.168  -4.814  28.709  0.00  0.00    +0.001 A 
ATOM      7  C   UNL A   1     -25.358  -5.334  29.122  0.00  0.00    +0.000 A 
ENDBRANCH   1   3
BRANCH   1   8
ATOM      8  C   UNL A   1     -24.712  -0.945  31.024  0.00  0.00    +0.052 A 
ATOM      9  C   UNL A   1     -25.691  -0.289  31.504  0.00  0.00    +0.015 A 
ATOM     10  C   UNL A   1     -25.803   0.015  32.862  0.00  0.00    +0.001 A 
ATOM     11  C   UNL A   1     -23.753  -1.386  31.877  0.00  0.00    +0.015 A 
ATOM     12  C   UNL A   1     -23.802  -1.140  33.282  0.00  0.00    +0.001 A 
ATOM     13  C   UNL A   1     -24.866  -0.471  33.740  0.00  0.00    +0.000 A 
ENDBRANCH   1   8
BRANCH   1  14
ATOM     14  C   UNL A   1     -24.553  -0.441  28.634  0.00  0.00    +0.122 C 
BRANCH  14  15
ATOM     15  C   UNL A   1     -23.354   0.231  28.340  0.00  0.00    -0.002 A 
ATOM     16  C   UNL A   1     -23.213   1.334  27.732  0.00  0.00    -0.003 A 
ATOM     17  C   UNL A   1     -22.008   1.882  27.340  0.00  0.00    -0.000 A 
ATOM     18  C   UNL A   1     -20.861   1.167  27.742  0.00  0.00    -0.000 A 
ATOM     19  C   UNL A   1     -21.984  -0.327  28.810  0.00  0.00    -0.003 A 
ATOM     20  C   UNL A   1     -20.880   0.093  28.490  0.00  0.00    -0.000 A 
ENDBRANCH  14  15
ENDBRANCH   1  14
TORSDOF 4
ENDMDL
ENDMDL
