MODEL 37
MODEL 1
REMARK VINA RESULT:    -8.327      0.000      0.000
REMARK INTER + INTRA:         -10.773
REMARK INTER:                  -9.788
REMARK INTRA:                  -0.985
REMARK UNBOUND:                -0.985
REMARK  Name = No_37-gen_results/8p0m/2024-11-26-14-13-15/
REMARK  3 active torsions:
REMARK  status: ('A' for Active; 'I' for Inactive)
REMARK    1  A    between atoms: C_3  and  C_11
REMARK    2  A    between atoms: C_11  and  C_12
REMARK    3  A    between atoms: C_16  and  C_18
REMARK                            x       y       z     vdW  Elec       q    Type
REMARK                         _______ _______ _______ _____ _____    ______ ____
ROOT
ATOM      1  C   UNL A   1     -25.921  -0.640  30.293  0.00  0.00    -0.004 A 
ATOM      2  C   UNL A   1     -26.754  -1.187  30.637  0.00  0.00    -0.000 A 
ATOM      3  C   UNL A   1     -24.829  -1.416  29.683  0.00  0.00    -0.018 A 
ATOM      4  C   UNL A   1     -24.976  -2.815  29.452  0.00  0.00    -0.004 A 
ATOM      5  C   UNL A   1     -26.143  -3.380  29.900  0.00  0.00    -0.000 A 
ATOM      6  C   UNL A   1     -27.102  -2.624  30.477  0.00  0.00    -0.000 A 
ATOM      7  C   UNL A   1     -23.926  -3.588  28.840  0.00  0.00    -0.000 A 
ATOM      8  C   UNL A   1     -23.968  -4.544  28.493  0.00  0.00    -0.000 A 
ATOM      9  C   UNL A   1     -25.102  -5.408  28.926  0.00  0.00    -0.000 A 
ATOM     10  C   UNL A   1     -26.196  -4.787  29.629  0.00  0.00    -0.000 A 
ENDROOT
BRANCH   3  11
ATOM     11  C   UNL A   1     -23.572  -0.679  29.454  0.00  0.00    +0.053 C 
BRANCH  11  12
ATOM     12  C   UNL A   1     -23.453   0.052  28.209  0.00  0.00    -0.018 A 
ATOM     13  C   UNL A   1     -22.527   1.047  28.123  0.00  0.00    -0.004 A 
ATOM     14  C   UNL A   1     -22.394   1.855  26.953  0.00  0.00    -0.000 A 
ATOM     15  C   UNL A   1     -23.421   1.757  25.984  0.00  0.00    -0.000 A 
ATOM     16  C   UNL A   1     -24.429   0.817  26.121  0.00  0.00    -0.001 A 
ATOM     17  C   UNL A   1     -24.529  -0.001  27.282  0.00  0.00    -0.004 A 
BRANCH  16  18
ATOM     18  C   UNL A   1     -25.505   0.862  25.064  0.00  0.00    -0.005 C 
ATOM     19  C   UNL A   1     -26.457   0.058  25.211  0.00  0.00    -0.026 C 
ATOM     20  C   UNL A   1     -27.562   0.059  24.254  0.00  0.00    +0.031 C 
ENDBRANCH  16  18
ENDBRANCH  11  12
ENDBRANCH   3  11
TORSDOF 3
ENDMDL
ENDMDL
