REMARK  Name = No_38-gen_results/8p0m/2024-11-26-14-13-15/
REMARK  1 active torsions:
REMARK  status: ('A' for Active; 'I' for Inactive)
REMARK    1  A    between atoms: C_3  and  C_4
REMARK                            x       y       z     vdW  Elec       q    Type
REMARK                         _______ _______ _______ _____ _____    ______ ____
ROOT
ATOM      1  C   UNL A   1     -28.016  -0.814  28.878  0.00  0.00    +0.000 A 
ATOM      2  C   UNL A   1     -27.064  -0.119  28.608  0.00  0.00    +0.000 A 
ATOM      3  C   UNL A   1     -26.876   1.133  28.913  0.00  0.00    +0.000 A 
ATOM      4  C   UNL A   1     -29.092  -0.229  29.691  0.00  0.00    +0.000 A 
ATOM      5  C   UNL A   1     -29.037   1.064  30.041  0.00  0.00    +0.000 A 
ATOM      6  C   UNL A   1     -27.903   1.803  29.686  0.00  0.00    +0.000 A 
ENDROOT
BRANCH   3   7
ATOM      7  C   UNL A   1     -25.688   1.952  28.567  0.00  0.00    +0.000 A 
ATOM      8  C   UNL A   1     -24.639   1.283  27.875  0.00  0.00    +0.000 A 
ATOM      9  C   UNL A   1     -23.456   2.000  27.565  0.00  0.00    +0.000 A 
ATOM     10  C   UNL A   1     -25.512   3.317  28.820  0.00  0.00    +0.000 A 
ATOM     11  C   UNL A   1     -24.410   4.072  28.312  0.00  0.00    +0.000 A 
ATOM     12  C   UNL A   1     -23.363   3.349  27.712  0.00  0.00    +0.000 A 
ENDBRANCH   3   7
TORSDOF 1
