REMARK  Name = No_380-gen_results/8p0m/2024-11-26-14-13-15/
REMARK  4 active torsions:
REMARK  status: ('A' for Active; 'I' for Inactive)
REMARK    1  A    between atoms: C_1  and  C_2
REMARK    2  A    between atoms: C_5  and  C_11
REMARK    3  A    between atoms: C_10  and  C_15
REMARK    4  A    between atoms: C_18  and  C_21
REMARK                            x       y       z     vdW  Elec       q    Type
REMARK                         _______ _______ _______ _____ _____    ______ ____
ROOT
ATOM      1  C   UNL A   1     -28.016  -0.814  28.878  0.00  0.00    +0.272 C 
ATOM      2  N   UNL A   1     -27.952  -1.752  29.938  0.00  0.00    -0.131 NA
ATOM      3  O   UNL A   1     -29.111  -0.749  28.335  0.00  0.00    -0.268 OA
ATOM      4  C   UNL A   1     -29.045  -2.607  30.400  0.00  0.00    +0.350 C 
ATOM      5  O   UNL A   1     -29.228  -3.559  29.682  0.00  0.00    -0.260 OA
ENDROOT
BRANCH   1   6
ATOM      6  C   UNL A   1     -27.064  -0.119  28.608  0.00  0.00    +0.056 A 
ATOM      7  C   UNL A   1     -25.792  -0.430  29.076  0.00  0.00    +0.004 A 
ATOM      8  C   UNL A   1     -24.546   0.349  28.823  0.00  0.00    +0.004 A 
ATOM      9  C   UNL A   1     -24.659   1.420  27.888  0.00  0.00    +0.071 A 
ATOM     10  C   UNL A   1     -25.947   1.681  27.379  0.00  0.00    +0.004 A 
ATOM     11  C   UNL A   1     -27.044   0.974  27.687  0.00  0.00    +0.004 A 
BRANCH   9  12
ATOM     12  C   UNL A   1     -23.463   2.170  27.603  0.00  0.00    +0.419 C 
ATOM     13  F   UNL A   1     -23.636   3.315  27.213  0.00  0.00    -0.166 F 
ATOM     14  F   UNL A   1     -22.656   1.534  26.632  0.00  0.00    -0.166 F 
ATOM     15  F   UNL A   1     -22.639   2.296  28.691  0.00  0.00    -0.166 F 
ENDBRANCH   9  12
ENDBRANCH   1   6
BRANCH   4  16
ATOM     16  C   UNL A   1     -29.510  -2.146  31.591  0.00  0.00    +0.393 C 
ATOM     17  O   UNL A   1     -28.970  -1.474  32.259  0.00  0.00    -0.236 OA
ATOM     18  N   UNL A   1     -30.606  -2.896  32.050  0.00  0.00    -0.125 N 
ATOM     19  C   UNL A   1     -31.274  -2.518  33.366  0.00  0.00    +0.383 C 
ATOM     20  C   UNL A   1     -31.323  -3.911  31.325  0.00  0.00    +0.262 C 
ATOM     21  N   UNL A   1     -30.776  -3.628  34.226  0.00  0.00    +0.194 NA
BRANCH  19  22
ATOM     22  C   UNL A   1     -31.968  -1.851  33.783  0.00  0.00    +0.087 A 
ATOM     23  C   UNL A   1     -32.688  -0.875  32.895  0.00  0.00    +0.007 A 
ATOM     24  C   UNL A   1     -33.535   0.046  33.423  0.00  0.00    +0.000 A 
ATOM     25  C   UNL A   1     -33.773  -0.004  34.809  0.00  0.00    +0.000 A 
ATOM     26  C   UNL A   1     -33.176  -0.842  35.656  0.00  0.00    +0.000 A 
ATOM     27  C   UNL A   1     -32.233  -1.729  35.214  0.00  0.00    +0.007 A 
ENDBRANCH  19  22
ENDBRANCH   4  16
TORSDOF 4
