MODEL 3800
MODEL 1
REMARK VINA RESULT:    -5.581      0.000      0.000
REMARK INTER + INTRA:          -5.972
REMARK INTER:                  -5.907
REMARK INTRA:                  -0.065
REMARK UNBOUND:                -0.065
REMARK  Name = No_3800-gen_results/8p0m/2024-11-26-14-13-15/
REMARK  1 active torsions:
REMARK  status: ('A' for Active; 'I' for Inactive)
REMARK    1  A    between atoms: C_2  and  C_3
REMARK                            x       y       z     vdW  Elec       q    Type
REMARK                         _______ _______ _______ _____ _____    ______ ____
ROOT
ATOM      1  C   UNL A   1      -9.800 -10.027  18.322  0.00  0.00    +0.041 A 
ATOM      2  C   UNL A   1     -10.335  -9.455  18.990  0.00  0.00    +0.001 A 
ATOM      3  C   UNL A   1      -9.834  -9.053  20.362  0.00  0.00    -0.000 A 
ATOM      4  C   UNL A   1      -8.510  -9.400  20.687  0.00  0.00    -0.000 A 
ATOM      5  C   UNL A   1      -7.769 -10.171  19.748  0.00  0.00    -0.000 A 
ATOM      6  C   UNL A   1      -8.365 -10.574  18.555  0.00  0.00    +0.001 A 
ENDROOT
BRANCH   1   8
ATOM      7  O   UNL A   1     -11.449 -10.492  16.857  0.00  0.00    -0.179 OA
ATOM      8  C   UNL A   1     -10.247 -10.455  17.141  0.00  0.00    +0.332 C 
ATOM      9  F   UNL A   1      -9.437 -10.762  16.033  0.00  0.00    -0.196 F 
ENDBRANCH   1   8
TORSDOF 1
ENDMDL
ENDMDL
