MODEL 3801
MODEL 1
REMARK VINA RESULT:    -6.935      0.000      0.000
REMARK INTER + INTRA:          -9.480
REMARK INTER:                  -8.556
REMARK INTRA:                  -0.924
REMARK UNBOUND:                -0.924
REMARK  Name = No_3801-gen_results/8p0m/2024-11-26-14-13-15/
REMARK  4 active torsions:
REMARK  status: ('A' for Active; 'I' for Inactive)
REMARK    1  A    between atoms: C_4  and  C_8
REMARK    2  A    between atoms: C_8  and  C_9
REMARK    3  A    between atoms: C_8  and  C_17
REMARK    4  A    between atoms: C_13  and  C_16
REMARK                            x       y       z     vdW  Elec       q    Type
REMARK                         _______ _______ _______ _____ _____    ______ ____
ROOT
ATOM      1  C   UNL A   1     -24.393   1.911  26.970  0.00  0.00    +0.070 C 
ENDROOT
BRANCH   1   5
ATOM      2  C   UNL A   1     -26.277  -0.173  24.343  0.00  0.00    +0.041 A 
ATOM      3  C   UNL A   1     -27.252  -0.011  24.709  0.00  0.00    +0.066 A 
ATOM      4  C   UNL A   1     -25.185   0.517  25.047  0.00  0.00    +0.137 A 
ATOM      5  C   UNL A   1     -25.441   1.245  26.245  0.00  0.00    +0.011 A 
ATOM      6  C   UNL A   1     -27.774   0.638  25.943  0.00  0.00    +0.045 A 
ATOM      7  C   UNL A   1     -26.791   1.298  26.618  0.00  0.00    +0.006 A 
ATOM      8 CL   UNL A   1     -28.609  -0.865  23.863  0.00  0.00    -0.082 Cl
ATOM      9  F   UNL A   1     -23.912   0.488  24.641  0.00  0.00    -0.204 F 
ATOM     10 BR   UNL A   1     -29.610   0.620  26.471  0.00  0.00    -0.048 Br
ENDBRANCH   1   5
BRANCH   1  11
ATOM     11  C   UNL A   1     -23.548   1.042  27.757  0.00  0.00    +0.029 A 
ATOM     12  C   UNL A   1     -22.354   1.104  27.991  0.00  0.00    +0.219 A 
ATOM     13  N   UNL A   1     -21.700   0.070  28.634  0.00  0.00    -0.217 NA
ATOM     14  C   UNL A   1     -24.214  -0.149  28.401  0.00  0.00    +0.005 A 
ATOM     15  C   UNL A   1     -23.674  -1.221  28.820  0.00  0.00    +0.090 A 
ATOM     16  C   UNL A   1     -22.226  -1.076  28.934  0.00  0.00    +0.105 A 
ATOM     17  F   UNL A   1     -21.539   2.061  27.614  0.00  0.00    -0.183 F 
BRANCH  15  18
ATOM     18  C   UNL A   1     -24.266  -2.437  29.261  0.00  0.00    +0.420 C 
ATOM     19  F   UNL A   1     -24.463  -2.681  30.325  0.00  0.00    -0.166 F 
ATOM     20  F   UNL A   1     -23.388  -3.481  28.704  0.00  0.00    -0.166 F 
ATOM     21  F   UNL A   1     -25.507  -2.539  28.631  0.00  0.00    -0.166 F 
ENDBRANCH  15  18
ENDBRANCH   1  11
BRANCH   1  22
ATOM     22  C   UNL A   1     -24.253   3.286  26.761  0.00  0.00    +0.118 C 
ATOM     23  N   UNL A   1     -24.652   4.043  27.787  0.00  0.00    -0.131 NA
ENDBRANCH   1  22
TORSDOF 4
ENDMDL
ENDMDL
