REMARK  Name = No_3802-gen_results/8p0m/2024-11-26-14-13-15/
REMARK  1 active torsions:
REMARK  status: ('A' for Active; 'I' for Inactive)
REMARK    1  A    between atoms: C_3  and  C_11
REMARK                            x       y       z     vdW  Elec       q    Type
REMARK                         _______ _______ _______ _____ _____    ______ ____
ROOT
ATOM      1  C   UNL A   1     -28.016  -0.814  28.878  0.00  0.00    +0.000 A 
ATOM      2  C   UNL A   1     -27.064  -0.119  28.608  0.00  0.00    +0.000 A 
ATOM      3  C   UNL A   1     -26.972   0.714  27.506  0.00  0.00    +0.000 A 
ATOM      4  C   UNL A   1     -25.820   1.491  27.116  0.00  0.00    +0.000 A 
ATOM      5  C   UNL A   1     -24.656   1.424  27.918  0.00  0.00    +0.000 A 
ATOM      6  C   UNL A   1     -24.711   0.542  29.051  0.00  0.00    +0.000 A 
ATOM      7  C   UNL A   1     -25.804  -0.206  29.388  0.00  0.00    +0.000 A 
ATOM      8  C   UNL A   1     -28.067  -1.538  30.191  0.00  0.00    +0.000 A 
ATOM      9  C   UNL A   1     -26.838  -1.768  30.877  0.00  0.00    +0.000 A 
ATOM     10  C   UNL A   1     -25.741  -1.030  30.554  0.00  0.00    +0.000 A 
ENDROOT
BRANCH   3  11
ATOM     11  C   UNL A   1     -28.079   0.847  26.526  0.00  0.00    +0.000 A 
ATOM     12  C   UNL A   1     -27.985   1.196  25.279  0.00  0.00    +0.000 A 
ATOM     13  C   UNL A   1     -29.120   1.246  24.499  0.00  0.00    +0.000 A 
ATOM     14  C   UNL A   1     -30.320   0.759  24.921  0.00  0.00    +0.000 A 
ATOM     15  C   UNL A   1     -30.404   0.295  26.215  0.00  0.00    +0.000 A 
ATOM     16  C   UNL A   1     -29.375   0.351  27.043  0.00  0.00    +0.000 A 
ENDBRANCH   3  11
TORSDOF 1
