MODEL 3803
MODEL 1
REMARK VINA RESULT:    -7.817      0.000      0.000
REMARK INTER + INTRA:         -13.549
REMARK INTER:                 -11.930
REMARK INTRA:                  -1.619
REMARK UNBOUND:                -1.619
REMARK  Name = No_3803-gen_results/8p0m/2024-11-26-14-13-15/
REMARK  9 active torsions:
REMARK  status: ('A' for Active; 'I' for Inactive)
REMARK    1  A    between atoms: C_2  and  C_3
REMARK    2  A    between atoms: C_3  and  N_11
REMARK    3  A    between atoms: C_3  and  C_28
REMARK    4  A    between atoms: N_4  and  C_5
REMARK    5  A    between atoms: C_9  and  C_25
REMARK    6  A    between atoms: N_11  and  C_12
REMARK    7  A    between atoms: C_13  and  C_14
REMARK    8  A    between atoms: C_15  and  C_16
REMARK    9  A    between atoms: C_17  and  C_18
REMARK                            x       y       z     vdW  Elec       q    Type
REMARK                         _______ _______ _______ _____ _____    ______ ____
ROOT
ATOM      1  C   UNL A   1     -25.956   0.891  25.564  0.00  0.00    +0.237 C 
ENDROOT
BRANCH   1   3
ATOM      2  O   UNL A   1     -28.023   0.696  26.142  0.00  0.00    -0.271 OA
ATOM      3  C   UNL A   1     -27.203   1.161  25.487  0.00  0.00    +0.271 C 
ATOM      4  N   UNL A   1     -27.689   2.157  24.504  0.00  0.00    -0.178 NA
BRANCH   4   5
ATOM      5  C   UNL A   1     -28.889   2.714  24.472  0.00  0.00    +0.073 A 
ATOM      6  C   UNL A   1     -29.347   3.564  24.914  0.00  0.00    +0.017 A 
ATOM      7  C   UNL A   1     -30.757   4.187  24.754  0.00  0.00    +0.001 A 
ATOM      8  C   UNL A   1     -31.551   3.535  23.801  0.00  0.00    -0.004 A 
ATOM      9  C   UNL A   1     -30.936   2.474  23.053  0.00  0.00    -0.021 A 
ATOM     10  C   UNL A   1     -29.662   2.024  23.327  0.00  0.00    +0.012 A 
BRANCH   9  11
ATOM     11  C   UNL A   1     -31.798   1.821  22.035  0.00  0.00    +0.022 C 
ATOM     12  C   UNL A   1     -32.161   2.383  20.825  0.00  0.00    +0.005 C 
ATOM     13  C   UNL A   1     -32.333   0.536  22.296  0.00  0.00    +0.005 C 
ENDBRANCH   9  11
ENDBRANCH   4   5
ENDBRANCH   1   3
BRANCH   1  14
ATOM     14  C   UNL A   1     -25.613  -0.556  25.132  0.00  0.00    +0.347 C 
ATOM     15  F   UNL A   1     -26.378  -1.008  24.424  0.00  0.00    -0.196 F 
ATOM     16  F   UNL A   1     -25.425  -1.288  26.269  0.00  0.00    -0.196 F 
ENDBRANCH   1  14
BRANCH   1  17
ATOM     17  N   UNL A   1     -25.088   1.756  25.815  0.00  0.00    -0.223 NA
BRANCH  17  18
ATOM     18  C   UNL A   1     -24.409   1.755  26.786  0.00  0.00    +0.080 C 
ATOM     19  C   UNL A   1     -23.371   1.233  26.990  0.00  0.00    +0.013 C 
BRANCH  19  20
ATOM     20  C   UNL A   1     -22.546   1.086  27.645  0.00  0.00    -0.021 C 
ATOM     21  C   UNL A   1     -22.359   0.296  28.921  0.00  0.00    -0.004 C 
ATOM     22  C   UNL A   1     -21.175   1.824  27.388  0.00  0.00    +0.031 C 
BRANCH  21  23
ATOM     23  C   UNL A   1     -23.394  -0.631  29.102  0.00  0.00    -0.000 C 
ATOM     24  C   UNL A   1     -23.133  -1.882  29.153  0.00  0.00    -0.000 C 
BRANCH  24  25
ATOM     25  C   UNL A   1     -24.194  -2.891  29.381  0.00  0.00    -0.000 A 
ATOM     26  C   UNL A   1     -24.170  -4.231  28.947  0.00  0.00    -0.000 A 
ATOM     27  C   UNL A   1     -25.233  -5.078  29.029  0.00  0.00    +0.000 A 
ATOM     28  C   UNL A   1     -26.479  -4.612  29.566  0.00  0.00    +0.000 A 
ATOM     29  C   UNL A   1     -26.556  -3.279  29.979  0.00  0.00    +0.000 A 
ATOM     30  C   UNL A   1     -25.452  -2.454  29.871  0.00  0.00    -0.000 A 
ENDBRANCH  24  25
ENDBRANCH  21  23
ENDBRANCH  19  20
ENDBRANCH  17  18
ENDBRANCH   1  17
TORSDOF 9
ENDMDL
ENDMDL
