REMARK  Name = No_3803-gen_results/8p0m/2024-11-26-14-13-15/
REMARK  9 active torsions:
REMARK  status: ('A' for Active; 'I' for Inactive)
REMARK    1  A    between atoms: C_2  and  C_3
REMARK    2  A    between atoms: C_3  and  N_11
REMARK    3  A    between atoms: C_3  and  C_28
REMARK    4  A    between atoms: N_4  and  C_5
REMARK    5  A    between atoms: C_9  and  C_25
REMARK    6  A    between atoms: N_11  and  C_12
REMARK    7  A    between atoms: C_13  and  C_14
REMARK    8  A    between atoms: C_15  and  C_16
REMARK    9  A    between atoms: C_17  and  C_18
REMARK                            x       y       z     vdW  Elec       q    Type
REMARK                         _______ _______ _______ _____ _____    ______ ____
ROOT
ATOM      1  C   UNL A   1     -29.698   0.051  28.976  0.00  0.00    +0.237 C 
ENDROOT
BRANCH   1   3
ATOM      2  O   UNL A   1     -28.123  -1.335  28.487  0.00  0.00    -0.271 OA
ATOM      3  C   UNL A   1     -28.521  -0.436  29.078  0.00  0.00    +0.271 C 
ATOM      4  N   UNL A   1     -27.541   0.176  30.005  0.00  0.00    -0.178 NA
BRANCH   4   5
ATOM      5  C   UNL A   1     -26.238  -0.053  30.040  0.00  0.00    +0.073 A 
ATOM      6  C   UNL A   1     -25.591  -0.700  30.579  0.00  0.00    +0.017 A 
ATOM      7  C   UNL A   1     -24.065  -0.953  30.495  0.00  0.00    +0.001 A 
ATOM      8  C   UNL A   1     -23.435  -0.231  29.472  0.00  0.00    -0.004 A 
ATOM      9  C   UNL A   1     -24.277   0.544  28.604  0.00  0.00    -0.021 A 
ATOM     10  C   UNL A   1     -25.632   0.678  28.822  0.00  0.00    +0.012 A 
BRANCH   9  11
ATOM     11  C   UNL A   1     -23.580   1.276  27.517  0.00  0.00    +0.022 C 
ATOM     12  C   UNL A   1     -22.274   1.728  27.575  0.00  0.00    +0.005 C 
ATOM     13  C   UNL A   1     -24.278   1.581  26.323  0.00  0.00    +0.005 C 
ENDBRANCH   9  11
ENDBRANCH   4   5
ENDBRANCH   1   3
BRANCH   1  14
ATOM     14  C   UNL A   1     -29.797   1.208  27.951  0.00  0.00    +0.347 C 
ATOM     15  F   UNL A   1     -30.289   0.903  26.974  0.00  0.00    -0.196 F 
ATOM     16  F   UNL A   1     -28.542   1.721  27.793  0.00  0.00    -0.196 F 
ENDBRANCH   1  14
BRANCH   1  17
ATOM     17  N   UNL A   1     -30.695  -0.459  29.533  0.00  0.00    -0.223 NA
BRANCH  17  18
ATOM     18  C   UNL A   1     -30.634  -1.289  30.377  0.00  0.00    +0.080 C 
ATOM     19  C   UNL A   1     -29.840  -1.446  31.235  0.00  0.00    +0.013 C 
BRANCH  19  20
ATOM     20  C   UNL A   1     -29.541  -1.983  32.103  0.00  0.00    -0.021 C 
ATOM     21  C   UNL A   1     -28.331  -1.907  33.008  0.00  0.00    -0.004 C 
ATOM     22  C   UNL A   1     -30.419  -3.173  32.654  0.00  0.00    +0.031 C 
BRANCH  21  23
ATOM     23  C   UNL A   1     -27.624  -0.713  32.812  0.00  0.00    -0.000 C 
ATOM     24  C   UNL A   1     -28.067   0.382  33.302  0.00  0.00    -0.000 C 
BRANCH  24  25
ATOM     25  C   UNL A   1     -27.329   1.658  33.150  0.00  0.00    -0.000 A 
ATOM     26  C   UNL A   1     -27.878   2.951  33.260  0.00  0.00    -0.000 A 
ATOM     27  C   UNL A   1     -27.206   4.094  32.949  0.00  0.00    +0.000 A 
ATOM     28  C   UNL A   1     -25.861   4.021  32.456  0.00  0.00    +0.000 A 
ATOM     29  C   UNL A   1     -25.289   2.755  32.301  0.00  0.00    +0.000 A 
ATOM     30  C   UNL A   1     -26.012   1.622  32.624  0.00  0.00    -0.000 A 
ENDBRANCH  24  25
ENDBRANCH  21  23
ENDBRANCH  19  20
ENDBRANCH  17  18
ENDBRANCH   1  17
TORSDOF 9
