REMARK  Name = No_3804-gen_results/8p0m/2024-11-26-14-13-15/
REMARK  2 active torsions:
REMARK  status: ('A' for Active; 'I' for Inactive)
REMARK    1  A    between atoms: C_1  and  C_9
REMARK    2  A    between atoms: C_6  and  C_7
REMARK                            x       y       z     vdW  Elec       q    Type
REMARK                         _______ _______ _______ _____ _____    ______ ____
ROOT
ATOM      1  C   UNL A   1     -28.016  -0.814  28.878  0.00  0.00    +0.078 C 
ATOM      2  C   UNL A   1     -27.064  -0.119  28.608  0.00  0.00    -0.037 C 
ATOM      3  C   UNL A   1     -26.972   0.714  27.506  0.00  0.00    +0.022 C 
ATOM      4  C   UNL A   1     -25.820   1.491  27.116  0.00  0.00    +0.004 C 
ATOM      5  C   UNL A   1     -24.656   1.424  27.918  0.00  0.00    +0.009 C 
ATOM      6  C   UNL A   1     -24.685   0.590  29.066  0.00  0.00    +0.099 C 
ATOM      7  C   UNL A   1     -25.794  -0.168  29.344  0.00  0.00    +0.031 C 
ATOM      8  C   UNL A   1     -25.889   2.402  26.017  0.00  0.00    +0.000 C 
ENDROOT
BRANCH   6   9
ATOM      9  C   UNL A   1     -23.472   0.470  29.843  0.00  0.00    +0.398 C 
ATOM     10  F   UNL A   1     -23.685   0.773  31.069  0.00  0.00    -0.170 F 
ATOM     11  F   UNL A   1     -22.516   1.335  29.452  0.00  0.00    -0.170 F 
ATOM     12  F   UNL A   1     -22.948  -0.740  29.766  0.00  0.00    -0.170 F 
ENDBRANCH   6   9
BRANCH   1  13
ATOM     13  C   UNL A   1     -29.184   0.006  29.382  0.00  0.00    +0.387 C 
ATOM     14  O   UNL A   1     -29.013   0.563  30.442  0.00  0.00    -0.241 OA
ATOM     15  O   UNL A   1     -30.203   0.011  28.644  0.00  0.00    -0.241 OA
ENDBRANCH   1  13
TORSDOF 2
