MODEL 3804
MODEL 1
REMARK VINA RESULT:    -6.325      0.000      0.000
REMARK INTER + INTRA:          -7.382
REMARK INTER:                  -7.065
REMARK INTRA:                  -0.317
REMARK UNBOUND:                -0.317
REMARK  Name = No_3804-gen_results/8p0m/2024-11-26-14-13-15/
REMARK  2 active torsions:
REMARK  status: ('A' for Active; 'I' for Inactive)
REMARK    1  A    between atoms: C_1  and  C_9
REMARK    2  A    between atoms: C_6  and  C_7
REMARK                            x       y       z     vdW  Elec       q    Type
REMARK                         _______ _______ _______ _____ _____    ______ ____
ROOT
ATOM      1  C   UNL A   1     -25.273  -3.204  28.912  0.00  0.00    +0.078 C 
ATOM      2  C   UNL A   1     -24.514  -2.372  29.352  0.00  0.00    -0.037 C 
ATOM      3  C   UNL A   1     -24.183  -2.221  30.687  0.00  0.00    +0.022 C 
ATOM      4  C   UNL A   1     -23.345  -1.189  31.249  0.00  0.00    +0.004 C 
ATOM      5  C   UNL A   1     -22.785  -0.224  30.378  0.00  0.00    +0.009 C 
ATOM      6  C   UNL A   1     -23.082  -0.324  28.994  0.00  0.00    +0.099 C 
ATOM      7  C   UNL A   1     -23.936  -1.295  28.537  0.00  0.00    +0.031 C 
ATOM      8  C   UNL A   1     -22.987  -1.208  32.632  0.00  0.00    +0.000 C 
ENDROOT
BRANCH   6   9
ATOM      9  C   UNL A   1     -22.566   0.704  28.118  0.00  0.00    +0.398 C 
ATOM     10  F   UNL A   1     -22.744   1.866  28.625  0.00  0.00    -0.170 F 
ATOM     11  F   UNL A   1     -23.216   0.757  26.939  0.00  0.00    -0.170 F 
ATOM     12  F   UNL A   1     -21.287   0.527  27.842  0.00  0.00    -0.170 F 
ENDBRANCH   6   9
BRANCH   1  13
ATOM     13  C   UNL A   1     -24.661  -4.588  28.932  0.00  0.00    +0.387 C 
ATOM     14  O   UNL A   1     -23.651  -4.722  28.281  0.00  0.00    -0.241 OA
ATOM     15  O   UNL A   1     -25.276  -5.444  29.619  0.00  0.00    -0.241 OA
ENDBRANCH   1  13
TORSDOF 2
ENDMDL
ENDMDL
