MODEL 3805
MODEL 1
REMARK VINA RESULT:    -4.308      0.000      0.000
REMARK INTER + INTRA:          -4.308
REMARK INTER:                  -4.308
REMARK INTRA:                   0.000
REMARK UNBOUND:                 0.000
REMARK  Name = No_3805-gen_results/8p0m/2024-11-26-14-13-15/
REMARK  0 active torsions:
REMARK  status: ('A' for Active; 'I' for Inactive)
REMARK                            x       y       z     vdW  Elec       q    Type
REMARK                         _______ _______ _______ _____ _____    ______ ____
ROOT
ATOM      1  C   UNL A   1     -24.076  -4.073  28.916  0.00  0.00    +0.011 A 
ATOM      2  C   UNL A   1     -24.304  -3.095  29.235  0.00  0.00    +0.058 A 
ATOM      3  C   UNL A   1     -25.102  -5.101  29.153  0.00  0.00    +0.001 A 
ATOM      4  C   UNL A   1     -26.385  -4.740  29.660  0.00  0.00    +0.000 A 
ATOM      5  C   UNL A   1     -25.556  -2.457  29.725  0.00  0.00    +0.011 A 
ATOM      6  C   UNL A   1     -26.529  -3.380  29.967  0.00  0.00    +0.001 A 
ATOM      7 CL   UNL A   1     -23.056  -1.813  28.937  0.00  0.00    -0.082 Cl
ENDROOT
TORSDOF 0
ENDMDL
ENDMDL
