MODEL 3806
MODEL 1
REMARK VINA RESULT:    -4.396      0.000      0.000
REMARK INTER + INTRA:          -4.396
REMARK INTER:                  -4.396
REMARK INTRA:                   0.000
REMARK UNBOUND:                 0.000
REMARK  Name = No_3806-gen_results/8p0m/2024-11-26-14-13-15/
REMARK  0 active torsions:
REMARK  status: ('A' for Active; 'I' for Inactive)
REMARK                            x       y       z     vdW  Elec       q    Type
REMARK                         _______ _______ _______ _____ _____    ______ ____
ROOT
ATOM      1  C   UNL A   1     -25.397  -2.603  29.663  0.00  0.00    +0.011 A 
ATOM      2  C   UNL A   1     -24.315  -2.892  29.209  0.00  0.00    +0.058 A 
ATOM      3  C   UNL A   1     -24.019  -4.198  28.834  0.00  0.00    +0.011 A 
ATOM      4  C   UNL A   1     -24.978  -5.257  29.018  0.00  0.00    +0.001 A 
ATOM      5  C   UNL A   1     -26.194  -4.838  29.572  0.00  0.00    +0.000 A 
ATOM      6  C   UNL A   1     -26.418  -3.593  29.925  0.00  0.00    +0.001 A 
ATOM      7 CL   UNL A   1     -23.042  -1.772  28.967  0.00  0.00    -0.082 Cl
ENDROOT
TORSDOF 0
ENDMDL
ENDMDL
