REMARK  Name = No_3807-gen_results/8p0m/2024-11-26-14-13-15/
REMARK  1 active torsions:
REMARK  status: ('A' for Active; 'I' for Inactive)
REMARK    1  A    between atoms: C_3  and  C_7
REMARK                            x       y       z     vdW  Elec       q    Type
REMARK                         _______ _______ _______ _____ _____    ______ ____
ROOT
ATOM      1  C   UNL A   1     -28.016  -0.814  28.878  0.00  0.00    +0.000 A 
ATOM      2  C   UNL A   1     -28.469  -0.785  29.829  0.00  0.00    +0.000 A 
ATOM      3  C   UNL A   1     -27.087   0.290  28.638  0.00  0.00    +0.000 A 
ATOM      4  C   UNL A   1     -26.832   1.249  29.587  0.00  0.00    +0.000 A 
ATOM      5  C   UNL A   1     -28.391   0.080  31.006  0.00  0.00    +0.000 A 
ATOM      6  C   UNL A   1     -27.494   1.152  30.784  0.00  0.00    +0.000 A 
ENDROOT
BRANCH   3   7
ATOM      7  C   UNL A   1     -26.317   0.399  27.365  0.00  0.00    +0.000 A 
ATOM      8  C   UNL A   1     -24.941   0.255  27.503  0.00  0.00    +0.000 A 
ATOM      9  C   UNL A   1     -26.913   0.586  26.140  0.00  0.00    +0.000 A 
ATOM     10  C   UNL A   1     -26.177   0.419  24.994  0.00  0.00    +0.000 A 
ATOM     11  C   UNL A   1     -24.128   0.417  26.337  0.00  0.00    +0.000 A 
ATOM     12  C   UNL A   1     -24.791   0.464  25.103  0.00  0.00    +0.000 A 
ENDBRANCH   3   7
TORSDOF 1
