MODEL 3807
MODEL 1
REMARK VINA RESULT:    -6.444      0.000      0.000
REMARK INTER + INTRA:          -7.206
REMARK INTER:                  -6.820
REMARK INTRA:                  -0.386
REMARK UNBOUND:                -0.386
REMARK  Name = No_3807-gen_results/8p0m/2024-11-26-14-13-15/
REMARK  1 active torsions:
REMARK  status: ('A' for Active; 'I' for Inactive)
REMARK    1  A    between atoms: C_3  and  C_7
REMARK                            x       y       z     vdW  Elec       q    Type
REMARK                         _______ _______ _______ _____ _____    ______ ____
ROOT
ATOM      1  C   UNL A   1     -25.868  -2.569  29.617  0.00  0.00    +0.000 A 
ATOM      2  C   UNL A   1     -26.288  -3.526  29.747  0.00  0.00    +0.000 A 
ATOM      3  C   UNL A   1     -24.534  -2.591  29.017  0.00  0.00    +0.000 A 
ATOM      4  C   UNL A   1     -23.919  -3.762  28.650  0.00  0.00    +0.000 A 
ATOM      5  C   UNL A   1     -25.884  -4.902  29.457  0.00  0.00    +0.000 A 
ATOM      6  C   UNL A   1     -24.593  -4.934  28.876  0.00  0.00    +0.000 A 
ENDROOT
BRANCH   3   7
ATOM      7  C   UNL A   1     -23.793  -1.332  28.716  0.00  0.00    +0.000 A 
ATOM      8  C   UNL A   1     -22.490  -1.294  29.201  0.00  0.00    +0.000 A 
ATOM      9  C   UNL A   1     -24.331  -0.301  27.983  0.00  0.00    +0.000 A 
ATOM     10  C   UNL A   1     -23.516   0.705  27.527  0.00  0.00    +0.000 A 
ATOM     11  C   UNL A   1     -21.739  -0.091  29.013  0.00  0.00    +0.000 A 
ATOM     12  C   UNL A   1     -22.280   0.866  28.143  0.00  0.00    +0.000 A 
ENDBRANCH   3   7
TORSDOF 1
ENDMDL
ENDMDL
