MODEL 3808
MODEL 1
REMARK VINA RESULT:    -7.852      0.000      0.000
REMARK INTER + INTRA:         -12.111
REMARK INTER:                  -9.688
REMARK INTRA:                  -2.423
REMARK UNBOUND:                -2.423
REMARK  Name = No_3808-gen_results/8p0m/2024-11-26-14-13-15/
REMARK  4 active torsions:
REMARK  status: ('A' for Active; 'I' for Inactive)
REMARK    1  A    between atoms: C_3  and  C_8
REMARK    2  A    between atoms: C_5  and  C_18
REMARK    3  A    between atoms: C_22  and  C_24
REMARK    4  A    between atoms: N_26  and  C_27
REMARK                            x       y       z     vdW  Elec       q    Type
REMARK                         _______ _______ _______ _____ _____    ______ ____
ROOT
ATOM      1  O   UNL A   1     -26.592  -7.204   5.430  0.00  0.00    -0.273 OA
ATOM      2  C   UNL A   1     -26.653  -8.286   5.823  0.00  0.00    +0.251 C 
ATOM      3  C   UNL A   1     -27.143  -8.882   6.586  0.00  0.00    +0.109 C 
ATOM      4  N   UNL A   1     -25.717  -9.223   5.031  0.00  0.00    -0.160 NA
ATOM      5  C   UNL A   1     -27.197 -10.268   7.042  0.00  0.00    +0.060 C 
ATOM      6  C   UNL A   1     -25.667 -10.411   5.289  0.00  0.00    +0.151 A 
ATOM      7  C   UNL A   1     -26.364 -11.075   6.307  0.00  0.00    +0.016 A 
ATOM      8  N   UNL A   1     -24.810 -11.260   4.506  0.00  0.00    -0.228 NA
ATOM      9  C   UNL A   1     -24.823 -12.634   4.602  0.00  0.00    +0.100 A 
ATOM     10  C   UNL A   1     -25.497 -13.204   5.716  0.00  0.00    +0.021 A 
ATOM     11  C   UNL A   1     -26.258 -12.485   6.517  0.00  0.00    +0.001 A 
ENDROOT
BRANCH   3  12
ATOM     12  C   UNL A   1     -28.239  -8.056   7.500  0.00  0.00    -0.013 A 
ATOM     13  C   UNL A   1     -27.590  -7.512   8.706  0.00  0.00    -0.004 A 
ATOM     14  C   UNL A   1     -28.215  -6.624   9.262  0.00  0.00    -0.000 A 
ATOM     15  C   UNL A   1     -29.571  -6.152   8.879  0.00  0.00    -0.000 A 
ATOM     16  C   UNL A   1     -30.059  -6.647   7.705  0.00  0.00    -0.000 A 
ATOM     17  C   UNL A   1     -29.383  -7.591   6.964  0.00  0.00    -0.004 A 
ENDBRANCH   3  12
BRANCH   5  18
ATOM     18  C   UNL A   1     -28.042 -10.860   8.191  0.00  0.00    -0.018 A 
ATOM     19  C   UNL A   1     -27.474 -10.899   9.408  0.00  0.00    -0.004 A 
ATOM     20  C   UNL A   1     -29.353 -11.204   7.850  0.00  0.00    -0.004 A 
ATOM     21  C   UNL A   1     -30.203 -10.853   8.400  0.00  0.00    +0.004 A 
ATOM     22  C   UNL A   1     -29.975 -10.887   9.942  0.00  0.00    +0.055 A 
ATOM     23  C   UNL A   1     -28.675 -10.689  10.406  0.00  0.00    +0.004 A 
BRANCH  22  24
ATOM     24  C   UNL A   1     -31.096 -10.716  10.919  0.00  0.00    +0.265 C 
ATOM     25  O   UNL A   1     -31.699  -9.660  11.066  0.00  0.00    -0.268 OA
ATOM     26  N   UNL A   1     -31.754 -11.887  11.327  0.00  0.00    -0.196 NA
BRANCH  26  27
ATOM     27  C   UNL A   1     -31.310 -13.194  11.138  0.00  0.00    +0.153 C 
ATOM     28  C   UNL A   1     -32.018 -13.896  10.245  0.00  0.00    +0.029 C 
ATOM     29  C   UNL A   1     -31.684 -15.238  10.010  0.00  0.00    +0.003 C 
ATOM     30  C   UNL A   1     -30.565 -15.773  10.704  0.00  0.00    +0.008 C 
ATOM     31  C   UNL A   1     -29.863 -15.021  11.606  0.00  0.00    +0.066 C 
ATOM     32  C   UNL A   1     -30.309 -13.736  11.911  0.00  0.00    +0.170 C 
ATOM     33  O   UNL A   1     -30.018 -13.380  13.141  0.00  0.00    -0.294 OA
ENDBRANCH  26  27
ENDBRANCH  22  24
ENDBRANCH   5  18
TORSDOF 4
ENDMDL
ENDMDL
