REMARK  Name = No_3808-gen_results/8p0m/2024-11-26-14-13-15/
REMARK  4 active torsions:
REMARK  status: ('A' for Active; 'I' for Inactive)
REMARK    1  A    between atoms: C_3  and  C_8
REMARK    2  A    between atoms: C_5  and  C_18
REMARK    3  A    between atoms: C_22  and  C_24
REMARK    4  A    between atoms: N_26  and  C_27
REMARK                            x       y       z     vdW  Elec       q    Type
REMARK                         _______ _______ _______ _____ _____    ______ ____
ROOT
ATOM      1  O   UNL A   1     -28.123  -1.335  28.487  0.00  0.00    -0.273 OA
ATOM      2  C   UNL A   1     -27.481  -0.404  28.709  0.00  0.00    +0.251 C 
ATOM      3  C   UNL A   1     -27.190   0.246  29.527  0.00  0.00    +0.109 C 
ATOM      4  N   UNL A   1     -26.816   0.137  27.426  0.00  0.00    -0.160 NA
ATOM      5  C   UNL A   1     -26.355   1.420  29.764  0.00  0.00    +0.060 C 
ATOM      6  C   UNL A   1     -26.079   1.104  27.471  0.00  0.00    +0.151 A 
ATOM      7  C   UNL A   1     -25.768   1.866  28.605  0.00  0.00    +0.016 A 
ATOM      8  N   UNL A   1     -25.448   1.557  26.261  0.00  0.00    -0.228 NA
ATOM      9  C   UNL A   1     -24.464   2.521  26.243  0.00  0.00    +0.100 A 
ATOM     10  C   UNL A   1     -24.281   3.290  27.424  0.00  0.00    +0.021 A 
ATOM     11  C   UNL A   1     -24.867   2.975  28.562  0.00  0.00    +0.001 A 
ENDROOT
BRANCH   3  12
ATOM     12  C   UNL A   1     -27.760  -0.215  31.004  0.00  0.00    -0.013 A 
ATOM     13  C   UNL A   1     -29.010   0.502  31.315  0.00  0.00    -0.004 A 
ATOM     14  C   UNL A   1     -29.675   0.000  32.206  0.00  0.00    -0.000 A 
ATOM     15  C   UNL A   1     -29.274  -1.172  33.028  0.00  0.00    -0.000 A 
ATOM     16  C   UNL A   1     -28.148  -1.824  32.618  0.00  0.00    -0.000 A 
ATOM     17  C   UNL A   1     -27.379  -1.378  31.566  0.00  0.00    -0.004 A 
ENDBRANCH   3  12
BRANCH   5  18
ATOM     18  C   UNL A   1     -26.096   2.151  31.099  0.00  0.00    -0.018 A 
ATOM     19  C   UNL A   1     -25.002   1.790  31.790  0.00  0.00    -0.004 A 
ATOM     20  C   UNL A   1     -26.988   3.186  31.394  0.00  0.00    -0.004 A 
ATOM     21  C   UNL A   1     -26.661   4.176  31.644  0.00  0.00    +0.004 A 
ATOM     22  C   UNL A   1     -25.432   4.176  32.603  0.00  0.00    +0.055 A 
ATOM     23  C   UNL A   1     -24.531   3.117  32.498  0.00  0.00    +0.004 A 
BRANCH  22  24
ATOM     24  C   UNL A   1     -24.972   5.413  33.311  0.00  0.00    +0.265 C 
ATOM     25  O   UNL A   1     -23.869   5.914  33.132  0.00  0.00    -0.268 OA
ATOM     26  N   UNL A   1     -25.976   6.249  33.825  0.00  0.00    -0.196 NA
BRANCH  26  27
ATOM     27  C   UNL A   1     -27.321   5.924  33.986  0.00  0.00    +0.153 C 
ATOM     28  C   UNL A   1     -28.086   6.932  34.421  0.00  0.00    +0.029 C 
ATOM     29  C   UNL A   1     -29.450   6.702  34.660  0.00  0.00    +0.003 C 
ATOM     30  C   UNL A   1     -29.962   5.408  34.375  0.00  0.00    +0.008 C 
ATOM     31  C   UNL A   1     -29.148   4.404  33.926  0.00  0.00    +0.066 C 
ATOM     32  C   UNL A   1     -27.776   4.635  33.831  0.00  0.00    +0.170 C 
ATOM     33  O   UNL A   1     -27.067   3.547  34.026  0.00  0.00    -0.294 OA
ENDBRANCH  26  27
ENDBRANCH  22  24
ENDBRANCH   5  18
TORSDOF 4
