MODEL 3809
MODEL 1
REMARK VINA RESULT:    -4.341      0.000      0.000
REMARK INTER + INTRA:          -4.594
REMARK INTER:                  -4.595
REMARK INTRA:                   0.001
REMARK UNBOUND:                 0.001
REMARK  Name = No_3809-gen_results/8p0m/2024-11-26-14-13-15/
REMARK  1 active torsions:
REMARK  status: ('A' for Active; 'I' for Inactive)
REMARK    1  A    between atoms: C_6  and  C_9
REMARK                            x       y       z     vdW  Elec       q    Type
REMARK                         _______ _______ _______ _____ _____    ______ ____
ROOT
ATOM      1  O   UNL A   1     -26.601 -12.866  33.824  0.00  0.00    -0.273 OA
ATOM      2  C   UNL A   1     -27.343 -12.071  33.445  0.00  0.00    +0.242 C 
ATOM      3  C   UNL A   1     -27.707 -12.000  32.115  0.00  0.00    +0.099 C 
ATOM      4  N   UNL A   1     -27.858 -10.973  34.284  0.00  0.00    -0.205 NA
ATOM      5  C   UNL A   1     -28.789 -11.212  31.757  0.00  0.00    +0.079 C 
ATOM      6  C   UNL A   1     -29.210 -10.170  32.640  0.00  0.00    +0.136 C 
ATOM      7  C   UNL A   1     -28.778 -10.144  33.908  0.00  0.00    +0.127 C 
ATOM      8 BR   UNL A   1     -29.438 -11.134  29.987  0.00  0.00    -0.081 Br
ENDROOT
BRANCH   6   9
ATOM      9  C   UNL A   1     -30.271  -9.240  32.140  0.00  0.00    +0.367 C 
ATOM     10  O   UNL A   1     -31.402  -9.370  32.106  0.00  0.00    -0.246 OA
ATOM     11  O   UNL A   1     -29.715  -8.000  31.779  0.00  0.00    -0.246 OA
ENDBRANCH   6   9
TORSDOF 1
ENDMDL
ENDMDL
