REMARK  Name = No_3809-gen_results/8p0m/2024-11-26-14-13-15/
REMARK  1 active torsions:
REMARK  status: ('A' for Active; 'I' for Inactive)
REMARK    1  A    between atoms: C_6  and  C_9
REMARK                            x       y       z     vdW  Elec       q    Type
REMARK                         _______ _______ _______ _____ _____    ______ ____
ROOT
ATOM      1  O   UNL A   1     -28.123  -1.335  28.487  0.00  0.00    -0.273 OA
ATOM      2  C   UNL A   1     -27.481  -0.404  28.709  0.00  0.00    +0.242 C 
ATOM      3  C   UNL A   1     -26.380  -0.087  27.939  0.00  0.00    +0.099 C 
ATOM      4  N   UNL A   1     -27.666   0.447  29.899  0.00  0.00    -0.205 NA
ATOM      5  C   UNL A   1     -25.805   1.166  28.075  0.00  0.00    +0.079 C 
ATOM      6  C   UNL A   1     -26.044   1.913  29.270  0.00  0.00    +0.136 C 
ATOM      7  C   UNL A   1     -27.033   1.557  30.101  0.00  0.00    +0.127 C 
ATOM      8 BR   UNL A   1     -24.370   1.740  26.992  0.00  0.00    -0.081 Br
ENDROOT
BRANCH   6   9
ATOM      9  C   UNL A   1     -25.272   3.183  29.446  0.00  0.00    +0.367 C 
ATOM     10  O   UNL A   1     -24.631   3.760  28.702  0.00  0.00    -0.246 OA
ATOM     11  O   UNL A   1     -25.518   3.742  30.713  0.00  0.00    -0.246 OA
ENDBRANCH   6   9
TORSDOF 1
