MODEL 380
MODEL 1
REMARK VINA RESULT:    -7.758      0.000      0.000
REMARK INTER + INTRA:         -10.265
REMARK INTER:                  -9.572
REMARK INTRA:                  -0.694
REMARK UNBOUND:                -0.694
REMARK  Name = No_380-gen_results/8p0m/2024-11-26-14-13-15/
REMARK  4 active torsions:
REMARK  status: ('A' for Active; 'I' for Inactive)
REMARK    1  A    between atoms: C_1  and  C_2
REMARK    2  A    between atoms: C_5  and  C_11
REMARK    3  A    between atoms: C_10  and  C_15
REMARK    4  A    between atoms: C_18  and  C_21
REMARK                            x       y       z     vdW  Elec       q    Type
REMARK                         _______ _______ _______ _____ _____    ______ ____
ROOT
ATOM      1  C   UNL A   1     -26.214   1.990  25.963  0.00  0.00    +0.272 C 
ATOM      2  N   UNL A   1     -26.303   2.168  27.366  0.00  0.00    -0.131 NA
ATOM      3  O   UNL A   1     -25.101   1.666  25.571  0.00  0.00    -0.268 OA
ATOM      4  C   UNL A   1     -25.212   2.004  28.327  0.00  0.00    +0.350 C 
ATOM      5  O   UNL A   1     -24.458   2.946  28.341  0.00  0.00    -0.260 OA
ENDROOT
BRANCH   1   6
ATOM      6  C   UNL A   1     -27.192   2.103  25.262  0.00  0.00    +0.056 A 
ATOM      7  C   UNL A   1     -27.565   1.093  24.381  0.00  0.00    +0.004 A 
ATOM      8  C   UNL A   1     -28.737   1.116  23.460  0.00  0.00    +0.004 A 
ATOM      9  C   UNL A   1     -29.635   2.213  23.621  0.00  0.00    +0.071 A 
ATOM     10  C   UNL A   1     -29.269   3.196  24.562  0.00  0.00    +0.004 A 
ATOM     11  C   UNL A   1     -28.169   3.145  25.327  0.00  0.00    +0.004 A 
BRANCH   9  12
ATOM     12  C   UNL A   1     -30.792   2.243  22.764  0.00  0.00    +0.419 C 
ATOM     13  F   UNL A   1     -30.635   2.786  21.680  0.00  0.00    -0.166 F 
ATOM     14  F   UNL A   1     -31.891   2.886  23.378  0.00  0.00    -0.166 F 
ATOM     15  F   UNL A   1     -31.265   0.993  22.459  0.00  0.00    -0.166 F 
ENDBRANCH   9  12
ENDBRANCH   1   6
BRANCH   4  16
ATOM     16  C   UNL A   1     -25.395   0.856  29.031  0.00  0.00    +0.393 C 
ATOM     17  O   UNL A   1     -26.148   0.708  29.806  0.00  0.00    -0.236 OA
ATOM     18  N   UNL A   1     -24.294  -0.009  28.916  0.00  0.00    -0.125 N 
ATOM     19  C   UNL A   1     -24.323  -1.356  29.627  0.00  0.00    +0.383 C 
ATOM     20  C   UNL A   1     -23.165   0.141  28.037  0.00  0.00    +0.262 C 
ATOM     21  N   UNL A   1     -23.367  -1.074  30.735  0.00  0.00    +0.194 NA
BRANCH  19  22
ATOM     22  C   UNL A   1     -24.690  -2.334  29.537  0.00  0.00    +0.087 A 
ATOM     23  C   UNL A   1     -23.845  -3.389  28.879  0.00  0.00    +0.007 A 
ATOM     24  C   UNL A   1     -24.329  -4.643  28.686  0.00  0.00    +0.000 A 
ATOM     25  C   UNL A   1     -25.608  -4.935  29.195  0.00  0.00    +0.000 A 
ATOM     26  C   UNL A   1     -26.411  -4.054  29.791  0.00  0.00    +0.000 A 
ATOM     27  C   UNL A   1     -26.035  -2.746  29.929  0.00  0.00    +0.007 A 
ENDBRANCH  19  22
ENDBRANCH   4  16
TORSDOF 4
ENDMDL
ENDMDL
