REMARK  Name = No_381-gen_results/8p0m/2024-11-26-14-13-15/
REMARK  3 active torsions:
REMARK  status: ('A' for Active; 'I' for Inactive)
REMARK    1  A    between atoms: C_3  and  O_9
REMARK    2  A    between atoms: O_9  and  C_10
REMARK    3  A    between atoms: C_10  and  C_11
REMARK                            x       y       z     vdW  Elec       q    Type
REMARK                         _______ _______ _______ _____ _____    ______ ____
ROOT
ATOM      1  C   UNL A   1     -28.016  -0.814  28.878  0.00  0.00    +0.051 A 
ATOM      2  C   UNL A   1     -28.469  -0.785  29.829  0.00  0.00    +0.061 A 
ATOM      3  C   UNL A   1     -26.504  -0.778  28.877  0.00  0.00    +0.167 A 
ATOM      4  C   UNL A   1     -25.810  -0.853  30.103  0.00  0.00    +0.174 A 
ATOM      5  C   UNL A   1     -27.991  -0.892  31.226  0.00  0.00    +0.014 A 
ATOM      6  C   UNL A   1     -26.604  -0.868  31.265  0.00  0.00    +0.034 A 
ATOM      7 CL   UNL A   1     -30.294  -0.838  29.835  0.00  0.00    -0.082 Cl
ATOM      8  F   UNL A   1     -24.521  -0.800  30.122  0.00  0.00    -0.201 F 
ENDROOT
BRANCH   3   9
ATOM      9  O   UNL A   1     -25.735  -0.751  27.759  0.00  0.00    -0.468 OA
BRANCH   9  10
ATOM     10  C   UNL A   1     -25.098   0.431  27.410  0.00  0.00    +0.232 C 
BRANCH  10  11
ATOM     11  C   UNL A   1     -23.841   0.709  27.868  0.00  0.00    +0.021 C 
ATOM     12  C   UNL A   1     -23.148  -0.040  28.705  0.00  0.00    -0.001 C 
ENDBRANCH  10  11
ENDBRANCH   9  10
ENDBRANCH   3   9
TORSDOF 3
