MODEL 3810
MODEL 1
REMARK VINA RESULT:    -4.352      0.000      0.000
REMARK INTER + INTRA:          -4.352
REMARK INTER:                  -4.352
REMARK INTRA:                   0.000
REMARK UNBOUND:                 0.000
REMARK  Name = No_3810-gen_results/8p0m/2024-11-26-14-13-15/
REMARK  0 active torsions:
REMARK  status: ('A' for Active; 'I' for Inactive)
REMARK                            x       y       z     vdW  Elec       q    Type
REMARK                         _______ _______ _______ _____ _____    ______ ____
ROOT
ATOM      1  C   UNL A   1     -24.172  -4.906  28.592  0.00  0.00    +0.000 A 
ATOM      2  C   UNL A   1     -25.021  -5.311  29.066  0.00  0.00    +0.000 A 
ATOM      3  C   UNL A   1     -24.064  -3.448  28.729  0.00  0.00    +0.000 A 
ATOM      4  C   UNL A   1     -25.043  -2.703  29.243  0.00  0.00    +0.000 A 
ATOM      5  C   UNL A   1     -26.199  -4.720  29.653  0.00  0.00    +0.000 A 
ATOM      6  C   UNL A   1     -26.091  -3.364  29.749  0.00  0.00    +0.000 A 
ENDROOT
TORSDOF 0
ENDMDL
ENDMDL
