MODEL 3811
MODEL 1
REMARK VINA RESULT:    -6.080      0.000      0.000
REMARK INTER + INTRA:         -13.431
REMARK INTER:                  -9.634
REMARK INTRA:                  -3.797
REMARK UNBOUND:                -3.797
REMARK  Name = No_3811-gen_results/8p0m/2024-11-26-14-13-15/
REMARK  10 active torsions:
REMARK  status: ('A' for Active; 'I' for Inactive)
REMARK    1  A    between atoms: C_1  and  C_2
REMARK    2  A    between atoms: C_1  and  C_8
REMARK    3  A    between atoms: C_5  and  C_11
REMARK    4  A    between atoms: C_7  and  C_16
REMARK    5  A    between atoms: C_8  and  O_10
REMARK    6  A    between atoms: O_10  and  C_19
REMARK    7  A    between atoms: C_23  and  C_24
REMARK    8  A    between atoms: C_26  and  C_27
REMARK    9  A    between atoms: C_27  and  C_28
REMARK   10  A    between atoms: C_27  and  C_34
REMARK                            x       y       z     vdW  Elec       q    Type
REMARK                         _______ _______ _______ _____ _____    ______ ____
ROOT
ATOM      1  O   UNL A   1     -26.098   2.804  31.406  0.00  0.00    -0.424 OA
ENDROOT
BRANCH   1   2
ATOM      2  C   UNL A   1     -25.933   1.601  31.713  0.00  0.00    +0.148 A 
ATOM      3  C   UNL A   1     -26.445   0.795  32.135  0.00  0.00    +0.038 A 
ATOM      4  C   UNL A   1     -24.425   1.249  31.273  0.00  0.00    +0.038 A 
ATOM      5  C   UNL A   1     -26.094  -0.593  32.378  0.00  0.00    +0.003 A 
ATOM      6  C   UNL A   1     -23.999  -0.077  31.486  0.00  0.00    +0.003 A 
ATOM      7  C   UNL A   1     -24.855  -0.919  32.054  0.00  0.00    +0.000 A 
BRANCH   6   8
ATOM      8  C   UNL A   1     -22.637  -0.390  31.098  0.00  0.00    -0.004 C 
ATOM      9  C   UNL A   1     -22.394  -0.690  29.974  0.00  0.00    -0.021 C 
BRANCH   9  10
ATOM     10  C   UNL A   1     -23.405  -0.663  28.976  0.00  0.00    +0.063 C 
BRANCH  10  11
ATOM     11  C   UNL A   1     -23.540   0.130  28.171  0.00  0.00    -0.017 A 
ATOM     12  C   UNL A   1     -22.674   1.297  27.896  0.00  0.00    -0.004 A 
ATOM     13  C   UNL A   1     -22.729   2.116  26.696  0.00  0.00    -0.000 A 
ATOM     14  C   UNL A   1     -23.713   1.765  25.713  0.00  0.00    -0.000 A 
ATOM     15  C   UNL A   1     -24.493   0.664  25.862  0.00  0.00    -0.000 A 
ATOM     16  C   UNL A   1     -24.365  -0.139  26.920  0.00  0.00    -0.004 A 
ENDBRANCH  10  11
BRANCH  10  17
ATOM     17  C   UNL A   1     -24.178  -1.947  28.811  0.00  0.00    +0.118 C 
ATOM     18  N   UNL A   1     -23.851  -3.016  28.952  0.00  0.00    -0.131 NA
ENDBRANCH  10  17
ENDBRANCH   9  10
ENDBRANCH   6   8
ENDBRANCH   1   2
BRANCH   1  19
ATOM     19  C   UNL A   1     -26.780   3.127  30.221  0.00  0.00    +0.326 C 
ATOM     20  O   UNL A   1     -27.757   3.614  30.245  0.00  0.00    -0.249 OA
BRANCH  19  21
ATOM     21  C   UNL A   1     -25.984   2.781  29.011  0.00  0.00    +0.137 C 
BRANCH  21  22
ATOM     22  C   UNL A   1     -26.636   2.619  28.006  0.00  0.00    -0.001 A 
ATOM     23  C   UNL A   1     -27.353   1.476  27.695  0.00  0.00    +0.054 A 
ATOM     24  C   UNL A   1     -28.072   1.225  26.469  0.00  0.00    +0.015 A 
ATOM     25  C   UNL A   1     -28.070   2.225  25.467  0.00  0.00    +0.072 A 
ATOM     26  C   UNL A   1     -27.356   3.424  25.724  0.00  0.00    +0.004 A 
ATOM     27  C   UNL A   1     -26.684   3.555  26.900  0.00  0.00    -0.003 A 
ATOM     28 CL   UNL A   1     -27.395   0.197  28.805  0.00  0.00    -0.083 Cl
BRANCH  25  29
ATOM     29  C   UNL A   1     -28.792   2.052  24.217  0.00  0.00    +0.419 C 
ATOM     30  F   UNL A   1     -29.875   2.413  24.121  0.00  0.00    -0.166 F 
ATOM     31  F   UNL A   1     -28.822   0.645  23.865  0.00  0.00    -0.166 F 
ATOM     32  F   UNL A   1     -28.042   2.576  23.166  0.00  0.00    -0.166 F 
ENDBRANCH  25  29
BRANCH  27  33
ATOM     33  C   UNL A   1     -25.942   4.863  27.039  0.00  0.00    -0.005 C 
ATOM     34  C   UNL A   1     -26.530   5.932  27.088  0.00  0.00    -0.026 C 
ATOM     35  C   UNL A   1     -27.514   6.342  28.083  0.00  0.00    +0.031 C 
ENDBRANCH  27  33
ENDBRANCH  21  22
ENDBRANCH  19  21
ENDBRANCH   1  19
TORSDOF 10
ENDMDL
ENDMDL
