REMARK  Name = No_3811-gen_results/8p0m/2024-11-26-14-13-15/
REMARK  10 active torsions:
REMARK  status: ('A' for Active; 'I' for Inactive)
REMARK    1  A    between atoms: C_1  and  C_2
REMARK    2  A    between atoms: C_1  and  C_8
REMARK    3  A    between atoms: C_5  and  C_11
REMARK    4  A    between atoms: C_7  and  C_16
REMARK    5  A    between atoms: C_8  and  O_10
REMARK    6  A    between atoms: O_10  and  C_19
REMARK    7  A    between atoms: C_23  and  C_24
REMARK    8  A    between atoms: C_26  and  C_27
REMARK    9  A    between atoms: C_27  and  C_28
REMARK   10  A    between atoms: C_27  and  C_34
REMARK                            x       y       z     vdW  Elec       q    Type
REMARK                         _______ _______ _______ _____ _____    ______ ____
ROOT
ATOM      1  O   UNL A   1     -29.272  -1.602  30.762  0.00  0.00    -0.424 OA
ENDROOT
BRANCH   1   2
ATOM      2  C   UNL A   1     -30.480  -1.573  31.093  0.00  0.00    +0.148 A 
ATOM      3  C   UNL A   1     -31.287  -0.913  31.157  0.00  0.00    +0.038 A 
ATOM      4  C   UNL A   1     -30.838  -3.077  31.541  0.00  0.00    +0.038 A 
ATOM      5  C   UNL A   1     -32.680  -1.075  31.533  0.00  0.00    +0.003 A 
ATOM      6  C   UNL A   1     -32.170  -3.317  31.934  0.00  0.00    +0.003 A 
ATOM      7  C   UNL A   1     -33.012  -2.290  31.932  0.00  0.00    +0.000 A 
BRANCH   6   8
ATOM      8  C   UNL A   1     -32.489  -4.671  32.346  0.00  0.00    -0.004 C 
ATOM      9  C   UNL A   1     -33.081  -5.392  31.610  0.00  0.00    -0.021 C 
BRANCH   9  10
ATOM     10  C   UNL A   1     -33.408  -4.980  30.290  0.00  0.00    +0.063 C 
BRANCH  10  11
ATOM     11  C   UNL A   1     -32.910  -5.331  29.329  0.00  0.00    -0.017 A 
ATOM     12  C   UNL A   1     -33.071  -4.772  27.969  0.00  0.00    -0.004 A 
ATOM     13  C   UNL A   1     -32.212  -5.070  26.835  0.00  0.00    -0.000 A 
ATOM     14  C   UNL A   1     -31.135  -5.990  27.058  0.00  0.00    -0.000 A 
ATOM     15  C   UNL A   1     -30.880  -6.487  28.296  0.00  0.00    -0.000 A 
ATOM     16  C   UNL A   1     -31.613  -6.128  29.351  0.00  0.00    -0.004 A 
ENDBRANCH  10  11
BRANCH  10  17
ATOM     17  C   UNL A   1     -34.712  -4.235  30.156  0.00  0.00    +0.118 C 
ATOM     18  N   UNL A   1     -35.474  -3.956  30.937  0.00  0.00    -0.131 NA
ENDBRANCH  10  17
ENDBRANCH   9  10
ENDBRANCH   6   8
ENDBRANCH   1   2
BRANCH   1  19
ATOM     19  C   UNL A   1     -28.694  -0.473  30.159  0.00  0.00    +0.326 C 
ATOM     20  O   UNL A   1     -28.731   0.507  30.639  0.00  0.00    -0.249 OA
BRANCH  19  21
ATOM     21  C   UNL A   1     -28.016  -0.814  28.878  0.00  0.00    +0.137 C 
BRANCH  21  22
ATOM     22  C   UNL A   1     -27.064  -0.119  28.608  0.00  0.00    -0.001 A 
ATOM     23  C   UNL A   1     -26.972   0.714  27.506  0.00  0.00    +0.054 A 
ATOM     24  C   UNL A   1     -25.820   1.491  27.116  0.00  0.00    +0.015 A 
ATOM     25  C   UNL A   1     -24.656   1.424  27.918  0.00  0.00    +0.072 A 
ATOM     26  C   UNL A   1     -24.685   0.590  29.066  0.00  0.00    +0.004 A 
ATOM     27  C   UNL A   1     -25.810  -0.127  29.334  0.00  0.00    -0.003 A 
ATOM     28 CL   UNL A   1     -28.293   0.845  26.453  0.00  0.00    -0.083 Cl
BRANCH  25  29
ATOM     29  C   UNL A   1     -23.466   2.197  27.600  0.00  0.00    +0.419 C 
ATOM     30  F   UNL A   1     -23.479   2.944  26.731  0.00  0.00    -0.166 F 
ATOM     31  F   UNL A   1     -22.364   1.297  27.318  0.00  0.00    -0.166 F 
ATOM     32  F   UNL A   1     -23.003   2.839  28.747  0.00  0.00    -0.166 F 
ENDBRANCH  25  29
BRANCH  27  33
ATOM     33  C   UNL A   1     -25.703  -0.996  30.565  0.00  0.00    -0.005 C 
ATOM     34  C   UNL A   1     -24.639  -1.168  31.138  0.00  0.00    -0.026 C 
ATOM     35  C   UNL A   1     -23.797  -0.142  31.743  0.00  0.00    +0.031 C 
ENDBRANCH  27  33
ENDBRANCH  21  22
ENDBRANCH  19  21
ENDBRANCH   1  19
TORSDOF 10
