REMARK  Name = No_3812-gen_results/8p0m/2024-11-26-14-13-15/
REMARK  10 active torsions:
REMARK  status: ('A' for Active; 'I' for Inactive)
REMARK    1  A    between atoms: C_2  and  C_15
REMARK    2  A    between atoms: C_9  and  C_11
REMARK    3  A    between atoms: N_12  and  C_18
REMARK    4  A    between atoms: C_20  and  C_24
REMARK    5  A    between atoms: C_24  and  O_26
REMARK    6  A    between atoms: O_26  and  C_27
REMARK    7  A    between atoms: C_27  and  C_28
REMARK    8  A    between atoms: C_28  and  O_30
REMARK    9  A    between atoms: O_30  and  C_31
REMARK   10  A    between atoms: C_31  and  C_32
REMARK                            x       y       z     vdW  Elec       q    Type
REMARK                         _______ _______ _______ _____ _____    ______ ____
ROOT
ATOM      1  C   UNL A   1     -22.199  -0.252  29.084  0.00  0.00    +0.253 C 
ATOM      2  N   UNL A   1     -21.714   0.787  28.401  0.00  0.00    -0.253 N 
ATOM      3  O   UNL A   1     -21.479  -0.968  29.749  0.00  0.00    -0.270 OA
ATOM      4  C   UNL A   1     -20.279   1.169  28.248  0.00  0.00    +0.120 C 
ENDROOT
BRANCH   1  13
ATOM      5  C   UNL A   1     -28.016  -0.814  28.878  0.00  0.00    +0.007 A 
ATOM      6  C   UNL A   1     -28.469  -0.785  29.829  0.00  0.00    +0.080 A 
ATOM      7  C   UNL A   1     -26.546  -0.876  28.850  0.00  0.00    +0.000 A 
ATOM      8  C   UNL A   1     -25.683  -0.777  27.683  0.00  0.00    +0.000 A 
ATOM      9  C   UNL A   1     -27.918  -1.003  31.188  0.00  0.00    +0.007 A 
ATOM     10  C   UNL A   1     -26.531  -1.079  31.246  0.00  0.00    +0.000 A 
ATOM     11  C   UNL A   1     -25.780  -1.046  30.090  0.00  0.00    +0.000 A 
ATOM     12  C   UNL A   1     -24.368  -0.250  27.792  0.00  0.00    +0.004 A 
ATOM     13  C   UNL A   1     -23.681  -0.476  29.017  0.00  0.00    +0.054 A 
ATOM     14  C   UNL A   1     -24.391  -1.067  30.235  0.00  0.00    +0.004 A 
BRANCH   6  15
ATOM     15  C   UNL A   1     -30.066  -0.778  29.924  0.00  0.00    +0.388 C 
ATOM     16  O   UNL A   1     -30.654   0.046  30.705  0.00  0.00    -0.241 OA
ATOM     17  O   UNL A   1     -30.691  -1.468  29.128  0.00  0.00    -0.241 OA
ENDBRANCH   6  15
ENDBRANCH   1  13
BRANCH   2  18
ATOM     18  C   UNL A   1     -22.606   1.770  27.660  0.00  0.00    +0.054 A 
ATOM     19  C   UNL A   1     -23.289   2.701  28.455  0.00  0.00    +0.021 A 
ATOM     20  C   UNL A   1     -24.353   3.456  27.899  0.00  0.00    +0.077 A 
ATOM     21  C   UNL A   1     -24.545   3.405  26.496  0.00  0.00    +0.006 A 
ATOM     22  C   UNL A   1     -23.670   2.584  25.729  0.00  0.00    +0.002 A 
ATOM     23  C   UNL A   1     -22.782   1.744  26.340  0.00  0.00    +0.015 A 
BRANCH  20  24
ATOM     24  C   UNL A   1     -25.172   4.424  28.630  0.00  0.00    +0.342 C 
ATOM     25  O   UNL A   1     -25.588   5.409  28.213  0.00  0.00    -0.245 OA
BRANCH  24  26
ATOM     26  O   UNL A   1     -25.528   3.983  29.844  0.00  0.00    -0.433 OA
BRANCH  26  27
ATOM     27  C   UNL A   1     -26.774   4.041  30.308  0.00  0.00    +0.317 C 
BRANCH  27  28
ATOM     28  C   UNL A   1     -27.093   2.938  31.145  0.00  0.00    +0.362 C 
ATOM     29  O   UNL A   1     -28.326   2.534  31.067  0.00  0.00    -0.246 OA
BRANCH  28  30
ATOM     30  O   UNL A   1     -26.298   2.342  31.884  0.00  0.00    -0.445 OA
BRANCH  30  31
ATOM     31  C   UNL A   1     -26.596   2.103  33.249  0.00  0.00    +0.221 C 
BRANCH  31  32
ATOM     32  C   UNL A   1     -27.814   1.701  33.539  0.00  0.00    +0.115 C 
ATOM     33 BR   UNL A   1     -29.292   2.357  32.916  0.00  0.00    -0.077 Br
ENDBRANCH  31  32
ENDBRANCH  30  31
ENDBRANCH  28  30
ENDBRANCH  27  28
ENDBRANCH  26  27
ENDBRANCH  24  26
ENDBRANCH  20  24
ENDBRANCH   2  18
TORSDOF 10
