MODEL 3812
MODEL 1
REMARK VINA RESULT:    -6.298      0.000      0.000
REMARK INTER + INTRA:         -12.039
REMARK INTER:                  -9.980
REMARK INTRA:                  -2.059
REMARK UNBOUND:                -2.059
REMARK  Name = No_3812-gen_results/8p0m/2024-11-26-14-13-15/
REMARK  10 active torsions:
REMARK  status: ('A' for Active; 'I' for Inactive)
REMARK    1  A    between atoms: C_2  and  C_15
REMARK    2  A    between atoms: C_9  and  C_11
REMARK    3  A    between atoms: N_12  and  C_18
REMARK    4  A    between atoms: C_20  and  C_24
REMARK    5  A    between atoms: C_24  and  O_26
REMARK    6  A    between atoms: O_26  and  C_27
REMARK    7  A    between atoms: C_27  and  C_28
REMARK    8  A    between atoms: C_28  and  O_30
REMARK    9  A    between atoms: O_30  and  C_31
REMARK   10  A    between atoms: C_31  and  C_32
REMARK                            x       y       z     vdW  Elec       q    Type
REMARK                         _______ _______ _______ _____ _____    ______ ____
ROOT
ATOM      1  C   UNL A   1     -24.031   0.549  30.356  0.00  0.00    +0.253 C 
ATOM      2  N   UNL A   1     -23.814  -0.698  30.778  0.00  0.00    -0.253 N 
ATOM      3  O   UNL A   1     -23.479   1.500  30.871  0.00  0.00    -0.270 OA
ATOM      4  C   UNL A   1     -22.995  -1.118  31.954  0.00  0.00    +0.120 C 
ENDROOT
BRANCH   1  13
ATOM      5  C   UNL A   1     -27.777   0.917  25.881  0.00  0.00    +0.007 A 
ATOM      6  C   UNL A   1     -27.458   0.386  25.028  0.00  0.00    +0.080 A 
ATOM      7  C   UNL A   1     -26.808   1.040  26.982  0.00  0.00    +0.000 A 
ATOM      8  C   UNL A   1     -27.048   1.588  28.308  0.00  0.00    +0.000 A 
ATOM      9  C   UNL A   1     -26.120  -0.106  24.620  0.00  0.00    +0.007 A 
ATOM     10  C   UNL A   1     -25.144  -0.018  25.606  0.00  0.00    +0.000 A 
ATOM     11  C   UNL A   1     -25.426   0.577  26.818  0.00  0.00    +0.000 A 
ATOM     12  C   UNL A   1     -26.307   1.130  29.430  0.00  0.00    +0.004 A 
ATOM     13  C   UNL A   1     -24.965   0.719  29.194  0.00  0.00    +0.054 A 
ATOM     14  C   UNL A   1     -24.411   0.572  27.777  0.00  0.00    +0.004 A 
BRANCH   6  15
ATOM     15  C   UNL A   1     -28.445   0.271  23.775  0.00  0.00    +0.388 C 
ATOM     16  O   UNL A   1     -28.847  -0.879  23.384  0.00  0.00    -0.241 OA
ATOM     17  O   UNL A   1     -28.911   1.306  23.314  0.00  0.00    -0.241 OA
ENDBRANCH   6  15
ENDBRANCH   1  13
BRANCH   2  18
ATOM     18  C   UNL A   1     -24.395  -1.915  30.076  0.00  0.00    +0.054 A 
ATOM     19  C   UNL A   1     -25.733  -2.214  30.370  0.00  0.00    +0.021 A 
ATOM     20  C   UNL A   1     -26.270  -3.475  30.003  0.00  0.00    +0.077 A 
ATOM     21  C   UNL A   1     -25.500  -4.305  29.150  0.00  0.00    +0.006 A 
ATOM     22  C   UNL A   1     -24.224  -3.833  28.728  0.00  0.00    +0.002 A 
ATOM     23  C   UNL A   1     -23.688  -2.694  29.259  0.00  0.00    +0.015 A 
BRANCH  20  24
ATOM     24  C   UNL A   1     -27.632  -3.927  30.290  0.00  0.00    +0.342 C 
ATOM     25  O   UNL A   1     -27.939  -4.984  30.614  0.00  0.00    -0.245 OA
BRANCH  24  26
ATOM     26  O   UNL A   1     -28.520  -2.924  30.273  0.00  0.00    -0.433 OA
BRANCH  26  27
ATOM     27  C   UNL A   1     -29.494  -2.793  31.171  0.00  0.00    +0.317 C 
BRANCH  27  28
ATOM     28  C   UNL A   1     -29.086  -2.046  32.308  0.00  0.00    +0.362 C 
ATOM     29  O   UNL A   1     -29.273  -2.643  33.448  0.00  0.00    -0.246 OA
BRANCH  28  30
ATOM     30  O   UNL A   1     -28.554  -0.928  32.282  0.00  0.00    -0.445 OA
BRANCH  30  31
ATOM     31  C   UNL A   1     -27.915  -0.387  33.426  0.00  0.00    +0.221 C 
BRANCH  31  32
ATOM     32  C   UNL A   1     -26.648  -0.057  33.309  0.00  0.00    +0.115 C 
ATOM     33 BR   UNL A   1     -25.983   1.539  33.424  0.00  0.00    -0.077 Br
ENDBRANCH  31  32
ENDBRANCH  30  31
ENDBRANCH  28  30
ENDBRANCH  27  28
ENDBRANCH  26  27
ENDBRANCH  24  26
ENDBRANCH  20  24
ENDBRANCH   2  18
TORSDOF 10
ENDMDL
ENDMDL
