MODEL 3813
MODEL 1
REMARK VINA RESULT:    -7.048      0.000      0.000
REMARK INTER + INTRA:         -10.700
REMARK INTER:                  -9.108
REMARK INTRA:                  -1.592
REMARK UNBOUND:                -1.592
REMARK  Name = No_3813-gen_results/8p0m/2024-11-26-14-13-15/
REMARK  5 active torsions:
REMARK  status: ('A' for Active; 'I' for Inactive)
REMARK    1  A    between atoms: C_3  and  C_7
REMARK    2  A    between atoms: C_7  and  C_8
REMARK    3  A    between atoms: C_7  and  C_15
REMARK    4  A    between atoms: C_8  and  C_9
REMARK    5  A    between atoms: C_16  and  C_17
REMARK                            x       y       z     vdW  Elec       q    Type
REMARK                         _______ _______ _______ _____ _____    ______ ____
ROOT
ATOM      1  C   UNL A   1     -23.922  -1.330  28.789  0.00  0.00    +0.049 C 
ENDROOT
BRANCH   1   4
ATOM      2  C   UNL A   1     -25.831  -2.711  29.733  0.00  0.00    -0.004 A 
ATOM      3  C   UNL A   1     -26.301  -3.649  29.825  0.00  0.00    -0.000 A 
ATOM      4  C   UNL A   1     -24.578  -2.696  29.033  0.00  0.00    -0.018 A 
ATOM      5  C   UNL A   1     -23.940  -3.808  28.656  0.00  0.00    -0.004 A 
ATOM      6  C   UNL A   1     -25.790  -4.977  29.511  0.00  0.00    -0.000 A 
ATOM      7  C   UNL A   1     -24.622  -4.981  28.884  0.00  0.00    -0.000 A 
ENDBRANCH   1   4
BRANCH   1   8
ATOM      8  C   UNL A   1     -24.349  -0.518  27.792  0.00  0.00    -0.022 C 
ATOM      9  C   UNL A   1     -23.709   0.541  27.359  0.00  0.00    -0.004 C 
BRANCH   9  10
ATOM     10  C   UNL A   1     -24.237   1.381  26.343  0.00  0.00    -0.000 C 
ATOM     11  C   UNL A   1     -24.726   0.765  25.197  0.00  0.00    -0.000 C 
ENDBRANCH   9  10
ENDBRANCH   1   8
BRANCH   1  12
ATOM     12  C   UNL A   1     -22.959  -0.852  29.765  0.00  0.00    +0.035 C 
BRANCH  12  13
ATOM     13  C   UNL A   1     -23.340  -0.502  31.048  0.00  0.00    -0.021 A 
ATOM     14  C   UNL A   1     -23.936   0.754  31.288  0.00  0.00    -0.004 A 
ATOM     15  C   UNL A   1     -24.852   0.909  32.349  0.00  0.00    -0.000 A 
ATOM     16  C   UNL A   1     -25.020  -0.155  33.196  0.00  0.00    -0.000 A 
ATOM     17  C   UNL A   1     -22.875  -1.065  32.209  0.00  0.00    -0.004 A 
ATOM     18  C   UNL A   1     -24.024  -1.140  33.244  0.00  0.00    -0.000 A 
ENDBRANCH  12  13
ENDBRANCH   1  12
TORSDOF 5
ENDMDL
ENDMDL
