REMARK  Name = No_3813-gen_results/8p0m/2024-11-26-14-13-15/
REMARK  5 active torsions:
REMARK  status: ('A' for Active; 'I' for Inactive)
REMARK    1  A    between atoms: C_3  and  C_7
REMARK    2  A    between atoms: C_7  and  C_8
REMARK    3  A    between atoms: C_7  and  C_15
REMARK    4  A    between atoms: C_8  and  C_9
REMARK    5  A    between atoms: C_16  and  C_17
REMARK                            x       y       z     vdW  Elec       q    Type
REMARK                         _______ _______ _______ _____ _____    ______ ____
ROOT
ATOM      1  C   UNL A   1     -27.460   0.380  26.709  0.00  0.00    +0.049 C 
ENDROOT
BRANCH   1   4
ATOM      2  C   UNL A   1     -28.016  -0.814  28.878  0.00  0.00    -0.004 A 
ATOM      3  C   UNL A   1     -28.469  -0.785  29.829  0.00  0.00    -0.000 A 
ATOM      4  C   UNL A   1     -28.196   0.348  28.055  0.00  0.00    -0.018 A 
ATOM      5  C   UNL A   1     -29.019   1.350  28.378  0.00  0.00    -0.004 A 
ATOM      6  C   UNL A   1     -29.411   0.180  30.378  0.00  0.00    -0.000 A 
ATOM      7  C   UNL A   1     -29.606   1.250  29.619  0.00  0.00    -0.000 A 
ENDBRANCH   1   4
BRANCH   1   8
ATOM      8  C   UNL A   1     -28.127   0.618  25.554  0.00  0.00    -0.022 C 
ATOM      9  C   UNL A   1     -28.831   1.695  25.300  0.00  0.00    -0.004 C 
BRANCH   9  10
ATOM     10  C   UNL A   1     -29.550   1.861  24.087  0.00  0.00    -0.000 C 
ATOM     11  C   UNL A   1     -29.571   0.785  23.207  0.00  0.00    -0.000 C 
ENDBRANCH   9  10
ENDBRANCH   1   8
BRANCH   1  12
ATOM     12  C   UNL A   1     -26.009   0.332  26.724  0.00  0.00    +0.035 C 
BRANCH  12  13
ATOM     13  C   UNL A   1     -25.257   1.316  27.339  0.00  0.00    -0.021 A 
ATOM     14  C   UNL A   1     -23.876   1.120  27.550  0.00  0.00    -0.004 A 
ATOM     15  C   UNL A   1     -23.002   2.226  27.578  0.00  0.00    -0.000 A 
ATOM     16  C   UNL A   1     -23.565   3.475  27.533  0.00  0.00    -0.000 A 
ATOM     17  C   UNL A   1     -25.744   2.330  28.124  0.00  0.00    -0.004 A 
ATOM     18  C   UNL A   1     -24.916   3.616  27.880  0.00  0.00    -0.000 A 
ENDBRANCH  12  13
ENDBRANCH   1  12
TORSDOF 5
