MODEL 3814
MODEL 1
REMARK VINA RESULT:    -6.481      0.000      0.000
REMARK INTER + INTRA:          -7.174
REMARK INTER:                  -6.860
REMARK INTRA:                  -0.315
REMARK UNBOUND:                -0.315
REMARK  Name = No_3814-gen_results/8p0m/2024-11-26-14-13-15/
REMARK  1 active torsions:
REMARK  status: ('A' for Active; 'I' for Inactive)
REMARK    1  A    between atoms: C_3  and  C_7
REMARK                            x       y       z     vdW  Elec       q    Type
REMARK                         _______ _______ _______ _____ _____    ______ ____
ROOT
ATOM      1  C   UNL A   1     -26.521  -3.531  29.942  0.00  0.00    +0.000 A 
ATOM      2  C   UNL A   1     -25.855  -2.551  29.702  0.00  0.00    +0.000 A 
ATOM      3  C   UNL A   1     -24.618  -2.597  29.059  0.00  0.00    +0.000 A 
ATOM      4  C   UNL A   1     -24.056  -3.886  28.703  0.00  0.00    +0.000 A 
ATOM      5  C   UNL A   1     -24.848  -4.990  29.016  0.00  0.00    +0.000 A 
ATOM      6  C   UNL A   1     -26.003  -4.855  29.637  0.00  0.00    +0.000 A 
ENDROOT
BRANCH   3   7
ATOM      7  C   UNL A   1     -23.746  -1.435  28.722  0.00  0.00    +0.000 A 
ATOM      8  C   UNL A   1     -22.598  -1.243  29.300  0.00  0.00    +0.000 A 
ATOM      9  C   UNL A   1     -21.807  -0.077  29.023  0.00  0.00    +0.000 A 
ATOM     10  C   UNL A   1     -22.241   0.947  28.255  0.00  0.00    +0.000 A 
ATOM     11  C   UNL A   1     -24.270  -0.349  27.879  0.00  0.00    +0.000 A 
ATOM     12  C   UNL A   1     -23.483   0.821  27.666  0.00  0.00    +0.000 A 
ENDBRANCH   3   7
TORSDOF 1
ENDMDL
ENDMDL
