MODEL 3815
MODEL 1
REMARK VINA RESULT:    -6.717      0.000      0.000
REMARK INTER + INTRA:          -7.930
REMARK INTER:                  -7.503
REMARK INTRA:                  -0.428
REMARK UNBOUND:                -0.428
REMARK  Name = No_3815-gen_results/8p0m/2024-11-26-14-13-15/
REMARK  2 active torsions:
REMARK  status: ('A' for Active; 'I' for Inactive)
REMARK    1  A    between atoms: C_3  and  C_7
REMARK    2  A    between atoms: C_6  and  C_13
REMARK                            x       y       z     vdW  Elec       q    Type
REMARK                         _______ _______ _______ _____ _____    ______ ____
ROOT
ATOM      1  C   UNL A   1     -29.245 -10.273  32.458  0.00  0.00    +0.007 A 
ATOM      2  C   UNL A   1     -29.657 -10.252  31.321  0.00  0.00    +0.000 A 
ATOM      3  C   UNL A   1     -29.257 -11.157  30.338  0.00  0.00    +0.000 A 
ATOM      4  C   UNL A   1     -28.249 -12.149  30.660  0.00  0.00    +0.000 A 
ATOM      5  C   UNL A   1     -27.787 -12.125  31.975  0.00  0.00    +0.007 A 
ATOM      6  C   UNL A   1     -28.213 -11.224  32.839  0.00  0.00    +0.080 A 
ENDROOT
BRANCH   3   7
ATOM      7  C   UNL A   1     -29.721 -11.203  28.915  0.00  0.00    +0.000 A 
ATOM      8  C   UNL A   1     -30.501 -10.301  28.351  0.00  0.00    +0.000 A 
ATOM      9  C   UNL A   1     -30.862 -10.380  26.976  0.00  0.00    +0.000 A 
ATOM     10  C   UNL A   1     -30.080 -11.218  26.133  0.00  0.00    +0.000 A 
ATOM     11  C   UNL A   1     -29.027 -12.053  27.956  0.00  0.00    +0.000 A 
ATOM     12  C   UNL A   1     -29.256 -12.066  26.658  0.00  0.00    +0.000 A 
ENDBRANCH   3   7
BRANCH   6  13
ATOM     13  C   UNL A   1     -27.623 -11.212  34.204  0.00  0.00    +0.388 C 
ATOM     14  O   UNL A   1     -27.250 -12.236  34.637  0.00  0.00    -0.241 OA
ATOM     15  O   UNL A   1     -27.804 -10.198  34.965  0.00  0.00    -0.241 OA
ENDBRANCH   6  13
TORSDOF 2
ENDMDL
ENDMDL
