MODEL 3816
MODEL 1
REMARK VINA RESULT:    -4.077      0.000      0.000
REMARK INTER + INTRA:          -4.077
REMARK INTER:                  -4.077
REMARK INTRA:                   0.000
REMARK UNBOUND:                 0.000
REMARK  Name = No_3816-gen_results/8p0m/2024-11-26-14-13-15/
REMARK  0 active torsions:
REMARK  status: ('A' for Active; 'I' for Inactive)
REMARK                            x       y       z     vdW  Elec       q    Type
REMARK                         _______ _______ _______ _____ _____    ______ ____
ROOT
ATOM      1  C   UNL A   1     -24.874  -4.136  29.028  0.00  0.00    +0.012 A 
ATOM      2  C   UNL A   1     -23.900  -3.450  28.817  0.00  0.00    +0.012 A 
ATOM      3  C   UNL A   1     -23.746  -2.156  29.311  0.00  0.00    +0.058 A 
ATOM      4  C   UNL A   1     -24.825  -1.558  30.074  0.00  0.00    +0.012 A 
ATOM      5  C   UNL A   1     -25.933  -2.414  30.272  0.00  0.00    +0.012 A 
ATOM      6  C   UNL A   1     -25.989  -3.617  29.761  0.00  0.00    +0.058 A 
ATOM      7 CL   UNL A   1     -22.387  -1.145  29.045  0.00  0.00    -0.082 Cl
ATOM      8 CL   UNL A   1     -27.429  -4.543  30.027  0.00  0.00    -0.082 Cl
ENDROOT
TORSDOF 0
ENDMDL
ENDMDL
