MODEL 3817
MODEL 1
REMARK VINA RESULT:    -6.429      0.000      0.000
REMARK INTER + INTRA:          -7.456
REMARK INTER:                  -7.181
REMARK INTRA:                  -0.275
REMARK UNBOUND:                -0.275
REMARK  Name = No_3817-gen_results/8p0m/2024-11-26-14-13-15/
REMARK  2 active torsions:
REMARK  status: ('A' for Active; 'I' for Inactive)
REMARK    1  A    between atoms: C_1  and  C_2
REMARK    2  A    between atoms: C_5  and  C_9
REMARK                            x       y       z     vdW  Elec       q    Type
REMARK                         _______ _______ _______ _____ _____    ______ ____
ROOT
ATOM      1  C   UNL A   1     -30.647 -11.134  10.842  0.00  0.00    +0.054 A 
ATOM      2  C   UNL A   1     -30.111 -11.716  11.945  0.00  0.00    +0.004 A 
ATOM      3  C   UNL A   1     -29.915 -13.173  12.117  0.00  0.00    +0.004 A 
ATOM      4  C   UNL A   1     -30.349 -14.016  11.041  0.00  0.00    +0.071 A 
ATOM      5  C   UNL A   1     -30.967 -13.378   9.942  0.00  0.00    +0.004 A 
ATOM      6  C   UNL A   1     -31.114 -12.018   9.852  0.00  0.00    +0.004 A 
ENDROOT
BRANCH   1   7
ATOM      7  C   UNL A   1     -30.802  -9.941  10.716  0.00  0.00    +0.249 C 
ATOM      8  N   UNL A   1     -30.146  -9.259   9.602  0.00  0.00    -0.275 N 
ATOM      9  O   UNL A   1     -31.830  -9.311  11.112  0.00  0.00    -0.270 OA
ATOM     10  C   UNL A   1     -30.233  -7.826   9.305  0.00  0.00    +0.110 C 
ATOM     11  C   UNL A   1     -28.705  -9.653   9.441  0.00  0.00    +0.094 C 
ATOM     12  C   UNL A   1     -29.186  -7.073   9.265  0.00  0.00    +0.100 C 
ATOM     13 CL   UNL A   1     -29.547  -5.505   8.611  0.00  0.00    -0.113 Cl
ATOM     14  C   UNL A   1     -27.864  -7.359   9.123  0.00  0.00    +0.020 C 
ATOM     15  C   UNL A   1     -27.655  -8.767   9.452  0.00  0.00    +0.023 C 
ENDBRANCH   1   7
BRANCH   4  16
ATOM     16  C   UNL A   1     -30.225 -15.442  11.091  0.00  0.00    +0.419 C 
ATOM     17  F   UNL A   1     -30.021 -15.924  12.109  0.00  0.00    -0.166 F 
ATOM     18  F   UNL A   1     -29.203 -15.865  10.245  0.00  0.00    -0.166 F 
ATOM     19  F   UNL A   1     -31.324 -15.995  10.471  0.00  0.00    -0.166 F 
ENDBRANCH   4  16
TORSDOF 2
ENDMDL
ENDMDL
