MODEL 3818
MODEL 1
REMARK VINA RESULT:    -5.023      0.000      0.000
REMARK INTER + INTRA:          -5.355
REMARK INTER:                  -5.317
REMARK INTRA:                  -0.038
REMARK UNBOUND:                -0.038
REMARK  Name = No_3818-gen_results/8p0m/2024-11-26-14-13-15/
REMARK  1 active torsions:
REMARK  status: ('A' for Active; 'I' for Inactive)
REMARK    1  A    between atoms: C_2  and  C_7
REMARK                            x       y       z     vdW  Elec       q    Type
REMARK                         _______ _______ _______ _____ _____    ______ ____
ROOT
ATOM      1  C   UNL A   1     -28.900 -10.513  32.770  0.00  0.00    +0.007 A 
ATOM      2  C   UNL A   1     -28.108 -11.424  32.703  0.00  0.00    +0.080 A 
ATOM      3  C   UNL A   1     -27.900 -12.109  31.511  0.00  0.00    +0.007 A 
ATOM      4  C   UNL A   1     -28.656 -11.784  30.329  0.00  0.00    +0.000 A 
ATOM      5  C   UNL A   1     -29.567 -10.734  30.501  0.00  0.00    +0.000 A 
ATOM      6  C   UNL A   1     -29.738 -10.130  31.655  0.00  0.00    +0.000 A 
ENDROOT
BRANCH   2   7
ATOM      7  C   UNL A   1     -27.263 -11.911  33.827  0.00  0.00    +0.388 C 
ATOM      8  O   UNL A   1     -26.790 -12.840  33.819  0.00  0.00    -0.241 OA
ATOM      9  O   UNL A   1     -26.987 -10.850  34.626  0.00  0.00    -0.241 OA
ENDBRANCH   2   7
TORSDOF 1
ENDMDL
ENDMDL
