REMARK  Name = No_3819-gen_results/8p0m/2024-11-26-14-13-15/
REMARK  2 active torsions:
REMARK  status: ('A' for Active; 'I' for Inactive)
REMARK    1  A    between atoms: C_2  and  C_7
REMARK    2  A    between atoms: C_3  and  C_15
REMARK                            x       y       z     vdW  Elec       q    Type
REMARK                         _______ _______ _______ _____ _____    ______ ____
ROOT
ATOM      1  C   UNL A   1     -28.016  -0.814  28.878  0.00  0.00    +0.009 A 
ATOM      2  C   UNL A   1     -28.469  -0.785  29.829  0.00  0.00    +0.054 A 
ATOM      3  C   UNL A   1     -26.546  -0.876  28.850  0.00  0.00    +0.055 A 
ATOM      4  C   UNL A   1     -25.804  -1.032  30.057  0.00  0.00    +0.005 A 
ATOM      5  C   UNL A   1     -27.944  -0.987  31.207  0.00  0.00    +0.004 A 
ATOM      6  C   UNL A   1     -26.582  -1.039  31.223  0.00  0.00    +0.000 A 
ENDROOT
BRANCH   2   7
ATOM      7  C   UNL A   1     -30.061  -0.737  29.902  0.00  0.00    +0.249 C 
ATOM      8  N   UNL A   1     -30.606  -0.035  29.009  0.00  0.00    -0.276 N 
ATOM      9  C   UNL A   1     -30.120   1.010  28.545  0.00  0.00    +0.094 C 
ATOM     10  C   UNL A   1     -30.326   1.195  27.045  0.00  0.00    +0.022 C 
ATOM     11  C   UNL A   1     -31.038   0.431  26.373  0.00  0.00    +0.004 C 
ATOM     12  C   UNL A   1     -31.702  -0.673  27.021  0.00  0.00    +0.022 C 
ATOM     13  C   UNL A   1     -31.437  -0.937  28.271  0.00  0.00    +0.094 C 
ATOM     14  O   UNL A   1     -30.656  -1.244  30.921  0.00  0.00    -0.270 OA
ENDBRANCH   2   7
BRANCH   3  15
ATOM     15  C   UNL A   1     -25.729  -0.756  27.587  0.00  0.00    +0.265 C 
ATOM     16  N   UNL A   1     -26.184  -0.079  26.604  0.00  0.00    -0.200 NA
ATOM     17  C   UNL A   1     -25.516   0.122  25.493  0.00  0.00    +0.139 C 
ATOM     18  O   UNL A   1     -24.633  -1.163  27.651  0.00  0.00    -0.268 OA
ENDBRANCH   3  15
TORSDOF 2
