MODEL 381
MODEL 1
REMARK VINA RESULT:    -5.011      0.000      0.000
REMARK INTER + INTRA:          -6.077
REMARK INTER:                  -5.890
REMARK INTRA:                  -0.187
REMARK UNBOUND:                -0.187
REMARK  Name = No_381-gen_results/8p0m/2024-11-26-14-13-15/
REMARK  3 active torsions:
REMARK  status: ('A' for Active; 'I' for Inactive)
REMARK    1  A    between atoms: C_3  and  O_9
REMARK    2  A    between atoms: O_9  and  C_10
REMARK    3  A    between atoms: C_10  and  C_11
REMARK                            x       y       z     vdW  Elec       q    Type
REMARK                         _______ _______ _______ _____ _____    ______ ____
ROOT
ATOM      1  C   UNL A   1     -24.405  -0.441  27.797  0.00  0.00    +0.051 A 
ATOM      2  C   UNL A   1     -24.366   0.498  27.319  0.00  0.00    +0.061 A 
ATOM      3  C   UNL A   1     -23.137  -0.863  28.506  0.00  0.00    +0.167 A 
ATOM      4  C   UNL A   1     -22.067   0.050  28.609  0.00  0.00    +0.174 A 
ATOM      5  C   UNL A   1     -23.413   1.631  27.302  0.00  0.00    +0.014 A 
ATOM      6  C   UNL A   1     -22.237   1.282  27.950  0.00  0.00    +0.034 A 
ATOM      7 CL   UNL A   1     -25.897   1.015  26.470  0.00  0.00    -0.082 Cl
ATOM      8  F   UNL A   1     -20.969  -0.301  29.190  0.00  0.00    -0.201 F 
ENDROOT
BRANCH   3   9
ATOM      9  O   UNL A   1     -22.965  -2.055  29.131  0.00  0.00    -0.468 OA
BRANCH   9  10
ATOM     10  C   UNL A   1     -24.059  -2.893  29.292  0.00  0.00    +0.232 C 
BRANCH  10  11
ATOM     11  C   UNL A   1     -24.151  -4.064  28.594  0.00  0.00    +0.021 C 
ATOM     12  C   UNL A   1     -24.781  -5.150  28.999  0.00  0.00    -0.001 C 
ENDBRANCH  10  11
ENDBRANCH   9  10
ENDBRANCH   3   9
TORSDOF 3
ENDMDL
ENDMDL
