REMARK  Name = No_382-gen_results/8p0m/2024-11-26-14-13-15/
REMARK  5 active torsions:
REMARK  status: ('A' for Active; 'I' for Inactive)
REMARK    1  A    between atoms: C_2  and  N_7
REMARK    2  A    between atoms: C_8  and  C_9
REMARK    3  A    between atoms: C_9  and  C_10
REMARK    4  A    between atoms: C_15  and  C_16
REMARK    5  A    between atoms: C_16  and  C_18
REMARK                            x       y       z     vdW  Elec       q    Type
REMARK                         _______ _______ _______ _____ _____    ______ ____
ROOT
ATOM      1  C   UNL A   1     -29.360   1.412  29.156  0.00  0.00    -0.019 A 
ATOM      2  C   UNL A   1     -30.656   1.774  29.765  0.00  0.00    -0.004 A 
ATOM      3  C   UNL A   1     -30.900   1.548  31.141  0.00  0.00    -0.000 A 
ATOM      4  C   UNL A   1     -29.856   0.892  31.857  0.00  0.00    -0.000 A 
ATOM      5  C   UNL A   1     -28.660   0.593  31.359  0.00  0.00    -0.004 A 
ATOM      6  C   UNL A   1     -28.417   0.804  30.047  0.00  0.00    -0.021 A 
ATOM      7  C   UNL A   1     -31.754   2.268  28.980  0.00  0.00    -0.000 A 
ATOM      8  C   UNL A   1     -32.748   2.806  29.550  0.00  0.00    -0.000 A 
ATOM      9  C   UNL A   1     -33.002   2.570  30.956  0.00  0.00    -0.000 A 
ATOM     10  C   UNL A   1     -32.102   1.963  31.762  0.00  0.00    -0.000 A 
ENDROOT
BRANCH   1  11
ATOM     11  C   UNL A   1     -29.119   1.649  28.008  0.00  0.00    +0.084 C 
BRANCH  11  13
ATOM     12  N   UNL A   1     -27.106   1.034  27.819  0.00  0.00    -0.235 NA
ATOM     13  C   UNL A   1     -27.821   1.684  27.502  0.00  0.00    +0.120 C 
ATOM     14 CL   UNL A   1     -27.549   2.752  26.094  0.00  0.00    -0.066 Cl
BRANCH  12  16
ATOM     15  C   UNL A   1     -28.016  -0.814  28.878  0.00  0.00    +0.213 A 
ATOM     16  C   UNL A   1     -27.064  -0.119  28.608  0.00  0.00    +0.121 A 
ATOM     17  C   UNL A   1     -25.792  -0.430  29.076  0.00  0.00    +0.022 A 
ATOM     18  C   UNL A   1     -25.576  -1.565  29.936  0.00  0.00    +0.002 A 
ATOM     19  C   UNL A   1     -26.735  -2.300  30.217  0.00  0.00    +0.003 A 
ATOM     20  C   UNL A   1     -27.918  -1.954  29.763  0.00  0.00    +0.044 A 
ATOM     21  O   UNL A   1     -29.105  -0.858  28.270  0.00  0.00    -0.285 OA
ENDBRANCH  12  16
ENDBRANCH  11  13
ENDBRANCH   1  11
BRANCH   6  22
ATOM     22  C   UNL A   1     -27.237   1.798  30.209  0.00  0.00    +0.052 C 
BRANCH  22  23
ATOM     23  C   UNL A   1     -27.425   3.298  30.438  0.00  0.00    -0.018 A 
ATOM     24  C   UNL A   1     -27.358   3.706  31.588  0.00  0.00    -0.004 A 
ATOM     25  C   UNL A   1     -27.384   5.154  31.818  0.00  0.00    -0.000 A 
ATOM     26  C   UNL A   1     -27.708   4.118  29.358  0.00  0.00    -0.004 A 
ATOM     27  C   UNL A   1     -27.784   5.509  29.510  0.00  0.00    -0.000 A 
ATOM     28  C   UNL A   1     -27.639   6.016  30.796  0.00  0.00    -0.000 A 
ENDBRANCH  22  23
ENDBRANCH   6  22
TORSDOF 5
