MODEL 3820
MODEL 1
REMARK VINA RESULT:    -6.190      0.000      0.000
REMARK INTER + INTRA:          -7.018
REMARK INTER:                  -6.552
REMARK INTRA:                  -0.466
REMARK UNBOUND:                -0.466
REMARK  Name = No_3820-gen_results/8p0m/2024-11-26-14-13-15/
REMARK  1 active torsions:
REMARK  status: ('A' for Active; 'I' for Inactive)
REMARK    1  A    between atoms: C_2  and  C_7
REMARK                            x       y       z     vdW  Elec       q    Type
REMARK                         _______ _______ _______ _____ _____    ______ ____
ROOT
ATOM      1  C   UNL A   1     -24.490  -1.108  29.101  0.00  0.00    +0.078 C 
ATOM      2  N   UNL A   1     -24.668  -0.534  28.005  0.00  0.00    -0.217 NA
ATOM      3  C   UNL A   1     -24.210   0.230  27.429  0.00  0.00    +0.089 C 
ATOM      4  C   UNL A   1     -22.973   0.735  27.797  0.00  0.00    +0.019 C 
ATOM      5  C   UNL A   1     -22.614   0.284  29.107  0.00  0.00    +0.003 C 
ATOM      6  C   UNL A   1     -22.898  -1.131  29.295  0.00  0.00    +0.020 C 
ATOM      7  C   UNL A   1     -24.987  -0.352  30.344  0.00  0.00    +0.022 C 
ENDROOT
BRANCH   1   9
ATOM      8  C   UNL A   1     -25.842  -2.858  29.660  0.00  0.00    -0.003 A 
ATOM      9  C   UNL A   1     -24.945  -2.648  29.148  0.00  0.00    -0.008 A 
ATOM     10  C   UNL A   1     -26.241  -4.316  29.701  0.00  0.00    -0.000 A 
ATOM     11  C   UNL A   1     -25.351  -5.290  29.200  0.00  0.00    -0.000 A 
ATOM     12  C   UNL A   1     -23.843  -3.457  28.581  0.00  0.00    -0.003 A 
ATOM     13  C   UNL A   1     -24.170  -4.805  28.607  0.00  0.00    -0.000 A 
ENDBRANCH   1   9
TORSDOF 1
ENDMDL
ENDMDL
