REMARK  Name = No_3820-gen_results/8p0m/2024-11-26-14-13-15/
REMARK  1 active torsions:
REMARK  status: ('A' for Active; 'I' for Inactive)
REMARK    1  A    between atoms: C_2  and  C_7
REMARK                            x       y       z     vdW  Elec       q    Type
REMARK                         _______ _______ _______ _____ _____    ______ ____
ROOT
ATOM      1  C   UNL A   1     -30.074  -0.836  29.861  0.00  0.00    +0.078 C 
ATOM      2  N   UNL A   1     -30.645  -0.184  28.960  0.00  0.00    -0.217 NA
ATOM      3  C   UNL A   1     -31.545   0.363  28.829  0.00  0.00    +0.089 C 
ATOM      4  C   UNL A   1     -32.357   0.642  29.917  0.00  0.00    +0.019 C 
ATOM      5  C   UNL A   1     -31.941  -0.108  31.062  0.00  0.00    +0.003 C 
ATOM      6  C   UNL A   1     -30.494  -0.103  31.224  0.00  0.00    +0.020 C 
ATOM      7  C   UNL A   1     -30.572  -2.276  30.066  0.00  0.00    +0.022 C 
ENDROOT
BRANCH   1   9
ATOM      8  C   UNL A   1     -28.016  -0.814  28.878  0.00  0.00    -0.003 A 
ATOM      9  C   UNL A   1     -28.469  -0.785  29.829  0.00  0.00    -0.008 A 
ATOM     10  C   UNL A   1     -26.504  -0.778  28.877  0.00  0.00    -0.000 A 
ATOM     11  C   UNL A   1     -25.810  -0.853  30.103  0.00  0.00    -0.000 A 
ATOM     12  C   UNL A   1     -27.991  -0.892  31.226  0.00  0.00    -0.003 A 
ATOM     13  C   UNL A   1     -26.604  -0.868  31.265  0.00  0.00    -0.000 A 
ENDBRANCH   1   9
TORSDOF 1
