REMARK  Name = No_3821-gen_results/8p0m/2024-11-26-14-13-15/
REMARK  2 active torsions:
REMARK  status: ('A' for Active; 'I' for Inactive)
REMARK    1  A    between atoms: C_1  and  C_2
REMARK    2  A    between atoms: C_1  and  C_9
REMARK                            x       y       z     vdW  Elec       q    Type
REMARK                         _______ _______ _______ _____ _____    ______ ____
ROOT
ATOM      1  C   UNL A   1     -27.064  -0.119  28.608  0.00  0.00    -0.014 A 
ATOM      2  C   UNL A   1     -27.001   0.691  27.491  0.00  0.00    -0.004 A 
ATOM      3  C   UNL A   1     -25.855   1.482  27.083  0.00  0.00    +0.004 A 
ATOM      4  C   UNL A   1     -24.690   1.453  27.881  0.00  0.00    +0.052 A 
ATOM      5  C   UNL A   1     -23.488   2.145  27.601  0.00  0.00    +0.269 C 
ATOM      6  C   UNL A   1     -25.812  -0.166  29.430  0.00  0.00    -0.008 A 
ATOM      7  C   UNL A   1     -24.646   0.589  29.081  0.00  0.00    -0.014 A 
ATOM      8  N   UNL A   1     -22.460   1.599  27.244  0.00  0.00    -0.174 NA
ATOM      9  O   UNL A   1     -23.642   3.439  27.420  0.00  0.00    -0.268 OA
ATOM     10  C   UNL A   1     -21.958   0.413  27.851  0.00  0.00    +0.085 C 
ATOM     11  C   UNL A   1     -22.473  -0.234  28.771  0.00  0.00    -0.004 C 
ATOM     12  C   UNL A   1     -23.837  -0.402  29.118  0.00  0.00    +0.054 C 
ENDROOT
BRANCH   1  13
ATOM     13  C   UNL A   1     -28.016  -0.814  28.878  0.00  0.00    +0.130 C 
BRANCH  13  14
ATOM     14  C   UNL A   1     -28.669  -0.486  30.241  0.00  0.00    +0.402 C 
ATOM     15  F   UNL A   1     -29.431  -1.485  30.637  0.00  0.00    -0.170 F 
ATOM     16  F   UNL A   1     -29.491   0.589  30.195  0.00  0.00    -0.170 F 
ATOM     17  F   UNL A   1     -27.785  -0.351  31.232  0.00  0.00    -0.170 F 
ENDBRANCH  13  14
ENDBRANCH   1  13
TORSDOF 2
