MODEL 3821
MODEL 1
REMARK VINA RESULT:    -6.624      0.000      0.000
REMARK INTER + INTRA:          -7.763
REMARK INTER:                  -7.398
REMARK INTRA:                  -0.365
REMARK UNBOUND:                -0.365
REMARK  Name = No_3821-gen_results/8p0m/2024-11-26-14-13-15/
REMARK  2 active torsions:
REMARK  status: ('A' for Active; 'I' for Inactive)
REMARK    1  A    between atoms: C_1  and  C_2
REMARK    2  A    between atoms: C_1  and  C_9
REMARK                            x       y       z     vdW  Elec       q    Type
REMARK                         _______ _______ _______ _____ _____    ______ ____
ROOT
ATOM      1  C   UNL A   1     -23.662   1.348  27.146  0.00  0.00    -0.014 A 
ATOM      2  C   UNL A   1     -24.737   0.501  26.957  0.00  0.00    -0.004 A 
ATOM      3  C   UNL A   1     -24.959  -0.752  27.653  0.00  0.00    +0.004 A 
ATOM      4  C   UNL A   1     -24.008  -1.179  28.606  0.00  0.00    +0.052 A 
ATOM      5  C   UNL A   1     -24.099  -2.358  29.382  0.00  0.00    +0.269 C 
ATOM      6  C   UNL A   1     -22.675   0.900  28.181  0.00  0.00    -0.008 A 
ATOM      7  C   UNL A   1     -22.838  -0.325  28.905  0.00  0.00    -0.014 A 
ATOM      8  N   UNL A   1     -24.325  -2.365  30.579  0.00  0.00    -0.174 NA
ATOM      9  O   UNL A   1     -24.264  -3.456  28.676  0.00  0.00    -0.268 OA
ATOM     10  C   UNL A   1     -23.686  -1.483  31.495  0.00  0.00    +0.085 C 
ATOM     11  C   UNL A   1     -22.865  -0.596  31.234  0.00  0.00    -0.004 C 
ATOM     12  C   UNL A   1     -22.716   0.196  30.067  0.00  0.00    +0.054 C 
ENDROOT
BRANCH   1  13
ATOM     13  C   UNL A   1     -23.546   2.417  26.593  0.00  0.00    +0.130 C 
BRANCH  13  14
ATOM     14  C   UNL A   1     -22.708   2.367  25.295  0.00  0.00    +0.402 C 
ATOM     15  F   UNL A   1     -22.736   3.534  24.684  0.00  0.00    -0.170 F 
ATOM     16  F   UNL A   1     -23.181   1.481  24.387  0.00  0.00    -0.170 F 
ATOM     17  F   UNL A   1     -21.408   2.156  25.513  0.00  0.00    -0.170 F 
ENDBRANCH  13  14
ENDBRANCH   1  13
TORSDOF 2
ENDMDL
ENDMDL
