MODEL 3822
MODEL 1
REMARK VINA RESULT:    -8.721      0.000      0.000
REMARK INTER + INTRA:         -13.716
REMARK INTER:                 -11.779
REMARK INTRA:                  -1.936
REMARK UNBOUND:                -1.936
REMARK  Name = No_3822-gen_results/8p0m/2024-11-26-14-13-15/
REMARK  6 active torsions:
REMARK  status: ('A' for Active; 'I' for Inactive)
REMARK    1  A    between atoms: C_2  and  C_7
REMARK    2  A    between atoms: C_3  and  C_16
REMARK    3  A    between atoms: N_9  and  C_10
REMARK    4  A    between atoms: N_9  and  C_30
REMARK    5  A    between atoms: C_14  and  C_23
REMARK    6  A    between atoms: C_16  and  C_17
REMARK                            x       y       z     vdW  Elec       q    Type
REMARK                         _______ _______ _______ _____ _____    ______ ____
ROOT
ATOM      1  C   UNL A   1     -25.542   0.483  25.357  0.00  0.00    +0.257 C 
ATOM      2  O   UNL A   1     -25.562  -0.070  24.423  0.00  0.00    -0.269 OA
ATOM      3  N   UNL A   1     -26.594   1.309  25.766  0.00  0.00    -0.234 N 
ENDROOT
BRANCH   1   5
ATOM      4  C   UNL A   1     -24.329  -0.005  27.227  0.00  0.00    +0.001 A 
ATOM      5  C   UNL A   1     -24.301   0.608  26.370  0.00  0.00    +0.054 A 
ATOM      6  C   UNL A   1     -23.156   0.142  28.169  0.00  0.00    -0.018 A 
ATOM      7  C   UNL A   1     -22.202   1.154  27.933  0.00  0.00    -0.004 A 
ATOM      8  C   UNL A   1     -23.464   1.740  25.913  0.00  0.00    +0.004 A 
ATOM      9  C   UNL A   1     -22.377   1.910  26.759  0.00  0.00    -0.000 A 
BRANCH   6  10
ATOM     10  C   UNL A   1     -22.900  -0.729  29.330  0.00  0.00    +0.053 C 
BRANCH  10  11
ATOM     11  C   UNL A   1     -23.895  -1.730  29.571  0.00  0.00    -0.018 A 
ATOM     12  C   UNL A   1     -25.035  -1.354  30.215  0.00  0.00    -0.004 A 
ATOM     13  C   UNL A   1     -26.141  -2.307  30.285  0.00  0.00    -0.000 A 
ATOM     14  C   UNL A   1     -26.019  -3.535  29.687  0.00  0.00    -0.000 A 
ATOM     15  C   UNL A   1     -23.840  -2.982  28.919  0.00  0.00    -0.004 A 
ATOM     16  C   UNL A   1     -24.894  -3.925  29.118  0.00  0.00    -0.000 A 
ENDBRANCH  10  11
ENDBRANCH   6  10
ENDBRANCH   1   5
BRANCH   3  17
ATOM     17  C   UNL A   1     -26.698   2.043  26.959  0.00  0.00    +0.058 A 
ATOM     18  C   UNL A   1     -27.314   1.741  27.971  0.00  0.00    +0.015 A 
ATOM     19  C   UNL A   1     -27.406   2.545  29.195  0.00  0.00    +0.001 A 
ATOM     20  C   UNL A   1     -26.805   3.841  29.161  0.00  0.00    +0.000 A 
ATOM     21  C   UNL A   1     -26.173   4.216  27.954  0.00  0.00    +0.001 A 
ATOM     22  C   UNL A   1     -26.112   3.435  26.909  0.00  0.00    +0.015 A 
BRANCH  21  23
ATOM     23  C   UNL A   1     -25.512   5.577  27.988  0.00  0.00    +0.000 A 
ATOM     24  C   UNL A   1     -24.805   6.078  26.973  0.00  0.00    +0.003 A 
ATOM     25  C   UNL A   1     -24.395   7.401  27.008  0.00  0.00    +0.042 A 
ATOM     26  C   UNL A   1     -25.684   6.454  29.112  0.00  0.00    +0.003 A 
ATOM     27  C   UNL A   1     -25.019   7.666  29.245  0.00  0.00    +0.042 A 
ATOM     28  C   UNL A   1     -24.395   8.178  28.152  0.00  0.00    +0.196 A 
ATOM     29  O   UNL A   1     -23.855   9.387  28.178  0.00  0.00    -0.287 OA
ENDBRANCH  21  23
ENDBRANCH   3  17
BRANCH   3  30
ATOM     30  C   UNL A   1     -27.713   1.462  24.905  0.00  0.00    +0.058 A 
ATOM     31  C   UNL A   1     -27.958   2.416  24.138  0.00  0.00    +0.015 A 
ATOM     32  C   UNL A   1     -29.038   2.451  23.294  0.00  0.00    +0.001 A 
ATOM     33  C   UNL A   1     -29.907   1.348  23.339  0.00  0.00    +0.000 A 
ATOM     34  C   UNL A   1     -29.713   0.312  24.170  0.00  0.00    +0.001 A 
ATOM     35  C   UNL A   1     -28.603   0.304  24.946  0.00  0.00    +0.015 A 
ENDBRANCH   3  30
TORSDOF 6
ENDMDL
ENDMDL
