MODEL 3823
MODEL 1
REMARK VINA RESULT:    -7.544      0.000      0.000
REMARK INTER + INTRA:          -7.780
REMARK INTER:                  -7.985
REMARK INTRA:                   0.205
REMARK UNBOUND:                 0.205
REMARK  Name = No_3823-gen_results/8p0m/2024-11-26-14-13-15/
REMARK  1 active torsions:
REMARK  status: ('A' for Active; 'I' for Inactive)
REMARK    1  A    between atoms: C_3  and  C_7
REMARK                            x       y       z     vdW  Elec       q    Type
REMARK                         _______ _______ _______ _____ _____    ______ ____
ROOT
ATOM      1  C   UNL A   1     -25.480  -1.434  30.186  0.00  0.00    +0.026 C 
ATOM      2  C   UNL A   1     -25.236  -0.451  29.230  0.00  0.00    +0.026 C 
ATOM      3  C   UNL A   1     -23.993  -0.092  28.808  0.00  0.00    -0.050 C 
ATOM      4  C   UNL A   1     -23.759   0.763  27.701  0.00  0.00    -0.022 C 
ATOM      5  C   UNL A   1     -22.570   1.485  27.571  0.00  0.00    +0.147 C 
ATOM      6  N   UNL A   1     -22.508   2.223  26.410  0.00  0.00    -0.269 NA
ATOM      7  C   UNL A   1     -24.881  -1.135  31.404  0.00  0.00    +0.005 C 
ATOM      8  C   UNL A   1     -23.512   1.775  25.534  0.00  0.00    +0.071 C 
ATOM      9  C   UNL A   1     -24.216   0.856  26.362  0.00  0.00    +0.070 C 
ATOM     10  C   UNL A   1     -22.849  -0.429  29.654  0.00  0.00    +0.021 C 
ATOM     11  C   UNL A   1     -23.369  -0.922  31.150  0.00  0.00    +0.005 C 
ENDROOT
BRANCH   1  14
ATOM     12  C   UNL A   1     -24.027  -3.191  28.887  0.00  0.00    -0.004 A 
ATOM     13  C   UNL A   1     -23.946  -4.219  28.674  0.00  0.00    -0.000 A 
ATOM     14  C   UNL A   1     -25.205  -2.852  29.695  0.00  0.00    -0.022 A 
ATOM     15  C   UNL A   1     -26.166  -3.736  29.966  0.00  0.00    -0.004 A 
ATOM     16  C   UNL A   1     -24.844  -5.336  28.840  0.00  0.00    -0.000 A 
ATOM     17  C   UNL A   1     -25.944  -4.995  29.571  0.00  0.00    -0.000 A 
ENDBRANCH   1  14
TORSDOF 1
ENDMDL
ENDMDL
