REMARK  Name = No_3823-gen_results/8p0m/2024-11-26-14-13-15/
REMARK  1 active torsions:
REMARK  status: ('A' for Active; 'I' for Inactive)
REMARK    1  A    between atoms: C_3  and  C_7
REMARK                            x       y       z     vdW  Elec       q    Type
REMARK                         _______ _______ _______ _____ _____    ______ ____
ROOT
ATOM      1  C   UNL A   1     -27.543   0.637  26.744  0.00  0.00    +0.026 C 
ATOM      2  C   UNL A   1     -26.154   0.530  26.750  0.00  0.00    +0.026 C 
ATOM      3  C   UNL A   1     -25.323   1.453  27.308  0.00  0.00    -0.050 C 
ATOM      4  C   UNL A   1     -23.931   1.246  27.485  0.00  0.00    -0.022 C 
ATOM      5  C   UNL A   1     -23.040   2.316  27.602  0.00  0.00    +0.147 C 
ATOM      6  N   UNL A   1     -21.739   1.918  27.813  0.00  0.00    -0.269 NA
ATOM      7  C   UNL A   1     -27.973   1.786  26.092  0.00  0.00    +0.005 C 
ATOM      8  C   UNL A   1     -21.735   0.562  28.185  0.00  0.00    +0.071 C 
ATOM      9  C   UNL A   1     -23.105   0.219  28.007  0.00  0.00    +0.070 C 
ATOM     10  C   UNL A   1     -25.841   2.799  27.546  0.00  0.00    +0.021 C 
ATOM     11  C   UNL A   1     -27.293   3.000  26.769  0.00  0.00    +0.005 C 
ENDROOT
BRANCH   1  14
ATOM     12  C   UNL A   1     -28.016  -0.814  28.878  0.00  0.00    -0.004 A 
ATOM     13  C   UNL A   1     -28.469  -0.785  29.829  0.00  0.00    -0.000 A 
ATOM     14  C   UNL A   1     -28.182   0.428  28.113  0.00  0.00    -0.022 A 
ATOM     15  C   UNL A   1     -28.984   1.415  28.515  0.00  0.00    -0.004 A 
ATOM     16  C   UNL A   1     -29.380   0.138  30.461  0.00  0.00    -0.000 A 
ATOM     17  C   UNL A   1     -29.541   1.274  29.724  0.00  0.00    -0.000 A 
ENDBRANCH   1  14
TORSDOF 1
