MODEL 3824
MODEL 1
REMARK VINA RESULT:    -5.319      0.000      0.000
REMARK INTER + INTRA:          -6.016
REMARK INTER:                  -5.941
REMARK INTRA:                  -0.074
REMARK UNBOUND:                -0.074
REMARK  Name = No_3824-gen_results/8p0m/2024-11-26-14-13-15/
REMARK  2 active torsions:
REMARK  status: ('A' for Active; 'I' for Inactive)
REMARK    1  A    between atoms: C_1  and  C_8
REMARK    2  A    between atoms: C_5  and  C_11
REMARK                            x       y       z     vdW  Elec       q    Type
REMARK                         _______ _______ _______ _____ _____    ______ ____
ROOT
ATOM      1  C   UNL A   1     -16.179 -23.079   8.088  0.00  0.00    +0.053 C 
ATOM      2  C   UNL A   1     -17.014 -22.277   7.738  0.00  0.00    -0.040 C 
ATOM      3  C   UNL A   1     -16.795 -21.319   6.749  0.00  0.00    +0.023 C 
ATOM      4  C   UNL A   1     -17.747 -20.298   6.270  0.00  0.00    +0.010 C 
ATOM      5  C   UNL A   1     -19.093 -20.441   6.727  0.00  0.00    +0.044 C 
ATOM      6  C   UNL A   1     -19.367 -21.421   7.687  0.00  0.00    +0.010 C 
ATOM      7  C   UNL A   1     -18.434 -22.281   8.154  0.00  0.00    +0.023 C 
ENDROOT
BRANCH   1   8
ATOM      8  C   UNL A   1     -15.240 -22.507   9.130  0.00  0.00    +0.284 C 
ATOM      9  O   UNL A   1     -14.266 -22.141   9.041  0.00  0.00    -0.267 OA
ATOM     10  N   UNL A   1     -15.934 -22.537  10.440  0.00  0.00    -0.084 NA
ENDBRANCH   1   8
BRANCH   5  11
ATOM     11  C   UNL A   1     -20.053 -19.448   6.254  0.00  0.00    +0.095 C 
ATOM     12  N   UNL A   1     -19.668 -18.302   5.716  0.00  0.00    -0.151 NA
ENDBRANCH   5  11
TORSDOF 2
ENDMDL
ENDMDL
