MODEL 3825
MODEL 1
REMARK VINA RESULT:    -4.279      0.000      0.000
REMARK INTER + INTRA:          -4.279
REMARK INTER:                  -4.279
REMARK INTRA:                   0.000
REMARK UNBOUND:                 0.000
REMARK  Name = No_3825-gen_results/8p0m/2024-11-26-14-13-15/
REMARK  0 active torsions:
REMARK  status: ('A' for Active; 'I' for Inactive)
REMARK                            x       y       z     vdW  Elec       q    Type
REMARK                         _______ _______ _______ _____ _____    ______ ____
ROOT
ATOM      1  C   UNL A   1     -26.381  -3.849  29.793  0.00  0.00    +0.000 A 
ATOM      2  C   UNL A   1     -26.082  -4.837  29.581  0.00  0.00    +0.000 A 
ATOM      3  C   UNL A   1     -25.402  -2.841  29.387  0.00  0.00    +0.000 A 
ATOM      4  C   UNL A   1     -24.222  -3.176  28.771  0.00  0.00    +0.000 A 
ATOM      5  C   UNL A   1     -24.926  -5.475  28.952  0.00  0.00    +0.000 A 
ATOM      6  C   UNL A   1     -23.972  -4.507  28.555  0.00  0.00    +0.000 A 
ENDROOT
TORSDOF 0
ENDMDL
ENDMDL
