REMARK  Name = No_3826-gen_results/8p0m/2024-11-26-14-13-15/
REMARK  0 active torsions:
REMARK  status: ('A' for Active; 'I' for Inactive)
REMARK                            x       y       z     vdW  Elec       q    Type
REMARK                         _______ _______ _______ _____ _____    ______ ____
ROOT
ATOM      1  O   UNL A   1     -28.123  -1.335  28.487  0.00  0.00    -0.262 OA
ATOM      2  C   UNL A   1     -28.521  -0.436  29.078  0.00  0.00    +0.284 C 
ATOM      3 BR   UNL A   1     -29.966   0.306  29.214  0.00  0.00    +0.015 Br
ATOM      4  N   UNL A   1     -27.557  -0.006  30.097  0.00  0.00    -0.259 N 
ATOM      5  C   UNL A   1     -27.560   1.087  30.866  0.00  0.00    +0.095 C 
ATOM      6  C   UNL A   1     -26.817   1.023  31.878  0.00  0.00    +0.022 C 
ATOM      7  C   UNL A   1     -25.607   0.176  32.042  0.00  0.00    +0.005 C 
ATOM      8  C   UNL A   1     -25.569  -0.841  31.089  0.00  0.00    +0.037 C 
ATOM      9  C   UNL A   1     -26.522  -1.012  30.207  0.00  0.00    +0.156 C 
ATOM     10 CL   UNL A   1     -26.503  -2.300  29.152  0.00  0.00    -0.093 Cl
ENDROOT
TORSDOF 0
