MODEL 3826
MODEL 1
REMARK VINA RESULT:    -4.541      0.000      0.000
REMARK INTER + INTRA:          -4.541
REMARK INTER:                  -4.541
REMARK INTRA:                   0.000
REMARK UNBOUND:                 0.000
REMARK  Name = No_3826-gen_results/8p0m/2024-11-26-14-13-15/
REMARK  0 active torsions:
REMARK  status: ('A' for Active; 'I' for Inactive)
REMARK                            x       y       z     vdW  Elec       q    Type
REMARK                         _______ _______ _______ _____ _____    ______ ____
ROOT
ATOM      1  O   UNL A   1     -25.476  -1.129  28.049  0.00  0.00    -0.262 OA
ATOM      2  C   UNL A   1     -24.552  -1.572  28.563  0.00  0.00    +0.284 C 
ATOM      3 BR   UNL A   1     -24.138  -3.048  29.120  0.00  0.00    +0.015 Br
ATOM      4  N   UNL A   1     -23.417  -0.645  28.499  0.00  0.00    -0.259 N 
ATOM      5  C   UNL A   1     -22.231  -0.704  29.114  0.00  0.00    +0.095 C 
ATOM      6  C   UNL A   1     -21.338   0.022  28.609  0.00  0.00    +0.022 C 
ATOM      7  C   UNL A   1     -21.542   1.262  27.815  0.00  0.00    +0.005 C 
ATOM      8  C   UNL A   1     -22.854   1.357  27.354  0.00  0.00    +0.037 C 
ATOM      9  C   UNL A   1     -23.748   0.427  27.584  0.00  0.00    +0.156 C 
ATOM     10 CL   UNL A   1     -25.276   0.516  26.930  0.00  0.00    -0.093 Cl
ENDROOT
TORSDOF 0
ENDMDL
ENDMDL
