MODEL 3827
MODEL 1
REMARK VINA RESULT:    -4.542      0.000      0.000
REMARK INTER + INTRA:          -4.542
REMARK INTER:                  -4.542
REMARK INTRA:                   0.000
REMARK UNBOUND:                 0.000
REMARK  Name = No_3827-gen_results/8p0m/2024-11-26-14-13-15/
REMARK  0 active torsions:
REMARK  status: ('A' for Active; 'I' for Inactive)
REMARK                            x       y       z     vdW  Elec       q    Type
REMARK                         _______ _______ _______ _____ _____    ______ ____
ROOT
ATOM      1  C   UNL A   1     -23.988  -4.386  28.671  0.00  0.00    +0.030 A 
ATOM      2  C   UNL A   1     -24.885  -4.901  28.876  0.00  0.00    +0.140 A 
ATOM      3  C   UNL A   1     -23.987  -2.916  29.027  0.00  0.00    +0.002 A 
ATOM      4  C   UNL A   1     -25.089  -2.372  29.719  0.00  0.00    +0.000 A 
ATOM      5  C   UNL A   1     -26.135  -4.588  29.604  0.00  0.00    +0.030 A 
ATOM      6  C   UNL A   1     -26.168  -3.245  29.953  0.00  0.00    +0.002 A 
ATOM      7  F   UNL A   1     -24.875  -6.314  28.545  0.00  0.00    -0.204 F 
ENDROOT
TORSDOF 0
ENDMDL
ENDMDL
