REMARK  Name = No_3828-gen_results/8p0m/2024-11-26-14-13-15/
REMARK  2 active torsions:
REMARK  status: ('A' for Active; 'I' for Inactive)
REMARK    1  A    between atoms: C_2  and  C_4
REMARK    2  A    between atoms: C_4  and  C_6
REMARK                            x       y       z     vdW  Elec       q    Type
REMARK                         _______ _______ _______ _____ _____    ______ ____
ROOT
ATOM      1  C   UNL A   1     -25.991   0.856  27.168  0.00  0.00    -0.014 A 
ATOM      2  C   UNL A   1     -25.625   1.614  26.021  0.00  0.00    -0.004 A 
ATOM      3  C   UNL A   1     -24.229   1.986  25.807  0.00  0.00    -0.000 A 
ATOM      4  C   UNL A   1     -23.228   1.593  26.777  0.00  0.00    -0.000 A 
ATOM      5  C   UNL A   1     -23.620   0.842  27.914  0.00  0.00    -0.000 A 
ATOM      6  C   UNL A   1     -24.917   0.496  28.063  0.00  0.00    -0.004 A 
ENDROOT
BRANCH   1   7
ATOM      7  C   UNL A   1     -27.255   0.479  27.490  0.00  0.00    +0.130 C 
BRANCH   7   9
ATOM      8  F   UNL A   1     -28.073  -1.254  28.532  0.00  0.00    -0.170 F 
ATOM      9  C   UNL A   1     -27.359  -0.379  28.722  0.00  0.00    +0.402 C 
ATOM     10  F   UNL A   1     -26.318  -0.661  29.116  0.00  0.00    -0.170 F 
ATOM     11  F   UNL A   1     -27.931   0.475  29.689  0.00  0.00    -0.170 F 
ENDBRANCH   7   9
ENDBRANCH   1   7
TORSDOF 2
