MODEL 3828
MODEL 1
REMARK VINA RESULT:    -5.201      0.000      0.000
REMARK INTER + INTRA:          -6.125
REMARK INTER:                  -5.810
REMARK INTRA:                  -0.315
REMARK UNBOUND:                -0.315
REMARK  Name = No_3828-gen_results/8p0m/2024-11-26-14-13-15/
REMARK  2 active torsions:
REMARK  status: ('A' for Active; 'I' for Inactive)
REMARK    1  A    between atoms: C_2  and  C_4
REMARK    2  A    between atoms: C_4  and  C_6
REMARK                            x       y       z     vdW  Elec       q    Type
REMARK                         _______ _______ _______ _____ _____    ______ ____
ROOT
ATOM      1  C   UNL A   1     -24.669  -2.474  29.017  0.00  0.00    -0.014 A 
ATOM      2  C   UNL A   1     -25.938  -2.703  29.618  0.00  0.00    -0.004 A 
ATOM      3  C   UNL A   1     -26.420  -4.069  29.806  0.00  0.00    -0.000 A 
ATOM      4  C   UNL A   1     -25.607  -5.182  29.362  0.00  0.00    -0.000 A 
ATOM      5  C   UNL A   1     -24.348  -4.926  28.761  0.00  0.00    -0.000 A 
ATOM      6  C   UNL A   1     -23.926  -3.650  28.628  0.00  0.00    -0.004 A 
ENDROOT
BRANCH   1   7
ATOM      7  C   UNL A   1     -24.129  -1.255  28.762  0.00  0.00    +0.130 C 
BRANCH   7   9
ATOM      8  F   UNL A   1     -23.127   0.333  29.872  0.00  0.00    -0.170 F 
ATOM      9  C   UNL A   1     -23.094  -0.806  29.758  0.00  0.00    +0.402 C 
ATOM     10  F   UNL A   1     -23.172  -1.408  30.732  0.00  0.00    -0.170 F 
ATOM     11  F   UNL A   1     -21.866  -1.170  29.165  0.00  0.00    -0.170 F 
ENDBRANCH   7   9
ENDBRANCH   1   7
TORSDOF 2
ENDMDL
ENDMDL
