MODEL 3829
MODEL 1
REMARK VINA RESULT:    -4.480      0.000      0.000
REMARK INTER + INTRA:          -4.480
REMARK INTER:                  -4.480
REMARK INTRA:                   0.000
REMARK UNBOUND:                 0.000
REMARK  Name = No_3829-gen_results/8p0m/2024-11-26-14-13-15/
REMARK  0 active torsions:
REMARK  status: ('A' for Active; 'I' for Inactive)
REMARK                            x       y       z     vdW  Elec       q    Type
REMARK                         _______ _______ _______ _____ _____    ______ ____
ROOT
ATOM      1  C   UNL A   1      -9.102  -9.122  20.281  0.00  0.00    +0.030 A 
ATOM      2  C   UNL A   1      -8.117  -9.772  20.017  0.00  0.00    +0.140 A 
ATOM      3  C   UNL A   1      -8.048 -10.531  18.854  0.00  0.00    +0.030 A 
ATOM      4  C   UNL A   1      -9.166 -10.604  17.950  0.00  0.00    +0.002 A 
ATOM      5  C   UNL A   1     -10.273  -9.841  18.344  0.00  0.00    +0.000 A 
ATOM      6  C   UNL A   1     -10.294  -9.153  19.463  0.00  0.00    +0.002 A 
ATOM      7  F   UNL A   1      -7.038  -9.843  20.798  0.00  0.00    -0.204 F 
ENDROOT
TORSDOF 0
ENDMDL
ENDMDL
