MODEL 382
MODEL 1
REMARK VINA RESULT:    -7.789      0.000      0.000
REMARK INTER + INTRA:         -12.254
REMARK INTER:                 -10.066
REMARK INTRA:                  -2.188
REMARK UNBOUND:                -2.188
REMARK  Name = No_382-gen_results/8p0m/2024-11-26-14-13-15/
REMARK  5 active torsions:
REMARK  status: ('A' for Active; 'I' for Inactive)
REMARK    1  A    between atoms: C_2  and  N_7
REMARK    2  A    between atoms: C_8  and  C_9
REMARK    3  A    between atoms: C_9  and  C_10
REMARK    4  A    between atoms: C_15  and  C_16
REMARK    5  A    between atoms: C_16  and  C_18
REMARK                            x       y       z     vdW  Elec       q    Type
REMARK                         _______ _______ _______ _____ _____    ______ ____
ROOT
ATOM      1  C   UNL A   1     -25.179  -1.191  28.963  0.00  0.00    -0.019 A 
ATOM      2  C   UNL A   1     -25.092  -2.662  29.061  0.00  0.00    -0.004 A 
ATOM      3  C   UNL A   1     -26.141  -3.414  29.644  0.00  0.00    -0.000 A 
ATOM      4  C   UNL A   1     -27.222  -2.657  30.182  0.00  0.00    -0.000 A 
ATOM      5  C   UNL A   1     -27.360  -1.339  30.073  0.00  0.00    -0.004 A 
ATOM      6  C   UNL A   1     -26.365  -0.612  29.519  0.00  0.00    -0.021 A 
ATOM      7  C   UNL A   1     -23.910  -3.383  28.673  0.00  0.00    -0.000 A 
ATOM      8  C   UNL A   1     -23.955  -4.639  28.525  0.00  0.00    -0.000 A 
ATOM      9  C   UNL A   1     -25.024  -5.409  29.126  0.00  0.00    -0.000 A 
ATOM     10  C   UNL A   1     -26.116  -4.829  29.673  0.00  0.00    -0.000 A 
ENDROOT
BRANCH   1  11
ATOM     11  C   UNL A   1     -24.326  -0.548  28.422  0.00  0.00    +0.084 C 
BRANCH  11  13
ATOM     12  N   UNL A   1     -23.121   1.151  28.775  0.00  0.00    -0.235 NA
ATOM     13  C   UNL A   1     -23.421   0.245  29.125  0.00  0.00    +0.120 C 
ATOM     14 CL   UNL A   1     -23.015  -0.295  30.780  0.00  0.00    -0.066 Cl
BRANCH  12  16
ATOM     15  C   UNL A   1     -24.348   2.867  27.819  0.00  0.00    +0.213 A 
ATOM     16  C   UNL A   1     -23.496   2.012  27.740  0.00  0.00    +0.121 A 
ATOM     17  C   UNL A   1     -22.784   1.813  26.562  0.00  0.00    +0.022 A 
ATOM     18  C   UNL A   1     -23.072   2.589  25.383  0.00  0.00    +0.002 A 
ATOM     19  C   UNL A   1     -24.087   3.539  25.555  0.00  0.00    +0.003 A 
ATOM     20  C   UNL A   1     -24.741   3.676  26.686  0.00  0.00    +0.044 A 
ATOM     21  O   UNL A   1     -24.802   3.375  28.864  0.00  0.00    -0.285 OA
ENDBRANCH  12  16
ENDBRANCH  11  13
ENDBRANCH   1  11
BRANCH   6  22
ATOM     22  C   UNL A   1     -27.175  -0.011  28.340  0.00  0.00    +0.052 C 
BRANCH  22  23
ATOM     23  C   UNL A   1     -27.701   1.425  28.326  0.00  0.00    -0.018 A 
ATOM     24  C   UNL A   1     -27.880   1.971  29.404  0.00  0.00    -0.004 A 
ATOM     25  C   UNL A   1     -28.239   3.393  29.416  0.00  0.00    -0.000 A 
ATOM     26  C   UNL A   1     -27.996   2.026  27.113  0.00  0.00    -0.004 A 
ATOM     27  C   UNL A   1     -28.381   3.372  27.051  0.00  0.00    -0.000 A 
ATOM     28  C   UNL A   1     -28.524   4.047  28.258  0.00  0.00    -0.000 A 
ENDBRANCH  22  23
ENDBRANCH   6  22
TORSDOF 5
ENDMDL
ENDMDL
