MODEL 3830
MODEL 1
REMARK VINA RESULT:    -4.523      0.000      0.000
REMARK INTER + INTRA:          -4.523
REMARK INTER:                  -4.523
REMARK INTRA:                   0.000
REMARK UNBOUND:                 0.000
REMARK  Name = No_3830-gen_results/8p0m/2024-11-26-14-13-15/
REMARK  0 active torsions:
REMARK  status: ('A' for Active; 'I' for Inactive)
REMARK                            x       y       z     vdW  Elec       q    Type
REMARK                         _______ _______ _______ _____ _____    ______ ____
ROOT
ATOM      1  C   UNL A   1     -23.997  -4.380  28.674  0.00  0.00    +0.030 A 
ATOM      2  C   UNL A   1     -24.877  -4.921  28.882  0.00  0.00    +0.140 A 
ATOM      3  C   UNL A   1     -24.046  -2.906  29.008  0.00  0.00    +0.002 A 
ATOM      4  C   UNL A   1     -25.169  -2.388  29.687  0.00  0.00    +0.000 A 
ATOM      5  C   UNL A   1     -26.141  -4.639  29.600  0.00  0.00    +0.030 A 
ATOM      6  C   UNL A   1     -26.219  -3.293  29.929  0.00  0.00    +0.002 A 
ATOM      7  F   UNL A   1     -24.819  -6.338  28.571  0.00  0.00    -0.204 F 
ENDROOT
TORSDOF 0
ENDMDL
ENDMDL
