MODEL 3831
MODEL 1
REMARK VINA RESULT:    -7.677      0.000      0.000
REMARK INTER + INTRA:          -5.116
REMARK INTER:                  -8.126
REMARK INTRA:                   3.009
REMARK UNBOUND:                 3.009
REMARK  Name = No_3831-gen_results/8p0m/2024-11-26-14-13-15/
REMARK  1 active torsions:
REMARK  status: ('A' for Active; 'I' for Inactive)
REMARK    1  A    between atoms: C_28  and  O_29
REMARK                            x       y       z     vdW  Elec       q    Type
REMARK                         _______ _______ _______ _____ _____    ______ ____
ROOT
ATOM      1  C   UNL A   1      -6.797   0.601  11.964  0.00  0.00    +0.004 A 
ATOM      2  C   UNL A   1      -6.132  -0.155  11.654  0.00  0.00    +0.027 A 
ATOM      3  C   UNL A   1      -8.181   0.357  11.828  0.00  0.00    +0.054 A 
ATOM      4  C   UNL A   1      -8.667  -0.821  11.297  0.00  0.00    +0.004 A 
ATOM      5  C   UNL A   1      -7.724  -1.764  10.922  0.00  0.00    -0.000 A 
ATOM      6  C   UNL A   1      -6.384  -1.497  11.107  0.00  0.00    -0.000 A 
ATOM      7  C   UNL A   1      -9.236   1.336  12.250  0.00  0.00    +0.253 C 
ATOM      8  N   UNL A   1      -9.503   2.283  11.686  0.00  0.00    -0.254 N 
ATOM      9  O   UNL A   1      -9.622   1.238  13.580  0.00  0.00    -0.270 OA
ATOM     10  C   UNL A   1     -10.386   3.376  12.176  0.00  0.00    +0.120 C 
ATOM     11  C   UNL A   1      -9.145   2.590  10.265  0.00  0.00    +0.056 A 
ATOM     12  C   UNL A   1     -10.096   2.330   9.485  0.00  0.00    +0.015 A 
ATOM     13  C   UNL A   1      -7.996   3.231   9.978  0.00  0.00    +0.061 A 
ATOM     14  C   UNL A   1      -7.638   3.451   8.682  0.00  0.00    +0.003 A 
ATOM     15  C   UNL A   1      -9.818   2.597   8.027  0.00  0.00    +0.001 A 
ATOM     16  C   UNL A   1      -8.613   3.149   7.667  0.00  0.00    -0.000 A 
ATOM     17  C   UNL A   1      -4.539   0.012  11.869  0.00  0.00    +0.251 C 
ATOM     18  O   UNL A   1      -4.137   0.356  12.798  0.00  0.00    -0.196 OA
ATOM     19  N   UNL A   1      -3.786   0.261  10.670  0.00  0.00    -0.276 N 
ATOM     20  C   UNL A   1      -2.415   0.612  10.798  0.00  0.00    +0.115 C 
ATOM     21  C   UNL A   1      -4.437   0.808   9.526  0.00  0.00    +0.084 A 
ATOM     22  C   UNL A   1      -3.734   0.428   8.270  0.00  0.00    +0.018 A 
ATOM     23  C   UNL A   1      -4.103  -0.575   7.671  0.00  0.00    +0.002 A 
ATOM     24  C   UNL A   1      -5.461  -0.833   7.558  0.00  0.00    +0.003 A 
ATOM     25  C   UNL A   1      -6.386   0.068   8.119  0.00  0.00    +0.038 A 
ATOM     26  C   UNL A   1      -5.861   0.170   9.295  0.00  0.00    +0.155 A 
ATOM     27  O   UNL A   1      -6.528   0.244  10.068  0.00  0.00    -0.448 OA
ATOM     28  C   UNL A   1      -7.010   1.615  10.028  0.00  0.00    +0.314 C 
ENDROOT
BRANCH  28  29
ATOM     29  O   UNL A   1      -5.767   2.171   9.511  0.00  0.00    -0.314 OA
ATOM     30  C   UNL A   1      -4.920   3.208   9.576  0.00  0.00    +0.178 C 
ENDBRANCH  28  29
TORSDOF 1
ENDMDL
ENDMDL
