REMARK  Name = No_3831-gen_results/8p0m/2024-11-26-14-13-15/
REMARK  1 active torsions:
REMARK  status: ('A' for Active; 'I' for Inactive)
REMARK    1  A    between atoms: C_28  and  O_29
REMARK                            x       y       z     vdW  Elec       q    Type
REMARK                         _______ _______ _______ _____ _____    ______ ____
ROOT
ATOM      1  C   UNL A   1     -28.016  -0.814  28.878  0.00  0.00    +0.004 A 
ATOM      2  C   UNL A   1     -28.469  -0.785  29.829  0.00  0.00    +0.027 A 
ATOM      3  C   UNL A   1     -27.136   0.236  28.535  0.00  0.00    +0.054 A 
ATOM      4  C   UNL A   1     -26.875   1.282  29.398  0.00  0.00    +0.004 A 
ATOM      5  C   UNL A   1     -27.507   1.238  30.630  0.00  0.00    -0.000 A 
ATOM      6  C   UNL A   1     -28.329   0.174  30.935  0.00  0.00    -0.000 A 
ATOM      7  C   UNL A   1     -26.408   0.307  27.226  0.00  0.00    +0.253 C 
ATOM      8  N   UNL A   1     -26.883   0.587  26.235  0.00  0.00    -0.254 N 
ATOM      9  O   UNL A   1     -25.191  -0.362  27.201  0.00  0.00    -0.270 OA
ATOM     10  C   UNL A   1     -26.250   0.465  24.894  0.00  0.00    +0.120 C 
ATOM     11  C   UNL A   1     -28.201   1.273  26.056  0.00  0.00    +0.056 A 
ATOM     12  C   UNL A   1     -28.056   2.510  25.883  0.00  0.00    +0.015 A 
ATOM     13  C   UNL A   1     -29.331   0.551  25.927  0.00  0.00    +0.061 A 
ATOM     14  C   UNL A   1     -30.538   1.176  25.831  0.00  0.00    +0.003 A 
ATOM     15  C   UNL A   1     -29.337   3.286  25.706  0.00  0.00    +0.001 A 
ATOM     16  C   UNL A   1     -30.530   2.607  25.680  0.00  0.00    -0.000 A 
ATOM     17  C   UNL A   1     -29.410  -2.000  30.329  0.00  0.00    +0.251 C 
ATOM     18  O   UNL A   1     -29.112  -3.019  30.207  0.00  0.00    -0.196 OA
ATOM     19  N   UNL A   1     -30.816  -1.704  30.369  0.00  0.00    -0.276 N 
ATOM     20  C   UNL A   1     -31.721  -2.772  30.609  0.00  0.00    +0.115 C 
ATOM     21  C   UNL A   1     -31.340  -0.646  29.570  0.00  0.00    +0.084 A 
ATOM     22  C   UNL A   1     -32.585  -0.086  30.163  0.00  0.00    +0.018 A 
ATOM     23  C   UNL A   1     -32.495   0.881  30.911  0.00  0.00    +0.002 A 
ATOM     24  C   UNL A   1     -31.613   1.902  30.592  0.00  0.00    +0.003 A 
ATOM     25  C   UNL A   1     -30.851   1.816  29.411  0.00  0.00    +0.038 A 
ATOM     26  C   UNL A   1     -30.395   0.617  29.568  0.00  0.00    +0.155 A 
ATOM     27  O   UNL A   1     -29.432   0.470  29.254  0.00  0.00    -0.448 OA
ATOM     28  C   UNL A   1     -29.511   0.384  27.805  0.00  0.00    +0.314 C 
ENDROOT
BRANCH  28  29
ATOM     29  O   UNL A   1     -30.841  -0.208  27.785  0.00  0.00    -0.314 OA
ATOM     30  C   UNL A   1     -31.682  -0.990  27.093  0.00  0.00    +0.178 C 
ENDBRANCH  28  29
TORSDOF 1
