MODEL 3832
MODEL 1
REMARK VINA RESULT:    -6.805      0.000      0.000
REMARK INTER + INTRA:          -8.027
REMARK INTER:                  -7.601
REMARK INTRA:                  -0.426
REMARK UNBOUND:                -0.426
REMARK  Name = No_3832-gen_results/8p0m/2024-11-26-14-13-15/
REMARK  2 active torsions:
REMARK  status: ('A' for Active; 'I' for Inactive)
REMARK    1  A    between atoms: C_3  and  C_7
REMARK    2  A    between atoms: C_8  and  C_14
REMARK                            x       y       z     vdW  Elec       q    Type
REMARK                         _______ _______ _______ _____ _____    ______ ____
ROOT
ATOM      1  C   UNL A   1     -24.607  -2.764  28.868  0.00  0.00    +0.004 A 
ATOM      2  C   UNL A   1     -25.744  -2.808  29.614  0.00  0.00    +0.071 A 
ATOM      3  C   UNL A   1     -26.315  -4.032  29.968  0.00  0.00    +0.004 A 
ATOM      4  C   UNL A   1     -25.745  -5.270  29.527  0.00  0.00    -0.000 A 
ATOM      5  C   UNL A   1     -24.317  -4.100  28.621  0.00  0.00    -0.000 A 
ATOM      6  C   UNL A   1     -24.700  -5.214  28.834  0.00  0.00    -0.000 A 
ENDROOT
BRANCH   1   9
ATOM      7  C   UNL A   1     -23.821   0.500  27.361  0.00  0.00    +0.011 A 
ATOM      8  C   UNL A   1     -24.401  -0.534  27.600  0.00  0.00    +0.001 A 
ATOM      9  C   UNL A   1     -23.943  -1.481  28.515  0.00  0.00    +0.000 A 
ATOM     10  C   UNL A   1     -22.675  -1.261  29.184  0.00  0.00    +0.001 A 
ATOM     11  C   UNL A   1     -22.051  -0.038  28.848  0.00  0.00    +0.011 A 
ATOM     12  C   UNL A   1     -22.557   0.789  27.969  0.00  0.00    +0.058 A 
ATOM     13 CL   UNL A   1     -21.664   2.207  27.584  0.00  0.00    -0.082 Cl
ENDBRANCH   1   9
BRANCH   2  14
ATOM     14  C   UNL A   1     -26.447  -1.538  30.064  0.00  0.00    +0.419 C 
ATOM     15  F   UNL A   1     -27.374  -1.756  30.990  0.00  0.00    -0.166 F 
ATOM     16  F   UNL A   1     -27.079  -0.957  28.962  0.00  0.00    -0.166 F 
ATOM     17  F   UNL A   1     -25.605  -0.704  30.642  0.00  0.00    -0.166 F 
ENDBRANCH   2  14
TORSDOF 2
ENDMDL
ENDMDL
