REMARK  Name = No_3832-gen_results/8p0m/2024-11-26-14-13-15/
REMARK  2 active torsions:
REMARK  status: ('A' for Active; 'I' for Inactive)
REMARK    1  A    between atoms: C_3  and  C_7
REMARK    2  A    between atoms: C_8  and  C_14
REMARK                            x       y       z     vdW  Elec       q    Type
REMARK                         _______ _______ _______ _____ _____    ______ ____
ROOT
ATOM      1  C   UNL A   1     -24.549   0.410  28.734  0.00  0.00    +0.004 A 
ATOM      2  C   UNL A   1     -24.093   1.378  29.576  0.00  0.00    +0.071 A 
ATOM      3  C   UNL A   1     -22.975   2.144  29.239  0.00  0.00    +0.004 A 
ATOM      4  C   UNL A   1     -22.257   1.910  28.022  0.00  0.00    -0.000 A 
ATOM      5  C   UNL A   1     -23.657   0.447  27.669  0.00  0.00    -0.000 A 
ATOM      6  C   UNL A   1     -22.685   1.011  27.258  0.00  0.00    -0.000 A 
ENDROOT
BRANCH   1   9
ATOM      7  C   UNL A   1     -28.016  -0.814  28.878  0.00  0.00    +0.011 A 
ATOM      8  C   UNL A   1     -27.064  -0.119  28.608  0.00  0.00    +0.001 A 
ATOM      9  C   UNL A   1     -25.765  -0.390  29.036  0.00  0.00    +0.000 A 
ATOM     10  C   UNL A   1     -25.530  -1.530  29.901  0.00  0.00    +0.001 A 
ATOM     11  C   UNL A   1     -26.689  -2.289  30.181  0.00  0.00    +0.011 A 
ATOM     12  C   UNL A   1     -27.873  -1.951  29.737  0.00  0.00    +0.058 A 
ATOM     13 CL   UNL A   1     -29.220  -2.908  30.212  0.00  0.00    -0.082 Cl
ENDBRANCH   1   9
BRANCH   2  14
ATOM     14  C   UNL A   1     -24.759   1.642  30.916  0.00  0.00    +0.419 C 
ATOM     15  F   UNL A   1     -24.642   2.902  31.316  0.00  0.00    -0.166 F 
ATOM     16  F   UNL A   1     -24.160   0.833  31.885  0.00  0.00    -0.166 F 
ATOM     17  F   UNL A   1     -26.061   1.445  30.850  0.00  0.00    -0.166 F 
ENDBRANCH   2  14
TORSDOF 2
