REMARK  Name = No_3833-gen_results/8p0m/2024-11-26-14-13-15/
REMARK  6 active torsions:
REMARK  status: ('A' for Active; 'I' for Inactive)
REMARK    1  A    between atoms: C_3  and  C_13
REMARK    2  A    between atoms: C_5  and  C_11
REMARK    3  A    between atoms: C_8  and  C_17
REMARK    4  A    between atoms: C_10  and  C_34
REMARK    5  A    between atoms: N_19  and  C_20
REMARK    6  A    between atoms: C_26  and  C_28
REMARK                            x       y       z     vdW  Elec       q    Type
REMARK                         _______ _______ _______ _____ _____    ______ ____
ROOT
ATOM      1  C   UNL A   1     -28.016  -0.814  28.878  0.00  0.00    +0.004 A 
ATOM      2  C   UNL A   1     -27.064  -0.119  28.608  0.00  0.00    +0.005 A 
ATOM      3  C   UNL A   1     -27.001   0.691  27.491  0.00  0.00    +0.071 A 
ATOM      4  C   UNL A   1     -25.855   1.482  27.083  0.00  0.00    +0.007 A 
ATOM      5  C   UNL A   1     -24.690   1.453  27.881  0.00  0.00    +0.035 A 
ATOM      6  C   UNL A   1     -24.738   0.601  29.042  0.00  0.00    +0.004 A 
ATOM      7  C   UNL A   1     -25.823  -0.169  29.389  0.00  0.00    +0.010 A 
ATOM      8  C   UNL A   1     -28.038  -1.535  30.205  0.00  0.00    +0.055 A 
ATOM      9  C   UNL A   1     -26.847  -1.662  30.952  0.00  0.00    +0.015 A 
ATOM     10  C   UNL A   1     -25.745  -0.924  30.591  0.00  0.00    +0.069 A 
ENDROOT
BRANCH   3  11
ATOM     11  C   UNL A   1     -28.103   0.787  26.524  0.00  0.00    +0.419 C 
ATOM     12  F   UNL A   1     -27.820   0.667  25.323  0.00  0.00    -0.166 F 
ATOM     13  F   UNL A   1     -28.772   1.960  26.774  0.00  0.00    -0.166 F 
ATOM     14  F   UNL A   1     -29.060  -0.136  26.747  0.00  0.00    -0.166 F 
ENDBRANCH   3  11
BRANCH   8  15
ATOM     15  C   UNL A   1     -29.229  -2.352  30.595  0.00  0.00    +0.253 C 
ATOM     16  O   UNL A   1     -30.069  -1.919  31.125  0.00  0.00    -0.270 OA
ATOM     17  N   UNL A   1     -29.081  -3.681  30.255  0.00  0.00    -0.253 N 
ATOM     18  C   UNL A   1     -27.871  -4.341  29.756  0.00  0.00    +0.120 C 
BRANCH  17  19
ATOM     19  C   UNL A   1     -30.146  -4.619  30.527  0.00  0.00    +0.054 A 
ATOM     20  C   UNL A   1     -30.183  -5.344  31.529  0.00  0.00    +0.015 A 
ATOM     21  C   UNL A   1     -31.179  -6.358  31.753  0.00  0.00    +0.001 A 
ATOM     22  C   UNL A   1     -32.156  -6.485  30.772  0.00  0.00    +0.000 A 
ATOM     23  C   UNL A   1     -31.071  -4.745  29.487  0.00  0.00    +0.015 A 
ATOM     24  C   UNL A   1     -32.030  -5.669  29.603  0.00  0.00    +0.001 A 
BRANCH  24  25
ATOM     25  C   UNL A   1     -33.061  -5.840  28.546  0.00  0.00    +0.000 A 
ATOM     26  C   UNL A   1     -33.857  -5.159  28.231  0.00  0.00    +0.000 A 
ATOM     27  C   UNL A   1     -32.801  -7.098  27.703  0.00  0.00    +0.000 A 
ATOM     28  C   UNL A   1     -34.785  -5.286  27.128  0.00  0.00    +0.000 A 
ATOM     29  C   UNL A   1     -33.651  -7.289  26.602  0.00  0.00    +0.000 A 
ATOM     30  C   UNL A   1     -34.610  -6.388  26.302  0.00  0.00    +0.000 A 
ENDBRANCH  24  25
ENDBRANCH  17  19
ENDBRANCH   8  15
BRANCH   5  31
ATOM     31  C   UNL A   1     -23.501   2.231  27.541  0.00  0.00    +0.173 C 
ATOM     32  C   UNL A   1     -22.750   1.694  26.377  0.00  0.00    +0.077 C 
ATOM     33  O   UNL A   1     -23.178   3.217  28.252  0.00  0.00    -0.291 OA
ENDBRANCH   5  31
BRANCH  10  34
ATOM     34  C   UNL A   1     -24.532  -0.973  31.395  0.00  0.00    +0.100 C 
ATOM     35  N   UNL A   1     -24.139  -0.605  32.445  0.00  0.00    -0.191 NA
ENDBRANCH  10  34
TORSDOF 6
