MODEL 3833
MODEL 1
REMARK VINA RESULT:    -7.681      0.000      0.000
REMARK INTER + INTRA:         -11.554
REMARK INTER:                 -10.375
REMARK INTRA:                  -1.180
REMARK UNBOUND:                -1.180
REMARK  Name = No_3833-gen_results/8p0m/2024-11-26-14-13-15/
REMARK  6 active torsions:
REMARK  status: ('A' for Active; 'I' for Inactive)
REMARK    1  A    between atoms: C_3  and  C_13
REMARK    2  A    between atoms: C_5  and  C_11
REMARK    3  A    between atoms: C_8  and  C_17
REMARK    4  A    between atoms: C_10  and  C_34
REMARK    5  A    between atoms: N_19  and  C_20
REMARK    6  A    between atoms: C_26  and  C_28
REMARK                            x       y       z     vdW  Elec       q    Type
REMARK                         _______ _______ _______ _____ _____    ______ ____
ROOT
ATOM      1  C   UNL A   1     -28.355 -13.250   8.038  0.00  0.00    +0.004 A 
ATOM      2  C   UNL A   1     -28.029 -14.413   8.093  0.00  0.00    +0.005 A 
ATOM      3  C   UNL A   1     -28.711 -15.365   8.825  0.00  0.00    +0.071 A 
ATOM      4  C   UNL A   1     -28.316 -16.752   8.984  0.00  0.00    +0.007 A 
ATOM      5  C   UNL A   1     -27.144 -17.205   8.338  0.00  0.00    +0.035 A 
ATOM      6  C   UNL A   1     -26.416 -16.218   7.582  0.00  0.00    +0.004 A 
ATOM      7  C   UNL A   1     -26.789 -14.898   7.476  0.00  0.00    +0.010 A 
ATOM      8  C   UNL A   1     -27.630 -12.334   7.081  0.00  0.00    +0.055 A 
ATOM      9  C   UNL A   1     -26.399 -12.740   6.521  0.00  0.00    +0.015 A 
ATOM     10  C   UNL A   1     -26.000 -14.049   6.654  0.00  0.00    +0.069 A 
ENDROOT
BRANCH   3  11
ATOM     11  C   UNL A   1     -29.913 -15.046   9.606  0.00  0.00    +0.419 C 
ATOM     12  F   UNL A   1     -30.877 -14.560   8.997  0.00  0.00    -0.166 F 
ATOM     13  F   UNL A   1     -29.525 -14.254  10.659  0.00  0.00    -0.166 F 
ATOM     14  F   UNL A   1     -30.414 -16.127  10.237  0.00  0.00    -0.166 F 
ENDBRANCH   3  11
BRANCH   8  15
ATOM     15  C   UNL A   1     -28.051 -10.905   6.946  0.00  0.00    +0.253 C 
ATOM     16  O   UNL A   1     -28.626 -10.558   6.095  0.00  0.00    -0.270 OA
ATOM     17  N   UNL A   1     -27.573 -10.122   7.976  0.00  0.00    -0.253 N 
ATOM     18  C   UNL A   1     -26.604 -10.505   9.007  0.00  0.00    +0.120 C 
BRANCH  17  19
ATOM     19  C   UNL A   1     -27.904  -8.717   8.029  0.00  0.00    +0.054 A 
ATOM     20  C   UNL A   1     -27.228  -7.831   7.493  0.00  0.00    +0.015 A 
ATOM     21  C   UNL A   1     -27.487  -6.422   7.634  0.00  0.00    +0.001 A 
ATOM     22  C   UNL A   1     -28.589  -6.077   8.409  0.00  0.00    +0.000 A 
ATOM     23  C   UNL A   1     -28.986  -8.420   8.863  0.00  0.00    +0.015 A 
ATOM     24  C   UNL A   1     -29.298  -7.135   9.060  0.00  0.00    +0.001 A 
BRANCH  24  25
ATOM     25  C   UNL A   1     -30.451  -6.749   9.915  0.00  0.00    +0.000 A 
ATOM     26  C   UNL A   1     -30.779  -5.757  10.238  0.00  0.00    +0.000 A 
ATOM     27  C   UNL A   1     -31.367  -7.949  10.202  0.00  0.00    +0.000 A 
ATOM     28  C   UNL A   1     -31.966  -5.382  10.976  0.00  0.00    +0.000 A 
ATOM     29  C   UNL A   1     -32.550  -7.668  10.904  0.00  0.00    +0.000 A 
ATOM     30  C   UNL A   1     -32.859  -6.405  11.264  0.00  0.00    +0.000 A 
ENDBRANCH  24  25
ENDBRANCH  17  19
ENDBRANCH   8  15
BRANCH   5  31
ATOM     31  C   UNL A   1     -26.690 -18.589   8.442  0.00  0.00    +0.173 C 
ATOM     32  C   UNL A   1     -27.547 -19.555   7.706  0.00  0.00    +0.077 C 
ATOM     33  O   UNL A   1     -25.691 -18.865   9.156  0.00  0.00    -0.291 OA
ENDBRANCH   5  31
BRANCH  10  34
ATOM     34  C   UNL A   1     -24.777 -14.512   6.013  0.00  0.00    +0.100 C 
ATOM     35  N   UNL A   1     -23.700 -14.112   5.745  0.00  0.00    -0.191 NA
ENDBRANCH  10  34
TORSDOF 6
ENDMDL
ENDMDL
