MODEL 3834
MODEL 1
REMARK VINA RESULT:    -7.133      0.000      0.000
REMARK INTER + INTRA:          -8.410
REMARK INTER:                  -7.967
REMARK INTRA:                  -0.443
REMARK UNBOUND:                -0.443
REMARK  Name = No_3834-gen_results/8p0m/2024-11-26-14-13-15/
REMARK  2 active torsions:
REMARK  status: ('A' for Active; 'I' for Inactive)
REMARK    1  A    between atoms: C_3  and  C_7
REMARK    2  A    between atoms: C_5  and  C_13
REMARK                            x       y       z     vdW  Elec       q    Type
REMARK                         _______ _______ _______ _____ _____    ______ ____
ROOT
ATOM      1  C   UNL A   1     -24.643  -5.029  28.809  0.00  0.00    +0.000 A 
ATOM      2  C   UNL A   1     -23.947  -4.044  28.722  0.00  0.00    +0.000 A 
ATOM      3  C   UNL A   1     -24.342  -2.758  29.050  0.00  0.00    +0.000 A 
ATOM      4  C   UNL A   1     -25.665  -2.595  29.557  0.00  0.00    +0.005 A 
ATOM      5  C   UNL A   1     -26.359  -3.720  29.793  0.00  0.00    +0.057 A 
ATOM      6  C   UNL A   1     -25.888  -4.896  29.493  0.00  0.00    +0.005 A 
ENDROOT
BRANCH   3   7
ATOM      7  C   UNL A   1     -23.486  -1.545  28.791  0.00  0.00    +0.001 A 
ATOM      8  C   UNL A   1     -22.464  -1.168  29.247  0.00  0.00    +0.000 A 
ATOM      9  C   UNL A   1     -21.844   0.087  28.818  0.00  0.00    +0.001 A 
ATOM     10  C   UNL A   1     -22.503   0.970  27.983  0.00  0.00    +0.011 A 
ATOM     11  C   UNL A   1     -23.821   0.630  27.623  0.00  0.00    +0.058 A 
ATOM     12  C   UNL A   1     -24.351  -0.574  27.948  0.00  0.00    +0.011 A 
ATOM     13 CL   UNL A   1     -24.647   1.796  26.673  0.00  0.00    -0.082 Cl
ENDBRANCH   3   7
BRANCH   5  14
ATOM     14  C   UNL A   1     -27.698  -3.539  30.410  0.00  0.00    +0.284 C 
ATOM     15  O   UNL A   1     -28.679  -4.162  30.038  0.00  0.00    -0.267 OA
ATOM     16  N   UNL A   1     -27.960  -2.296  31.052  0.00  0.00    -0.084 NA
ENDBRANCH   5  14
TORSDOF 2
ENDMDL
ENDMDL
