REMARK  Name = No_3834-gen_results/8p0m/2024-11-26-14-13-15/
REMARK  2 active torsions:
REMARK  status: ('A' for Active; 'I' for Inactive)
REMARK    1  A    between atoms: C_3  and  C_7
REMARK    2  A    between atoms: C_5  and  C_13
REMARK                            x       y       z     vdW  Elec       q    Type
REMARK                         _______ _______ _______ _____ _____    ______ ____
ROOT
ATOM      1  C   UNL A   1     -28.016  -0.814  28.878  0.00  0.00    +0.000 A 
ATOM      2  C   UNL A   1     -27.064  -0.119  28.608  0.00  0.00    +0.000 A 
ATOM      3  C   UNL A   1     -26.972   0.714  27.506  0.00  0.00    +0.000 A 
ATOM      4  C   UNL A   1     -28.105   0.774  26.642  0.00  0.00    +0.005 A 
ATOM      5  C   UNL A   1     -29.204   0.118  27.048  0.00  0.00    +0.057 A 
ATOM      6  C   UNL A   1     -29.213  -0.609  28.128  0.00  0.00    +0.005 A 
ENDROOT
BRANCH   3   7
ATOM      7  C   UNL A   1     -25.711   1.452  27.138  0.00  0.00    +0.001 A 
ATOM      8  C   UNL A   1     -25.377   2.046  26.174  0.00  0.00    +0.000 A 
ATOM      9  C   UNL A   1     -24.056   2.667  26.069  0.00  0.00    +0.001 A 
ATOM     10  C   UNL A   1     -23.077   2.449  27.021  0.00  0.00    +0.011 A 
ATOM     11  C   UNL A   1     -23.397   1.550  28.056  0.00  0.00    +0.058 A 
ATOM     12  C   UNL A   1     -24.650   1.054  28.195  0.00  0.00    +0.011 A 
ATOM     13 CL   UNL A   1     -22.126   1.221  29.161  0.00  0.00    -0.082 Cl
ENDBRANCH   3   7
BRANCH   5  14
ATOM     14  C   UNL A   1     -30.405   0.268  26.187  0.00  0.00    +0.284 C 
ATOM     15  O   UNL A   1     -31.253  -0.604  26.090  0.00  0.00    -0.267 OA
ATOM     16  N   UNL A   1     -30.314   1.169  25.089  0.00  0.00    -0.084 NA
ENDBRANCH   5  14
TORSDOF 2
