MODEL 3835
MODEL 1
REMARK VINA RESULT:    -5.198      0.000      0.000
REMARK INTER + INTRA:          -5.701
REMARK INTER:                  -5.502
REMARK INTRA:                  -0.198
REMARK UNBOUND:                -0.198
REMARK  Name = No_3835-gen_results/8p0m/2024-11-26-14-13-15/
REMARK  1 active torsions:
REMARK  status: ('A' for Active; 'I' for Inactive)
REMARK    1  A    between atoms: C_1  and  C_2
REMARK                            x       y       z     vdW  Elec       q    Type
REMARK                         _______ _______ _______ _____ _____    ______ ____
ROOT
ATOM      1  C   UNL A   1     -24.578  -2.360  28.634  0.00  0.00    -0.000 A 
ATOM      2  C   UNL A   1     -25.713  -2.647  29.592  0.00  0.00    -0.000 A 
ATOM      3  C   UNL A   1     -26.374  -3.914  29.776  0.00  0.00    -0.000 A 
ATOM      4  C   UNL A   1     -25.752  -5.063  29.449  0.00  0.00    -0.000 A 
ATOM      5  C   UNL A   1     -24.489  -4.980  28.830  0.00  0.00    -0.000 A 
ATOM      6  C   UNL A   1     -23.986  -3.743  28.622  0.00  0.00    -0.000 A 
ENDROOT
BRANCH   1   7
ATOM      7  C   UNL A   1     -24.142  -1.404  28.722  0.00  0.00    -0.005 C 
ATOM      8  C   UNL A   1     -22.685  -1.260  29.162  0.00  0.00    -0.026 C 
ATOM      9  C   UNL A   1     -21.861  -0.138  28.994  0.00  0.00    +0.031 C 
ENDBRANCH   1   7
TORSDOF 1
ENDMDL
ENDMDL
