REMARK  Name = No_3835-gen_results/8p0m/2024-11-26-14-13-15/
REMARK  1 active torsions:
REMARK  status: ('A' for Active; 'I' for Inactive)
REMARK    1  A    between atoms: C_1  and  C_2
REMARK                            x       y       z     vdW  Elec       q    Type
REMARK                         _______ _______ _______ _____ _____    ______ ____
ROOT
ATOM      1  C   UNL A   1     -28.016  -0.814  28.878  0.00  0.00    -0.000 A 
ATOM      2  C   UNL A   1     -26.504  -0.778  28.877  0.00  0.00    -0.000 A 
ATOM      3  C   UNL A   1     -25.654  -0.660  27.719  0.00  0.00    -0.000 A 
ATOM      4  C   UNL A   1     -26.123  -0.117  26.580  0.00  0.00    -0.000 A 
ATOM      5  C   UNL A   1     -27.487   0.232  26.524  0.00  0.00    -0.000 A 
ATOM      6  C   UNL A   1     -28.225   0.006  27.634  0.00  0.00    -0.000 A 
ENDROOT
BRANCH   1   7
ATOM      7  C   UNL A   1     -28.469  -0.785  29.829  0.00  0.00    -0.005 C 
ATOM      8  C   UNL A   1     -29.992  -0.813  29.958  0.00  0.00    -0.026 C 
ATOM      9  C   UNL A   1     -30.735  -1.133  31.103  0.00  0.00    +0.031 C 
ENDBRANCH   1   7
TORSDOF 1
