REMARK  Name = No_3836-gen_results/8p0m/2024-11-26-14-13-15/
REMARK  4 active torsions:
REMARK  status: ('A' for Active; 'I' for Inactive)
REMARK    1  A    between atoms: C_1  and  C_2
REMARK    2  A    between atoms: C_1  and  N_8
REMARK    3  A    between atoms: C_5  and  C_17
REMARK    4  A    between atoms: C_9  and  C_10
REMARK                            x       y       z     vdW  Elec       q    Type
REMARK                         _______ _______ _______ _____ _____    ______ ____
ROOT
ATOM      1  C   UNL A   1     -28.016  -0.814  28.878  0.00  0.00    +0.142 C 
ENDROOT
BRANCH   1   2
ATOM      2  C   UNL A   1     -27.064  -0.119  28.608  0.00  0.00    -0.001 A 
ATOM      3  C   UNL A   1     -27.001   0.691  27.491  0.00  0.00    -0.003 A 
ATOM      4  C   UNL A   1     -25.855   1.482  27.083  0.00  0.00    +0.004 A 
ATOM      5  C   UNL A   1     -24.690   1.453  27.881  0.00  0.00    +0.071 A 
ATOM      6  C   UNL A   1     -24.738   0.601  29.042  0.00  0.00    +0.004 A 
ATOM      7  C   UNL A   1     -25.823  -0.169  29.389  0.00  0.00    -0.003 A 
BRANCH   5   8
ATOM      8  C   UNL A   1     -23.517   2.195  27.544  0.00  0.00    +0.419 C 
ATOM      9  F   UNL A   1     -23.591   2.936  26.622  0.00  0.00    -0.166 F 
ATOM     10  F   UNL A   1     -22.434   1.307  27.217  0.00  0.00    -0.166 F 
ATOM     11  F   UNL A   1     -23.032   2.863  28.680  0.00  0.00    -0.166 F 
ENDBRANCH   5   8
ENDBRANCH   1   2
BRANCH   1  12
ATOM     12  N   UNL A   1     -28.757  -0.548  30.019  0.00  0.00    -0.197 NA
ATOM     13  C   UNL A   1     -29.760  -1.326  30.517  0.00  0.00    +0.265 C 
ATOM     14  O   UNL A   1     -30.336  -0.780  31.551  0.00  0.00    -0.268 OA
BRANCH  13  15
ATOM     15  C   UNL A   1     -30.231  -2.294  29.887  0.00  0.00    +0.055 A 
ATOM     16  C   UNL A   1     -31.401  -2.685  29.863  0.00  0.00    +0.005 A 
ATOM     17  C   UNL A   1     -31.866  -3.846  29.095  0.00  0.00    +0.000 A 
ATOM     18  C   UNL A   1     -30.982  -4.938  29.012  0.00  0.00    +0.000 A 
ATOM     19  C   UNL A   1     -29.615  -4.716  29.439  0.00  0.00    +0.000 A 
ATOM     20  C   UNL A   1     -29.219  -3.495  29.977  0.00  0.00    +0.005 A 
ENDBRANCH  13  15
ENDBRANCH   1  12
TORSDOF 4
