MODEL 3837
MODEL 1
REMARK VINA RESULT:    -5.170      0.000      0.000
REMARK INTER + INTRA:          -5.692
REMARK INTER:                  -5.472
REMARK INTRA:                  -0.221
REMARK UNBOUND:                -0.221
REMARK  Name = No_3837-gen_results/8p0m/2024-11-26-14-13-15/
REMARK  1 active torsions:
REMARK  status: ('A' for Active; 'I' for Inactive)
REMARK    1  A    between atoms: C_3  and  C_4
REMARK                            x       y       z     vdW  Elec       q    Type
REMARK                         _______ _______ _______ _____ _____    ______ ____
ROOT
ATOM      1  C   UNL A   1     -25.862  -2.609  29.819  0.00  0.00    +0.004 A 
ATOM      2  C   UNL A   1     -26.407  -3.508  29.895  0.00  0.00    -0.000 A 
ATOM      3  C   UNL A   1     -24.559  -2.673  29.277  0.00  0.00    +0.071 A 
ATOM      4  C   UNL A   1     -26.052  -4.893  29.540  0.00  0.00    -0.000 A 
ATOM      5  C   UNL A   1     -24.774  -5.033  28.999  0.00  0.00    -0.000 A 
ATOM      6  C   UNL A   1     -24.011  -3.926  28.809  0.00  0.00    +0.004 A 
ENDROOT
BRANCH   3   7
ATOM      7  C   UNL A   1     -23.703  -1.490  29.000  0.00  0.00    +0.419 C 
ATOM      8  F   UNL A   1     -22.600  -1.870  28.918  0.00  0.00    -0.166 F 
ATOM      9  F   UNL A   1     -23.755  -0.695  30.101  0.00  0.00    -0.166 F 
ATOM     10  F   UNL A   1     -24.113  -0.787  27.917  0.00  0.00    -0.166 F 
ENDBRANCH   3   7
TORSDOF 1
ENDMDL
ENDMDL
