MODEL 3838
MODEL 1
REMARK VINA RESULT:    -6.124      0.000      0.000
REMARK INTER + INTRA:          -9.522
REMARK INTER:                  -8.630
REMARK INTRA:                  -0.891
REMARK UNBOUND:                -0.891
REMARK  Name = No_3838-gen_results/8p0m/2024-11-26-14-13-15/
REMARK  7 active torsions:
REMARK  status: ('A' for Active; 'I' for Inactive)
REMARK    1  A    between atoms: C_2  and  C_15
REMARK    2  A    between atoms: C_3  and  C_4
REMARK    3  A    between atoms: C_4  and  C_8
REMARK    4  A    between atoms: C_9  and  C_10
REMARK    5  A    between atoms: C_10  and  C_11
REMARK    6  A    between atoms: C_15  and  N_16
REMARK    7  A    between atoms: N_16  and  C_17
REMARK                            x       y       z     vdW  Elec       q    Type
REMARK                         _______ _______ _______ _____ _____    ______ ____
ROOT
ATOM      1  C   UNL A   1     -23.684  -0.101  28.461  0.00  0.00    -0.006 A 
ATOM      2  C   UNL A   1     -23.070  -0.793  28.966  0.00  0.00    -0.001 A 
ATOM      3  C   UNL A   1     -22.967   1.090  27.866  0.00  0.00    -0.018 A 
ATOM      4  C   UNL A   1     -21.611  -0.950  29.022  0.00  0.00    -0.003 A 
ATOM      5  C   UNL A   1     -20.885   0.086  28.474  0.00  0.00    -0.001 A 
ATOM      6  C   UNL A   1     -21.526   1.125  27.850  0.00  0.00    -0.004 A 
ENDROOT
BRANCH   3   7
ATOM      7  C   UNL A   1     -23.585   2.243  27.259  0.00  0.00    +0.052 C 
BRANCH   7   8
ATOM      8  C   UNL A   1     -24.032   2.191  25.952  0.00  0.00    -0.026 C 
ATOM      9  C   UNL A   1     -25.340   2.208  25.655  0.00  0.00    -0.022 C 
BRANCH   9  10
ATOM     10  C   UNL A   1     -26.175   1.330  25.457  0.00  0.00    +0.129 C 
BRANCH  10  11
ATOM     11  C   UNL A   1     -25.762  -0.057  25.127  0.00  0.00    +0.402 C 
ATOM     12  F   UNL A   1     -25.363  -0.663  25.870  0.00  0.00    -0.170 F 
ATOM     13  F   UNL A   1     -24.724   0.111  24.133  0.00  0.00    -0.170 F 
ATOM     14  F   UNL A   1     -26.825  -0.632  24.484  0.00  0.00    -0.170 F 
ENDBRANCH  10  11
ENDBRANCH   9  10
ENDBRANCH   7   8
ENDBRANCH   3   7
BRANCH   2  15
ATOM     15  C   UNL A   1     -23.797  -2.016  29.681  0.00  0.00    +0.139 C 
BRANCH  15  16
ATOM     16  N   UNL A   1     -24.396  -2.910  28.950  0.00  0.00    -0.232 NA
BRANCH  16  17
ATOM     17  C   UNL A   1     -24.130  -4.032  28.796  0.00  0.00    +0.081 C 
ATOM     18  C   UNL A   1     -25.022  -5.134  29.156  0.00  0.00    +0.019 C 
ENDBRANCH  16  17
ENDBRANCH  15  16
ENDBRANCH   2  15
TORSDOF 7
ENDMDL
ENDMDL
