REMARK  Name = No_3838-gen_results/8p0m/2024-11-26-14-13-15/
REMARK  7 active torsions:
REMARK  status: ('A' for Active; 'I' for Inactive)
REMARK    1  A    between atoms: C_2  and  C_15
REMARK    2  A    between atoms: C_3  and  C_4
REMARK    3  A    between atoms: C_4  and  C_8
REMARK    4  A    between atoms: C_9  and  C_10
REMARK    5  A    between atoms: C_10  and  C_11
REMARK    6  A    between atoms: C_15  and  N_16
REMARK    7  A    between atoms: N_16  and  C_17
REMARK                            x       y       z     vdW  Elec       q    Type
REMARK                         _______ _______ _______ _____ _____    ______ ____
ROOT
ATOM      1  C   UNL A   1     -28.016  -0.814  28.878  0.00  0.00    -0.006 A 
ATOM      2  C   UNL A   1     -28.469  -0.785  29.829  0.00  0.00    -0.001 A 
ATOM      3  C   UNL A   1     -26.504  -0.778  28.877  0.00  0.00    -0.018 A 
ATOM      4  C   UNL A   1     -27.918  -0.937  31.182  0.00  0.00    -0.003 A 
ATOM      5  C   UNL A   1     -26.542  -0.940  31.261  0.00  0.00    -0.001 A 
ATOM      6  C   UNL A   1     -25.783  -0.893  30.120  0.00  0.00    -0.004 A 
ENDROOT
BRANCH   3   7
ATOM      7  C   UNL A   1     -25.654  -0.660  27.719  0.00  0.00    +0.052 C 
BRANCH   7   8
ATOM      8  C   UNL A   1     -25.926   0.282  26.744  0.00  0.00    -0.026 C 
ATOM      9  C   UNL A   1     -24.990   0.678  25.868  0.00  0.00    -0.022 C 
BRANCH   9  10
ATOM     10  C   UNL A   1     -24.189   1.608  25.848  0.00  0.00    +0.129 C 
BRANCH  10  11
ATOM     11  C   UNL A   1     -24.120   2.582  26.965  0.00  0.00    +0.402 C 
ATOM     12  F   UNL A   1     -23.449   3.374  26.914  0.00  0.00    -0.170 F 
ATOM     13  F   UNL A   1     -23.725   1.784  28.106  0.00  0.00    -0.170 F 
ATOM     14  F   UNL A   1     -25.405   2.988  27.202  0.00  0.00    -0.170 F 
ENDBRANCH  10  11
ENDBRANCH   9  10
ENDBRANCH   7   8
ENDBRANCH   3   7
BRANCH   2  15
ATOM     15  C   UNL A   1     -30.060  -0.734  29.870  0.00  0.00    +0.139 C 
BRANCH  15  16
ATOM     16  N   UNL A   1     -30.647   0.365  30.242  0.00  0.00    -0.232 NA
BRANCH  16  17
ATOM     17  C   UNL A   1     -31.772   0.657  30.176  0.00  0.00    +0.081 C 
ATOM     18  C   UNL A   1     -32.295   1.964  30.573  0.00  0.00    +0.019 C 
ENDBRANCH  16  17
ENDBRANCH  15  16
ENDBRANCH   2  15
TORSDOF 7
