MODEL 3839
MODEL 1
REMARK VINA RESULT:    -7.781      0.000      0.000
REMARK INTER + INTRA:          -9.532
REMARK INTER:                  -8.463
REMARK INTRA:                  -1.069
REMARK UNBOUND:                -1.069
REMARK  Name = No_3839-gen_results/8p0m/2024-11-26-14-13-15/
REMARK  2 active torsions:
REMARK  status: ('A' for Active; 'I' for Inactive)
REMARK    1  A    between atoms: C_3  and  C_7
REMARK    2  A    between atoms: C_11  and  C_12
REMARK                            x       y       z     vdW  Elec       q    Type
REMARK                         _______ _______ _______ _____ _____    ______ ____
ROOT
ATOM      1  C   UNL A   1     -23.679  -1.514  28.781  0.00  0.00    -0.014 C 
ATOM      2  C   UNL A   1     -22.741  -1.062  29.337  0.00  0.00    -0.004 C 
ATOM      3  C   UNL A   1     -21.993   0.148  28.932  0.00  0.00    -0.004 C 
ATOM      4  C   UNL A   1     -22.645   0.902  27.977  0.00  0.00    -0.018 C 
ATOM      5  C   UNL A   1     -24.083  -0.228  27.753  0.00  0.00    +0.066 C 
ENDROOT
BRANCH   1   8
ATOM      6  C   UNL A   1     -26.489  -3.559  29.964  0.00  0.00    -0.000 A 
ATOM      7  C   UNL A   1     -25.803  -2.620  29.633  0.00  0.00    -0.000 A 
ATOM      8  C   UNL A   1     -24.553  -2.713  29.047  0.00  0.00    -0.003 A 
ATOM      9  C   UNL A   1     -24.053  -4.024  28.790  0.00  0.00    -0.000 A 
ATOM     10  C   UNL A   1     -24.896  -5.043  29.020  0.00  0.00    -0.000 A 
ATOM     11  C   UNL A   1     -26.078  -4.857  29.534  0.00  0.00    -0.000 A 
ENDBRANCH   1   8
BRANCH   5  12
ATOM     12  C   UNL A   1     -25.074   0.080  26.962  0.00  0.00    -0.014 A 
ATOM     13  C   UNL A   1     -24.971  -0.033  25.644  0.00  0.00    -0.004 A 
ATOM     14  C   UNL A   1     -26.305   0.463  27.556  0.00  0.00    -0.004 A 
ATOM     15  C   UNL A   1     -27.469   0.627  26.774  0.00  0.00    -0.000 A 
ATOM     16  C   UNL A   1     -26.094   0.113  24.774  0.00  0.00    -0.000 A 
ATOM     17  C   UNL A   1     -27.354   0.457  25.378  0.00  0.00    -0.000 A 
ENDBRANCH   5  12
TORSDOF 2
ENDMDL
ENDMDL
