REMARK  Name = No_3839-gen_results/8p0m/2024-11-26-14-13-15/
REMARK  2 active torsions:
REMARK  status: ('A' for Active; 'I' for Inactive)
REMARK    1  A    between atoms: C_3  and  C_7
REMARK    2  A    between atoms: C_11  and  C_12
REMARK                            x       y       z     vdW  Elec       q    Type
REMARK                         _______ _______ _______ _____ _____    ______ ____
ROOT
ATOM      1  C   UNL A   1     -25.711   1.452  27.138  0.00  0.00    -0.014 C 
ATOM      2  C   UNL A   1     -25.377   2.046  26.174  0.00  0.00    -0.004 C 
ATOM      3  C   UNL A   1     -24.075   2.719  25.978  0.00  0.00    -0.004 C 
ATOM      4  C   UNL A   1     -23.130   2.373  26.923  0.00  0.00    -0.018 C 
ATOM      5  C   UNL A   1     -24.223   1.289  27.935  0.00  0.00    +0.066 C 
ENDROOT
BRANCH   1   8
ATOM      6  C   UNL A   1     -28.016  -0.814  28.878  0.00  0.00    -0.000 A 
ATOM      7  C   UNL A   1     -27.064  -0.119  28.608  0.00  0.00    -0.000 A 
ATOM      8  C   UNL A   1     -26.972   0.714  27.506  0.00  0.00    -0.003 A 
ATOM      9  C   UNL A   1     -28.105   0.774  26.642  0.00  0.00    -0.000 A 
ATOM     10  C   UNL A   1     -29.204   0.118  27.048  0.00  0.00    -0.000 A 
ATOM     11  C   UNL A   1     -29.213  -0.609  28.128  0.00  0.00    -0.000 A 
ENDBRANCH   1   8
BRANCH   5  12
ATOM     12  C   UNL A   1     -23.765   0.630  28.964  0.00  0.00    -0.014 A 
ATOM     13  C   UNL A   1     -23.796   1.145  30.187  0.00  0.00    -0.004 A 
ATOM     14  C   UNL A   1     -23.304  -0.696  28.754  0.00  0.00    -0.004 A 
ATOM     15  C   UNL A   1     -22.973  -1.530  29.844  0.00  0.00    -0.000 A 
ATOM     16  C   UNL A   1     -23.480   0.376  31.348  0.00  0.00    -0.000 A 
ATOM     17  C   UNL A   1     -23.056  -0.984  31.142  0.00  0.00    -0.000 A 
ENDBRANCH   5  12
TORSDOF 2
