MODEL 383
MODEL 1
REMARK VINA RESULT:    -6.571      0.000      0.000
REMARK INTER + INTRA:          -7.310
REMARK INTER:                  -6.955
REMARK INTRA:                  -0.354
REMARK UNBOUND:                -0.354
REMARK  Name = No_383-gen_results/8p0m/2024-11-26-14-13-15/
REMARK  1 active torsions:
REMARK  status: ('A' for Active; 'I' for Inactive)
REMARK    1  A    between atoms: C_4  and  C_7
REMARK                            x       y       z     vdW  Elec       q    Type
REMARK                         _______ _______ _______ _____ _____    ______ ____
ROOT
ATOM      1  C   UNL A   1     -26.560  -3.921  29.909  0.00  0.00    +0.000 A 
ATOM      2  C   UNL A   1     -26.143  -4.853  29.648  0.00  0.00    +0.000 A 
ATOM      3  C   UNL A   1     -25.710  -2.737  29.700  0.00  0.00    +0.000 A 
ATOM      4  C   UNL A   1     -24.450  -2.857  29.046  0.00  0.00    +0.000 A 
ATOM      5  C   UNL A   1     -24.066  -4.130  28.708  0.00  0.00    +0.000 A 
ATOM      6  C   UNL A   1     -24.875  -5.184  28.947  0.00  0.00    +0.000 A 
ENDROOT
BRANCH   4   7
ATOM      7  C   UNL A   1     -23.612  -1.708  28.816  0.00  0.00    +0.000 A 
ATOM      8  C   UNL A   1     -22.733  -1.469  29.268  0.00  0.00    +0.000 A 
ATOM      9  C   UNL A   1     -21.953  -0.141  29.172  0.00  0.00    +0.000 A 
ATOM     10  C   UNL A   1     -22.539   0.739  28.282  0.00  0.00    +0.000 A 
ATOM     11  C   UNL A   1     -24.178  -0.518  28.017  0.00  0.00    +0.000 A 
ATOM     12  C   UNL A   1     -23.654   0.572  27.818  0.00  0.00    +0.000 A 
ENDBRANCH   4   7
TORSDOF 1
ENDMDL
ENDMDL
