REMARK  Name = No_3840-gen_results/8p0m/2024-11-26-14-13-15/
REMARK  5 active torsions:
REMARK  status: ('A' for Active; 'I' for Inactive)
REMARK    1  A    between atoms: C_1  and  C_2
REMARK    2  A    between atoms: C_1  and  N_8
REMARK    3  A    between atoms: C_4  and  C_17
REMARK    4  A    between atoms: C_5  and  C_12
REMARK    5  A    between atoms: C_9  and  C_10
REMARK                            x       y       z     vdW  Elec       q    Type
REMARK                         _______ _______ _______ _____ _____    ______ ____
ROOT
ATOM      1  C   UNL A   1     -27.064  -0.119  28.608  0.00  0.00    -0.000 A 
ATOM      2  C   UNL A   1     -26.929   1.171  29.008  0.00  0.00    +0.001 A 
ATOM      3  C   UNL A   1     -25.770   2.034  28.688  0.00  0.00    +0.047 A 
ATOM      4  C   UNL A   1     -24.714   1.443  27.919  0.00  0.00    -0.004 A 
ATOM      5  C   UNL A   1     -24.859   0.078  27.584  0.00  0.00    -0.003 A 
ATOM      6  C   UNL A   1     -25.965  -0.661  27.916  0.00  0.00    -0.003 A 
ENDROOT
BRANCH   4   7
ATOM      7  C   UNL A   1     -23.533   2.174  27.569  0.00  0.00    +0.102 C 
ATOM      8 CL   UNL A   1     -22.491   2.027  27.750  0.00  0.00    -0.110 Cl
ATOM      9  C   UNL A   1     -24.051   3.179  26.456  0.00  0.00    +0.022 C 
ENDBRANCH   4   7
BRANCH   3  10
ATOM     10  C   UNL A   1     -25.712   3.435  29.027  0.00  0.00    +0.253 C 
ATOM     11  O   UNL A   1     -25.356   3.723  30.127  0.00  0.00    -0.274 OA
ATOM     12 CL   UNL A   1     -26.274   4.628  27.937  0.00  0.00    -0.038 Cl
ENDBRANCH   3  10
BRANCH   1  13
ATOM     13  C   UNL A   1     -28.016  -0.814  28.878  0.00  0.00    +0.142 C 
BRANCH  13  14
ATOM     14  N   UNL A   1     -28.700  -0.644  30.077  0.00  0.00    -0.191 NA
ATOM     15  C   UNL A   1     -29.803  -1.365  30.506  0.00  0.00    +0.345 C 
ATOM     16  O   UNL A   1     -30.116  -1.162  31.789  0.00  0.00    -0.261 OA
BRANCH  15  17
ATOM     17  C   UNL A   1     -30.375  -2.179  29.745  0.00  0.00    +0.442 C 
ATOM     18  O   UNL A   1     -31.301  -1.834  29.054  0.00  0.00    -0.235 OA
ATOM     19  O   UNL A   1     -30.095  -3.468  29.825  0.00  0.00    -0.235 OA
ENDBRANCH  15  17
ENDBRANCH  13  14
ENDBRANCH   1  13
TORSDOF 5
