MODEL 3840
MODEL 1
REMARK VINA RESULT:    -6.137      0.000      0.000
REMARK INTER + INTRA:          -8.689
REMARK INTER:                  -7.931
REMARK INTRA:                  -0.758
REMARK UNBOUND:                -0.758
REMARK  Name = No_3840-gen_results/8p0m/2024-11-26-14-13-15/
REMARK  5 active torsions:
REMARK  status: ('A' for Active; 'I' for Inactive)
REMARK    1  A    between atoms: C_1  and  C_2
REMARK    2  A    between atoms: C_1  and  N_8
REMARK    3  A    between atoms: C_4  and  C_17
REMARK    4  A    between atoms: C_5  and  C_12
REMARK    5  A    between atoms: C_9  and  C_10
REMARK                            x       y       z     vdW  Elec       q    Type
REMARK                         _______ _______ _______ _____ _____    ______ ____
ROOT
ATOM      1  C   UNL A   1     -29.431 -10.752  31.097  0.00  0.00    -0.000 A 
ATOM      2  C   UNL A   1     -30.324 -10.052  30.353  0.00  0.00    +0.001 A 
ATOM      3  C   UNL A   1     -30.603 -10.299  28.920  0.00  0.00    +0.047 A 
ATOM      4  C   UNL A   1     -29.850 -11.340  28.284  0.00  0.00    -0.004 A 
ATOM      5  C   UNL A   1     -28.879 -11.996  29.073  0.00  0.00    -0.003 A 
ATOM      6  C   UNL A   1     -28.676 -11.713  30.399  0.00  0.00    -0.003 A 
ENDROOT
BRANCH   4   7
ATOM      7  C   UNL A   1     -30.017 -11.654  26.896  0.00  0.00    +0.102 C 
ATOM      8 CL   UNL A   1     -29.549 -11.313  25.999  0.00  0.00    -0.110 Cl
ATOM      9  C   UNL A   1     -30.881 -12.984  26.931  0.00  0.00    +0.022 C 
ENDBRANCH   4   7
BRANCH   3  10
ATOM     10  C   UNL A   1     -31.643  -9.617  28.189  0.00  0.00    +0.253 C 
ATOM     11  O   UNL A   1     -32.749 -10.051  28.268  0.00  0.00    -0.274 OA
ATOM     12 CL   UNL A   1     -31.272  -8.322  27.133  0.00  0.00    -0.038 Cl
ENDBRANCH   3  10
BRANCH   1  13
ATOM     13  C   UNL A   1     -29.212 -10.538  32.267  0.00  0.00    +0.142 C 
BRANCH  13  14
ATOM     14  N   UNL A   1     -29.374 -11.544  33.213  0.00  0.00    -0.191 NA
ATOM     15  C   UNL A   1     -28.393 -12.056  34.049  0.00  0.00    +0.345 C 
ATOM     16  O   UNL A   1     -28.867 -12.842  35.019  0.00  0.00    -0.261 OA
BRANCH  15  17
ATOM     17  C   UNL A   1     -27.194 -11.720  33.914  0.00  0.00    +0.442 C 
ATOM     18  O   UNL A   1     -26.445 -12.366  33.224  0.00  0.00    -0.235 OA
ATOM     19  O   UNL A   1     -26.686 -10.764  34.670  0.00  0.00    -0.235 OA
ENDBRANCH  15  17
ENDBRANCH  13  14
ENDBRANCH   1  13
TORSDOF 5
ENDMDL
ENDMDL
