MODEL 3841
MODEL 1
REMARK VINA RESULT:    -6.730      0.000      0.000
REMARK INTER + INTRA:          -7.293
REMARK INTER:                  -7.123
REMARK INTRA:                  -0.170
REMARK UNBOUND:                -0.170
REMARK  Name = No_3841-gen_results/8p0m/2024-11-26-14-13-15/
REMARK  1 active torsions:
REMARK  status: ('A' for Active; 'I' for Inactive)
REMARK    1  A    between atoms: C_6  and  C_8
REMARK                            x       y       z     vdW  Elec       q    Type
REMARK                         _______ _______ _______ _____ _____    ______ ____
ROOT
ATOM      1  F   UNL A   1     -27.569  -3.781  30.432  0.00  0.00    -0.229 F 
ATOM      2  C   UNL A   1     -26.447  -3.791  29.911  0.00  0.00    +0.218 C 
ATOM      3  C   UNL A   1     -25.925  -4.808  29.543  0.00  0.00    +0.043 C 
ATOM      4  C   UNL A   1     -24.647  -4.980  28.861  0.00  0.00    +0.004 C 
ATOM      5  C   UNL A   1     -23.962  -3.710  28.614  0.00  0.00    +0.012 C 
ATOM      6  C   UNL A   1     -24.615  -2.549  29.004  0.00  0.00    +0.083 C 
ATOM      7  C   UNL A   1     -25.810  -2.540  29.623  0.00  0.00    +0.186 C 
ATOM      8  O   UNL A   1     -26.427  -1.428  29.932  0.00  0.00    -0.293 OA
ENDROOT
BRANCH   6   9
ATOM      9  C   UNL A   1     -23.848  -1.288  28.662  0.00  0.00    -0.015 A 
ATOM     10  C   UNL A   1     -24.239  -0.321  27.869  0.00  0.00    -0.004 A 
ATOM     11  C   UNL A   1     -23.423   0.813  27.550  0.00  0.00    -0.000 A 
ATOM     12  C   UNL A   1     -22.207   0.978  28.053  0.00  0.00    -0.000 A 
ATOM     13  C   UNL A   1     -21.758   0.006  28.951  0.00  0.00    -0.000 A 
ATOM     14  C   UNL A   1     -22.546  -1.133  29.254  0.00  0.00    -0.004 A 
ENDBRANCH   6   9
TORSDOF 1
ENDMDL
ENDMDL
