REMARK  Name = No_3841-gen_results/8p0m/2024-11-26-14-13-15/
REMARK  1 active torsions:
REMARK  status: ('A' for Active; 'I' for Inactive)
REMARK    1  A    between atoms: C_6  and  C_8
REMARK                            x       y       z     vdW  Elec       q    Type
REMARK                         _______ _______ _______ _____ _____    ______ ____
ROOT
ATOM      1  F   UNL A   1     -28.073  -1.254  28.532  0.00  0.00    -0.229 F 
ATOM      2  C   UNL A   1     -27.061  -0.629  28.872  0.00  0.00    +0.218 C 
ATOM      3  C   UNL A   1     -26.153  -1.156  29.454  0.00  0.00    +0.043 C 
ATOM      4  C   UNL A   1     -24.878  -0.579  29.864  0.00  0.00    +0.004 C 
ATOM      5  C   UNL A   1     -24.743   0.827  29.481  0.00  0.00    +0.012 C 
ATOM      6  C   UNL A   1     -25.788   1.393  28.763  0.00  0.00    +0.083 C 
ATOM      7  C   UNL A   1     -26.915   0.731  28.443  0.00  0.00    +0.186 C 
ATOM      8  O   UNL A   1     -27.861   1.273  27.719  0.00  0.00    -0.293 OA
ENDROOT
BRANCH   6   9
ATOM      9  C   UNL A   1     -25.533   2.834  28.372  0.00  0.00    -0.015 A 
ATOM     10  C   UNL A   1     -26.131   3.509  27.421  0.00  0.00    -0.004 A 
ATOM     11  C   UNL A   1     -25.786   4.856  27.076  0.00  0.00    -0.000 A 
ATOM     12  C   UNL A   1     -24.838   5.532  27.711  0.00  0.00    -0.000 A 
ATOM     13  C   UNL A   1     -24.204   4.883  28.774  0.00  0.00    -0.000 A 
ATOM     14  C   UNL A   1     -24.519   3.542  29.108  0.00  0.00    -0.004 A 
ENDBRANCH   6   9
TORSDOF 1
