MODEL 3842
MODEL 1
REMARK VINA RESULT:    -4.480      0.000      0.000
REMARK INTER + INTRA:          -4.480
REMARK INTER:                  -4.480
REMARK INTRA:                   0.000
REMARK UNBOUND:                 0.000
REMARK  Name = No_3842-gen_results/8p0m/2024-11-26-14-13-15/
REMARK  0 active torsions:
REMARK  status: ('A' for Active; 'I' for Inactive)
REMARK                            x       y       z     vdW  Elec       q    Type
REMARK                         _______ _______ _______ _____ _____    ______ ____
ROOT
ATOM      1  C   UNL A   1      -9.217  -9.213  20.000  0.00  0.00    +0.011 A 
ATOM      2  C   UNL A   1      -8.223  -9.893  19.898  0.00  0.00    +0.058 A 
ATOM      3  C   UNL A   1      -8.045 -10.746  18.813  0.00  0.00    +0.011 A 
ATOM      4  C   UNL A   1      -9.061 -10.879  17.801  0.00  0.00    +0.001 A 
ATOM      5  C   UNL A   1     -10.188 -10.074  18.011  0.00  0.00    +0.000 A 
ATOM      6  C   UNL A   1     -10.315  -9.297  19.062  0.00  0.00    +0.001 A 
ATOM      7 CL   UNL A   1      -6.938  -9.898  21.030  0.00  0.00    -0.082 Cl
ENDROOT
TORSDOF 0
ENDMDL
ENDMDL
