MODEL 3843
MODEL 1
REMARK VINA RESULT:    -4.598      0.000      0.000
REMARK INTER + INTRA:          -4.598
REMARK INTER:                  -4.598
REMARK INTRA:                   0.000
REMARK UNBOUND:                 0.000
REMARK  Name = No_3843-gen_results/8p0m/2024-11-26-14-13-15/
REMARK  0 active torsions:
REMARK  status: ('A' for Active; 'I' for Inactive)
REMARK                            x       y       z     vdW  Elec       q    Type
REMARK                         _______ _______ _______ _____ _____    ______ ____
ROOT
ATOM      1  C   UNL A   1      -9.357  -9.124  20.312  0.00  0.00    +0.030 A 
ATOM      2  C   UNL A   1     -10.062  -9.173  19.530  0.00  0.00    +0.002 A 
ATOM      3  C   UNL A   1      -8.093  -9.802  20.001  0.00  0.00    +0.140 A 
ATOM      4  C   UNL A   1      -7.933 -10.558  18.913  0.00  0.00    +0.030 A 
ATOM      5  C   UNL A   1     -10.124  -9.926  18.301  0.00  0.00    +0.000 A 
ATOM      6  C   UNL A   1      -8.950 -10.569  18.043  0.00  0.00    +0.002 A 
ATOM      7  F   UNL A   1      -7.123  -9.689  20.967  0.00  0.00    -0.204 F 
ENDROOT
TORSDOF 0
ENDMDL
ENDMDL
