REMARK  Name = No_3844-gen_results/8p0m/2024-11-26-14-13-15/
REMARK  7 active torsions:
REMARK  status: ('A' for Active; 'I' for Inactive)
REMARK    1  A    between atoms: C_6  and  O_14
REMARK    2  A    between atoms: C_7  and  C_21
REMARK    3  A    between atoms: C_9  and  C_11
REMARK    4  A    between atoms: O_14  and  C_15
REMARK    5  A    between atoms: C_15  and  C_16
REMARK    6  A    between atoms: C_21  and  O_23
REMARK    7  A    between atoms: O_23  and  C_24
REMARK                            x       y       z     vdW  Elec       q    Type
REMARK                         _______ _______ _______ _____ _____    ______ ____
ROOT
ATOM      1  C   UNL A   1     -28.016  -0.814  28.878  0.00  0.00    +0.037 A 
ATOM      2  C   UNL A   1     -27.064  -0.119  28.608  0.00  0.00    +0.009 A 
ATOM      3  C   UNL A   1     -25.792  -0.430  29.076  0.00  0.00    +0.001 A 
ATOM      4  C   UNL A   1     -25.531  -1.587  29.610  0.00  0.00    +0.003 A 
ATOM      5  C   UNL A   1     -26.637  -2.434  29.965  0.00  0.00    +0.037 A 
ATOM      6  C   UNL A   1     -27.841  -2.029  29.620  0.00  0.00    +0.144 A 
ATOM      7  C   UNL A   1     -26.956   1.207  27.832  0.00  0.00    +0.076 A 
ATOM      8  C   UNL A   1     -25.983   1.719  27.411  0.00  0.00    +0.013 A 
ATOM      9  C   UNL A   1     -24.622   1.310  27.931  0.00  0.00    +0.080 A 
ATOM     10  C   UNL A   1     -24.448   0.506  28.702  0.00  0.00    +0.007 A 
ENDROOT
BRANCH   9  11
ATOM     11  C   UNL A   1     -23.582   2.393  27.602  0.00  0.00    +0.388 C 
ATOM     12  O   UNL A   1     -23.605   3.075  26.526  0.00  0.00    -0.241 OA
ATOM     13  O   UNL A   1     -22.387   2.268  28.179  0.00  0.00    -0.241 OA
ENDBRANCH   9  11
BRANCH   7  14
ATOM     14  C   UNL A   1     -28.375   1.580  27.280  0.00  0.00    +0.346 C 
ATOM     15  O   UNL A   1     -29.093   2.137  27.901  0.00  0.00    -0.244 OA
BRANCH  14  16
ATOM     16  O   UNL A   1     -28.412   1.444  25.960  0.00  0.00    -0.421 OA
BRANCH  16  17
ATOM     17  C   UNL A   1     -29.520   0.905  25.360  0.00  0.00    +0.149 A 
ATOM     18  C   UNL A   1     -30.378   0.669  25.831  0.00  0.00    +0.038 A 
ATOM     19  C   UNL A   1     -31.508  -0.159  25.216  0.00  0.00    +0.003 A 
ATOM     20  C   UNL A   1     -31.294  -0.446  23.861  0.00  0.00    +0.000 A 
ATOM     21  C   UNL A   1     -29.190   0.475  23.973  0.00  0.00    +0.038 A 
ATOM     22  C   UNL A   1     -30.117  -0.207  23.293  0.00  0.00    +0.003 A 
ENDBRANCH  16  17
ENDBRANCH  14  16
ENDBRANCH   7  14
BRANCH   6  23
ATOM     23  O   UNL A   1     -28.898  -2.820  29.992  0.00  0.00    -0.424 OA
BRANCH  23  24
ATOM     24  C   UNL A   1     -29.302  -2.826  31.316  0.00  0.00    +0.500 C 
ATOM     25  F   UNL A   1     -30.113  -1.793  31.581  0.00  0.00    -0.156 F 
ATOM     26  F   UNL A   1     -28.202  -2.571  32.170  0.00  0.00    -0.156 F 
BRANCH  24  27
ATOM     27  C   UNL A   1     -29.825  -4.092  31.694  0.00  0.00    +0.497 C 
ATOM     28  F   UNL A   1     -29.391  -5.099  31.184  0.00  0.00    -0.162 F 
ATOM     29  F   UNL A   1     -31.173  -4.201  31.757  0.00  0.00    -0.162 F 
ATOM     30  F   UNL A   1     -29.424  -4.675  32.909  0.00  0.00    -0.162 F 
ENDBRANCH  24  27
ENDBRANCH  23  24
ENDBRANCH   6  23
TORSDOF 7
