MODEL 3844
MODEL 1
REMARK VINA RESULT:    -7.512      0.000      0.000
REMARK INTER + INTRA:         -12.249
REMARK INTER:                 -10.587
REMARK INTRA:                  -1.662
REMARK UNBOUND:                -1.662
REMARK  Name = No_3844-gen_results/8p0m/2024-11-26-14-13-15/
REMARK  7 active torsions:
REMARK  status: ('A' for Active; 'I' for Inactive)
REMARK    1  A    between atoms: C_6  and  O_14
REMARK    2  A    between atoms: C_7  and  C_21
REMARK    3  A    between atoms: C_9  and  C_11
REMARK    4  A    between atoms: O_14  and  C_15
REMARK    5  A    between atoms: C_15  and  C_16
REMARK    6  A    between atoms: C_21  and  O_23
REMARK    7  A    between atoms: O_23  and  C_24
REMARK                            x       y       z     vdW  Elec       q    Type
REMARK                         _______ _______ _______ _____ _____    ______ ____
ROOT
ATOM      1  C   UNL A   1     -12.606   2.616  37.164  0.00  0.00    +0.037 A 
ATOM      2  C   UNL A   1     -13.287   2.692  38.161  0.00  0.00    +0.009 A 
ATOM      3  C   UNL A   1     -14.600   3.145  38.100  0.00  0.00    +0.001 A 
ATOM      4  C   UNL A   1     -15.220   3.275  36.964  0.00  0.00    +0.003 A 
ATOM      5  C   UNL A   1     -14.442   3.213  35.757  0.00  0.00    +0.037 A 
ATOM      6  C   UNL A   1     -13.166   2.913  35.877  0.00  0.00    +0.144 A 
ATOM      7  C   UNL A   1     -12.960   2.428  39.642  0.00  0.00    +0.076 A 
ATOM      8  C   UNL A   1     -13.716   2.303  40.536  0.00  0.00    +0.013 A 
ATOM      9  C   UNL A   1     -15.145   2.780  40.397  0.00  0.00    +0.080 A 
ATOM     10  C   UNL A   1     -15.576   3.244  39.464  0.00  0.00    +0.007 A 
ENDROOT
BRANCH   9  11
ATOM     11  C   UNL A   1     -15.787   2.941  41.784  0.00  0.00    +0.388 C 
ATOM     12  O   UNL A   1     -15.198   2.614  42.866  0.00  0.00    -0.241 OA
ATOM     13  O   UNL A   1     -17.119   2.934  41.830  0.00  0.00    -0.241 OA
ENDBRANCH   9  11
BRANCH   7  14
ATOM     14  C   UNL A   1     -11.487   1.903  39.744  0.00  0.00    +0.346 C 
ATOM     15  O   UNL A   1     -10.635   2.597  39.675  0.00  0.00    -0.244 OA
BRANCH  14  16
ATOM     16  O   UNL A   1     -11.464   0.672  40.239  0.00  0.00    -0.421 OA
BRANCH  16  17
ATOM     17  C   UNL A   1     -11.353  -0.402  39.394  0.00  0.00    +0.149 A 
ATOM     18  C   UNL A   1     -10.891  -0.391  38.500  0.00  0.00    +0.038 A 
ATOM     19  C   UNL A   1     -10.988  -1.507  37.458  0.00  0.00    +0.003 A 
ATOM     20  C   UNL A   1     -11.680  -2.630  37.930  0.00  0.00    +0.000 A 
ATOM     21  C   UNL A   1     -12.231  -1.510  39.861  0.00  0.00    +0.038 A 
ATOM     22  C   UNL A   1     -12.357  -2.581  39.071  0.00  0.00    +0.003 A 
ENDBRANCH  16  17
ENDBRANCH  14  16
ENDBRANCH   7  14
BRANCH   6  23
ATOM     23  O   UNL A   1     -12.417   2.890  34.729  0.00  0.00    -0.424 OA
BRANCH  23  24
ATOM     24  C   UNL A   1     -11.979   1.673  34.234  0.00  0.00    +0.500 C 
ATOM     25  F   UNL A   1     -11.798   0.784  35.220  0.00  0.00    -0.156 F 
ATOM     26  F   UNL A   1     -10.675   1.797  33.698  0.00  0.00    -0.156 F 
BRANCH  24  27
ATOM     27  C   UNL A   1     -12.811   1.213  33.177  0.00  0.00    +0.497 C 
ATOM     28  F   UNL A   1     -13.709   0.438  33.412  0.00  0.00    -0.162 F 
ATOM     29  F   UNL A   1     -12.189   0.804  32.046  0.00  0.00    -0.162 F 
ATOM     30  F   UNL A   1     -13.822   2.049  32.673  0.00  0.00    -0.162 F 
ENDBRANCH  24  27
ENDBRANCH  23  24
ENDBRANCH   6  23
TORSDOF 7
ENDMDL
ENDMDL
