MODEL 3845
MODEL 1
REMARK VINA RESULT:    -7.078      0.000      0.000
REMARK INTER + INTRA:         -11.535
REMARK INTER:                 -10.389
REMARK INTRA:                  -1.147
REMARK UNBOUND:                -1.147
REMARK  Name = No_3845-gen_results/8p0m/2024-11-26-14-13-15/
REMARK  8 active torsions:
REMARK  status: ('A' for Active; 'I' for Inactive)
REMARK    1  A    between atoms: C_2  and  C_9
REMARK    2  A    between atoms: C_4  and  C_5
REMARK    3  A    between atoms: C_5  and  C_8
REMARK    4  A    between atoms: C_6  and  O_17
REMARK    5  A    between atoms: O_17  and  C_18
REMARK    6  A    between atoms: C_18  and  C_19
REMARK    7  A    between atoms: C_19  and  C_20
REMARK    8  A    between atoms: C_20  and  N_21
REMARK                            x       y       z     vdW  Elec       q    Type
REMARK                         _______ _______ _______ _____ _____    ______ ____
ROOT
ATOM      1  C   UNL A   1      -9.341  -0.448  36.131  0.00  0.00    +0.037 A 
ATOM      2  C   UNL A   1     -10.280  -0.111  36.814  0.00  0.00    +0.003 A 
ATOM      3  C   UNL A   1     -11.140   0.935  36.481  0.00  0.00    -0.004 A 
ATOM      4  C   UNL A   1     -10.878   1.710  35.284  0.00  0.00    -0.019 A 
ATOM      5  C   UNL A   1      -8.926   0.331  34.964  0.00  0.00    +0.138 A 
ATOM      6  C   UNL A   1      -9.724   1.390  34.532  0.00  0.00    +0.033 A 
ENDROOT
BRANCH   2   7
ATOM      7  C   UNL A   1     -10.681  -0.794  38.087  0.00  0.00    +0.000 A 
ATOM      8  C   UNL A   1     -10.571  -0.556  39.199  0.00  0.00    +0.000 A 
ATOM      9  C   UNL A   1     -11.067  -1.244  40.376  0.00  0.00    +0.000 A 
ATOM     10  C   UNL A   1     -11.896  -2.339  40.138  0.00  0.00    +0.000 A 
ATOM     11  C   UNL A   1     -11.616  -1.997  37.863  0.00  0.00    +0.000 A 
ATOM     12  C   UNL A   1     -12.135  -2.671  38.903  0.00  0.00    +0.000 A 
ENDBRANCH   2   7
BRANCH   4  13
ATOM     13  C   UNL A   1     -11.660   2.761  34.875  0.00  0.00    +0.026 C 
BRANCH  13  14
ATOM     14  C   UNL A   1     -13.039   2.415  34.549  0.00  0.00    +0.004 C 
ATOM     15  C   UNL A   1     -14.095   2.924  35.349  0.00  0.00    +0.000 C 
ATOM     16  C   UNL A   1     -13.322   1.584  33.375  0.00  0.00    +0.000 C 
ENDBRANCH  13  14
ENDBRANCH   4  13
BRANCH   5  17
ATOM     17  O   UNL A   1      -7.815  -0.012  34.284  0.00  0.00    -0.475 OA
BRANCH  17  18
ATOM     18  C   UNL A   1      -6.733  -0.579  34.933  0.00  0.00    +0.207 C 
BRANCH  18  19
ATOM     19  C   UNL A   1      -6.418  -1.867  34.527  0.00  0.00    +0.071 C 
BRANCH  19  20
ATOM     20  C   UNL A   1      -5.116  -2.108  34.195  0.00  0.00    +0.119 C 
BRANCH  20  21
ATOM     21  N   UNL A   1      -4.285  -2.076  35.237  0.00  0.00    -0.198 NA
ATOM     22  C   UNL A   1      -3.247  -1.950  35.293  0.00  0.00    +0.320 C 
ATOM     23  O   UNL A   1      -2.640  -1.633  36.394  0.00  0.00    -0.263 OA
ENDBRANCH  20  21
ENDBRANCH  19  20
ENDBRANCH  18  19
ENDBRANCH  17  18
ENDBRANCH   5  17
TORSDOF 8
ENDMDL
ENDMDL
