REMARK  Name = No_3845-gen_results/8p0m/2024-11-26-14-13-15/
REMARK  8 active torsions:
REMARK  status: ('A' for Active; 'I' for Inactive)
REMARK    1  A    between atoms: C_2  and  C_9
REMARK    2  A    between atoms: C_4  and  C_5
REMARK    3  A    between atoms: C_5  and  C_8
REMARK    4  A    between atoms: C_6  and  O_17
REMARK    5  A    between atoms: O_17  and  C_18
REMARK    6  A    between atoms: C_18  and  C_19
REMARK    7  A    between atoms: C_19  and  C_20
REMARK    8  A    between atoms: C_20  and  N_21
REMARK                            x       y       z     vdW  Elec       q    Type
REMARK                         _______ _______ _______ _____ _____    ______ ____
ROOT
ATOM      1  C   UNL A   1     -28.016  -0.814  28.878  0.00  0.00    +0.037 A 
ATOM      2  C   UNL A   1     -27.064  -0.119  28.608  0.00  0.00    +0.003 A 
ATOM      3  C   UNL A   1     -25.765  -0.390  29.036  0.00  0.00    -0.004 A 
ATOM      4  C   UNL A   1     -25.530  -1.530  29.901  0.00  0.00    -0.019 A 
ATOM      5  C   UNL A   1     -27.908  -1.922  29.828  0.00  0.00    +0.138 A 
ATOM      6  C   UNL A   1     -26.651  -2.290  30.307  0.00  0.00    +0.033 A 
ENDROOT
BRANCH   2   7
ATOM      7  C   UNL A   1     -27.135   1.101  27.740  0.00  0.00    +0.000 A 
ATOM      8  C   UNL A   1     -26.529   2.066  27.654  0.00  0.00    +0.000 A 
ATOM      9  C   UNL A   1     -26.621   3.171  26.718  0.00  0.00    +0.000 A 
ATOM     10  C   UNL A   1     -27.540   3.017  25.682  0.00  0.00    +0.000 A 
ATOM     11  C   UNL A   1     -28.126   0.958  26.570  0.00  0.00    +0.000 A 
ATOM     12  C   UNL A   1     -28.252   1.928  25.649  0.00  0.00    +0.000 A 
ENDBRANCH   2   7
BRANCH   4  13
ATOM     13  C   UNL A   1     -24.291  -1.875  30.380  0.00  0.00    +0.026 C 
BRANCH  13  14
ATOM     14  C   UNL A   1     -23.631  -0.851  31.181  0.00  0.00    +0.004 C 
ATOM     15  C   UNL A   1     -22.506  -0.167  30.652  0.00  0.00    +0.000 C 
ATOM     16  C   UNL A   1     -24.162  -0.508  32.504  0.00  0.00    +0.000 C 
ENDBRANCH  13  14
ENDBRANCH   4  13
BRANCH   5  17
ATOM     17  O   UNL A   1     -29.008  -2.612  30.187  0.00  0.00    -0.475 OA
BRANCH  17  18
ATOM     18  C   UNL A   1     -29.322  -2.803  31.520  0.00  0.00    +0.207 C 
BRANCH  18  19
ATOM     19  C   UNL A   1     -29.708  -4.093  31.850  0.00  0.00    +0.071 C 
BRANCH  19  20
ATOM     20  C   UNL A   1     -29.768  -4.999  30.831  0.00  0.00    +0.119 C 
BRANCH  20  21
ATOM     21  N   UNL A   1     -30.932  -4.996  30.181  0.00  0.00    -0.198 NA
ATOM     22  C   UNL A   1     -31.338  -4.325  29.487  0.00  0.00    +0.320 C 
ATOM     23  O   UNL A   1     -32.339  -4.631  28.723  0.00  0.00    -0.263 OA
ENDBRANCH  20  21
ENDBRANCH  19  20
ENDBRANCH  18  19
ENDBRANCH  17  18
ENDBRANCH   5  17
TORSDOF 8
