MODEL 3846
MODEL 1
REMARK VINA RESULT:    -5.783      0.000      0.000
REMARK INTER + INTRA:          -6.693
REMARK INTER:                  -6.459
REMARK INTRA:                  -0.234
REMARK UNBOUND:                -0.234
REMARK  Name = No_3846-gen_results/8p0m/2024-11-26-14-13-15/
REMARK  2 active torsions:
REMARK  status: ('A' for Active; 'I' for Inactive)
REMARK    1  A    between atoms: C_1  and  C_2
REMARK    2  A    between atoms: N_3  and  C_4
REMARK                            x       y       z     vdW  Elec       q    Type
REMARK                         _______ _______ _______ _____ _____    ______ ____
ROOT
ATOM      1  C   UNL A   1     -24.074  -3.020  29.237  0.00  0.00    +0.081 A 
ATOM      2  C   UNL A   1     -24.031  -4.306  28.792  0.00  0.00    +0.019 A 
ATOM      3  C   UNL A   1     -25.070  -5.198  29.065  0.00  0.00    +0.002 A 
ATOM      4  C   UNL A   1     -26.266  -4.667  29.608  0.00  0.00    +0.000 A 
ATOM      5  C   UNL A   1     -26.347  -3.348  30.003  0.00  0.00    +0.002 A 
ATOM      6  C   UNL A   1     -25.233  -2.471  29.765  0.00  0.00    +0.019 A 
ENDROOT
BRANCH   1   8
ATOM      7  C   UNL A   1     -22.854  -0.859  29.192  0.00  0.00    +0.099 C 
ATOM      8  N   UNL A   1     -22.982  -2.157  28.885  0.00  0.00    -0.244 NA
BRANCH   7   9
ATOM      9  C   UNL A   1     -21.911  -0.174  28.869  0.00  0.00    +0.016 C 
ATOM     10  C   UNL A   1     -22.230   1.048  28.078  0.00  0.00    -0.024 C 
ATOM     11  C   UNL A   1     -23.411   1.215  27.441  0.00  0.00    +0.031 C 
ENDBRANCH   7   9
ENDBRANCH   1   8
TORSDOF 2
ENDMDL
ENDMDL
