MODEL 3847
MODEL 1
REMARK VINA RESULT:    -5.233      0.000      0.000
REMARK INTER + INTRA:          -6.259
REMARK INTER:                  -6.151
REMARK INTRA:                  -0.109
REMARK UNBOUND:                -0.109
REMARK  Name = No_3847-gen_results/8p0m/2024-11-26-14-13-15/
REMARK  3 active torsions:
REMARK  status: ('A' for Active; 'I' for Inactive)
REMARK    1  A    between atoms: C_1  and  C_2
REMARK    2  A    between atoms: C_1  and  C_8
REMARK    3  A    between atoms: C_5  and  C_10
REMARK                            x       y       z     vdW  Elec       q    Type
REMARK                         _______ _______ _______ _____ _____    ______ ____
ROOT
ATOM      1  C   UNL A   1     -24.334  -2.157  28.755  0.00  0.00    -0.021 A 
ATOM      2  C   UNL A   1     -23.113  -1.737  29.255  0.00  0.00    -0.004 A 
ATOM      3  C   UNL A   1     -22.468  -0.474  28.986  0.00  0.00    +0.006 A 
ATOM      4  C   UNL A   1     -23.115   0.445  28.126  0.00  0.00    +0.080 A 
ATOM      5  C   UNL A   1     -24.398   0.049  27.616  0.00  0.00    +0.006 A 
ATOM      6  C   UNL A   1     -25.004  -1.141  27.905  0.00  0.00    -0.004 A 
ENDROOT
BRANCH   4   7
ATOM      7  C   UNL A   1     -22.562   1.723  27.795  0.00  0.00    +0.388 C 
ATOM      8  O   UNL A   1     -23.163   2.619  27.792  0.00  0.00    -0.241 OA
ATOM      9  O   UNL A   1     -21.316   1.670  27.333  0.00  0.00    -0.241 OA
ENDBRANCH   4   7
BRANCH   1  10
ATOM     10  C   UNL A   1     -24.888  -3.191  29.048  0.00  0.00    +0.047 C 
BRANCH  10  11
ATOM     11  C   UNL A   1     -24.244  -4.406  28.621  0.00  0.00    +0.114 C 
ATOM     12  N   UNL A   1     -24.817  -5.523  28.992  0.00  0.00    -0.131 NA
ENDBRANCH  10  11
ENDBRANCH   1  10
TORSDOF 3
ENDMDL
ENDMDL
