REMARK  Name = No_3847-gen_results/8p0m/2024-11-26-14-13-15/
REMARK  3 active torsions:
REMARK  status: ('A' for Active; 'I' for Inactive)
REMARK    1  A    between atoms: C_1  and  C_2
REMARK    2  A    between atoms: C_1  and  C_8
REMARK    3  A    between atoms: C_5  and  C_10
REMARK                            x       y       z     vdW  Elec       q    Type
REMARK                         _______ _______ _______ _____ _____    ______ ____
ROOT
ATOM      1  C   UNL A   1     -27.064  -0.119  28.608  0.00  0.00    -0.021 A 
ATOM      2  C   UNL A   1     -26.972   0.714  27.506  0.00  0.00    -0.004 A 
ATOM      3  C   UNL A   1     -25.820   1.491  27.116  0.00  0.00    +0.006 A 
ATOM      4  C   UNL A   1     -24.656   1.424  27.918  0.00  0.00    +0.080 A 
ATOM      5  C   UNL A   1     -24.711   0.542  29.051  0.00  0.00    +0.006 A 
ATOM      6  C   UNL A   1     -25.804  -0.206  29.388  0.00  0.00    -0.004 A 
ENDROOT
BRANCH   4   7
ATOM      7  C   UNL A   1     -23.461   2.152  27.619  0.00  0.00    +0.388 C 
ATOM      8  O   UNL A   1     -22.590   1.670  27.204  0.00  0.00    -0.241 OA
ATOM      9  O   UNL A   1     -23.470   3.408  28.057  0.00  0.00    -0.241 OA
ENDBRANCH   4   7
BRANCH   1  10
ATOM     10  C   UNL A   1     -28.016  -0.814  28.878  0.00  0.00    +0.047 C 
BRANCH  10  11
ATOM     11  C   UNL A   1     -29.277  -0.138  29.036  0.00  0.00    +0.114 C 
ATOM     12  N   UNL A   1     -30.334  -0.905  29.130  0.00  0.00    -0.131 NA
ENDBRANCH  10  11
ENDBRANCH   1  10
TORSDOF 3
