MODEL 3848
MODEL 1
REMARK VINA RESULT:    -4.895      0.000      0.000
REMARK INTER + INTRA:          -5.924
REMARK INTER:                  -5.754
REMARK INTRA:                  -0.171
REMARK UNBOUND:                -0.171
REMARK  Name = No_3848-gen_results/8p0m/2024-11-26-14-13-15/
REMARK  3 active torsions:
REMARK  status: ('A' for Active; 'I' for Inactive)
REMARK    1  A    between atoms: C_2  and  C_7
REMARK    2  A    between atoms: C_7  and  N_8
REMARK    3  A    between atoms: N_8  and  C_9
REMARK                            x       y       z     vdW  Elec       q    Type
REMARK                         _______ _______ _______ _____ _____    ______ ____
ROOT
ATOM      1  C   UNL A   1     -23.911  -3.602  28.619  0.00  0.00    -0.003 A 
ATOM      2  C   UNL A   1     -24.136  -2.774  29.231  0.00  0.00    -0.001 A 
ATOM      3  C   UNL A   1     -24.422  -4.870  29.139  0.00  0.00    -0.000 A 
ATOM      4  C   UNL A   1     -25.631  -5.096  29.174  0.00  0.00    -0.000 A 
ATOM      5  C   UNL A   1     -25.630  -2.574  29.688  0.00  0.00    -0.003 A 
ATOM      6  C   UNL A   1     -26.308  -3.824  29.868  0.00  0.00    -0.000 A 
ENDROOT
BRANCH   2   7
ATOM      7  C   UNL A   1     -23.573  -1.363  29.068  0.00  0.00    +0.139 C 
BRANCH   7   8
ATOM      8  N   UNL A   1     -22.284  -1.339  29.103  0.00  0.00    -0.232 NA
BRANCH   8   9
ATOM      9  C   UNL A   1     -21.589  -0.413  28.964  0.00  0.00    +0.081 C 
ATOM     10  C   UNL A   1     -22.022   0.735  28.208  0.00  0.00    +0.019 C 
ENDBRANCH   8   9
ENDBRANCH   7   8
ENDBRANCH   2   7
TORSDOF 3
ENDMDL
ENDMDL
