MODEL 3849
MODEL 1
REMARK VINA RESULT:    -8.272      0.000      0.000
REMARK INTER + INTRA:         -11.025
REMARK INTER:                 -10.207
REMARK INTRA:                  -0.818
REMARK UNBOUND:                -0.818
REMARK  Name = No_3849-gen_results/8p0m/2024-11-26-14-13-15/
REMARK  4 active torsions:
REMARK  status: ('A' for Active; 'I' for Inactive)
REMARK    1  A    between atoms: C_4  and  C_11
REMARK    2  A    between atoms: C_7  and  O_17
REMARK    3  A    between atoms: O_17  and  C_18
REMARK    4  A    between atoms: C_18  and  C_19
REMARK                            x       y       z     vdW  Elec       q    Type
REMARK                         _______ _______ _______ _____ _____    ______ ____
ROOT
ATOM      1  C   UNL A   1     -26.239   0.473  26.577  0.00  0.00    +0.037 A 
ATOM      2  C   UNL A   1     -25.778  -0.415  27.256  0.00  0.00    +0.003 A 
ATOM      3  C   UNL A   1     -24.501  -0.317  27.797  0.00  0.00    +0.000 A 
ATOM      4  C   UNL A   1     -23.819  -1.342  28.637  0.00  0.00    +0.000 A 
ATOM      5  C   UNL A   1     -22.489  -1.231  29.173  0.00  0.00    +0.000 A 
ATOM      6  C   UNL A   1     -21.963   0.084  29.044  0.00  0.00    +0.000 A 
ATOM      7  C   UNL A   1     -25.376   1.608  26.162  0.00  0.00    +0.139 A 
ATOM      8  C   UNL A   1     -24.136   1.808  26.725  0.00  0.00    +0.037 A 
ATOM      9  C   UNL A   1     -23.601   0.825  27.548  0.00  0.00    +0.003 A 
ATOM     10  C   UNL A   1     -22.366   0.993  28.202  0.00  0.00    +0.000 A 
ENDROOT
BRANCH   4  11
ATOM     11  C   UNL A   1     -24.514  -2.623  28.970  0.00  0.00    +0.000 A 
ATOM     12  C   UNL A   1     -25.692  -2.519  29.659  0.00  0.00    +0.000 A 
ATOM     13  C   UNL A   1     -23.940  -3.813  28.672  0.00  0.00    +0.000 A 
ATOM     14  C   UNL A   1     -24.624  -4.996  28.792  0.00  0.00    +0.000 A 
ATOM     15  C   UNL A   1     -26.442  -3.707  29.911  0.00  0.00    +0.000 A 
ATOM     16  C   UNL A   1     -25.883  -4.962  29.564  0.00  0.00    +0.000 A 
ENDBRANCH   4  11
BRANCH   7  17
ATOM     17  O   UNL A   1     -25.972   2.520  25.336  0.00  0.00    -0.471 OA
BRANCH  17  18
ATOM     18  C   UNL A   1     -26.940   3.312  25.790  0.00  0.00    +0.232 C 
BRANCH  18  19
ATOM     19  C   UNL A   1     -28.146   3.221  24.972  0.00  0.00    +0.021 A 
ATOM     20  C   UNL A   1     -29.198   3.926  25.377  0.00  0.00    -0.001 A 
ATOM     21  C   UNL A   1     -30.441   3.818  24.704  0.00  0.00    -0.000 A 
ATOM     22  C   UNL A   1     -30.568   2.954  23.615  0.00  0.00    -0.000 A 
ATOM     23  C   UNL A   1     -29.487   2.236  23.239  0.00  0.00    -0.000 A 
ATOM     24  C   UNL A   1     -28.258   2.335  23.920  0.00  0.00    -0.001 A 
ENDBRANCH  18  19
ENDBRANCH  17  18
ENDBRANCH   7  17
TORSDOF 4
ENDMDL
ENDMDL
