REMARK  Name = No_3849-gen_results/8p0m/2024-11-26-14-13-15/
REMARK  4 active torsions:
REMARK  status: ('A' for Active; 'I' for Inactive)
REMARK    1  A    between atoms: C_4  and  C_11
REMARK    2  A    between atoms: C_7  and  O_17
REMARK    3  A    between atoms: O_17  and  C_18
REMARK    4  A    between atoms: C_18  and  C_19
REMARK                            x       y       z     vdW  Elec       q    Type
REMARK                         _______ _______ _______ _____ _____    ______ ____
ROOT
ATOM      1  C   UNL A   1     -28.016  -0.814  28.878  0.00  0.00    +0.037 A 
ATOM      2  C   UNL A   1     -27.064  -0.119  28.608  0.00  0.00    +0.003 A 
ATOM      3  C   UNL A   1     -25.792  -0.430  29.076  0.00  0.00    +0.000 A 
ATOM      4  C   UNL A   1     -24.546   0.349  28.823  0.00  0.00    +0.000 A 
ATOM      5  C   UNL A   1     -23.241   0.022  29.332  0.00  0.00    +0.000 A 
ATOM      6  C   UNL A   1     -23.193  -1.282  29.897  0.00  0.00    +0.000 A 
ATOM      7  C   UNL A   1     -27.870  -1.914  29.864  0.00  0.00    +0.139 A 
ATOM      8  C   UNL A   1     -26.631  -2.326  30.299  0.00  0.00    +0.037 A 
ATOM      9  C   UNL A   1     -25.512  -1.573  29.965  0.00  0.00    +0.003 A 
ATOM     10  C   UNL A   1     -24.212  -1.970  30.328  0.00  0.00    +0.000 A 
ENDROOT
BRANCH   4  11
ATOM     11  C   UNL A   1     -24.593   1.594  27.997  0.00  0.00    +0.000 A 
ATOM     12  C   UNL A   1     -23.664   1.701  26.998  0.00  0.00    +0.000 A 
ATOM     13  C   UNL A   1     -25.462   2.587  28.302  0.00  0.00    +0.000 A 
ATOM     14  C   UNL A   1     -25.662   3.655  27.464  0.00  0.00    +0.000 A 
ATOM     15  C   UNL A   1     -23.734   2.823  26.119  0.00  0.00    +0.000 A 
ATOM     16  C   UNL A   1     -24.668   3.854  26.390  0.00  0.00    +0.000 A 
ENDBRANCH   4  11
BRANCH   7  17
ATOM     17  O   UNL A   1     -29.022  -2.592  30.153  0.00  0.00    -0.471 OA
BRANCH  17  18
ATOM     18  C   UNL A   1     -28.978  -3.757  30.794  0.00  0.00    +0.232 C 
BRANCH  18  19
ATOM     19  C   UNL A   1     -30.315  -4.284  31.056  0.00  0.00    +0.021 A 
ATOM     20  C   UNL A   1     -30.387  -5.533  31.507  0.00  0.00    -0.001 A 
ATOM     21  C   UNL A   1     -31.645  -6.161  31.691  0.00  0.00    -0.000 A 
ATOM     22  C   UNL A   1     -32.818  -5.469  31.383  0.00  0.00    -0.000 A 
ATOM     23  C   UNL A   1     -32.711  -4.209  30.909  0.00  0.00    -0.000 A 
ATOM     24  C   UNL A   1     -31.459  -3.594  30.713  0.00  0.00    -0.001 A 
ENDBRANCH  18  19
ENDBRANCH  17  18
ENDBRANCH   7  17
TORSDOF 4
