MODEL 384
MODEL 1
REMARK VINA RESULT:    -4.322      0.000      0.000
REMARK INTER + INTRA:          -4.322
REMARK INTER:                  -4.322
REMARK INTRA:                   0.000
REMARK UNBOUND:                 0.000
REMARK  Name = No_384-gen_results/8p0m/2024-11-26-14-13-15/
REMARK  0 active torsions:
REMARK  status: ('A' for Active; 'I' for Inactive)
REMARK                            x       y       z     vdW  Elec       q    Type
REMARK                         _______ _______ _______ _____ _____    ______ ____
ROOT
ATOM      1  C   UNL A   1     -23.965  -3.142  28.789  0.00  0.00    +0.011 A 
ATOM      2  C   UNL A   1     -24.770  -2.752  29.345  0.00  0.00    +0.058 A 
ATOM      3  C   UNL A   1     -23.961  -4.597  28.568  0.00  0.00    +0.001 A 
ATOM      4  C   UNL A   1     -25.071  -5.395  28.971  0.00  0.00    +0.000 A 
ATOM      5  C   UNL A   1     -26.053  -3.340  29.818  0.00  0.00    +0.011 A 
ATOM      6  C   UNL A   1     -26.082  -4.691  29.640  0.00  0.00    +0.001 A 
ATOM      7 CL   UNL A   1     -24.800  -0.958  29.614  0.00  0.00    -0.082 Cl
ENDROOT
TORSDOF 0
ENDMDL
ENDMDL
