REMARK  Name = No_385-gen_results/8p0m/2024-11-26-14-13-15/
REMARK  4 active torsions:
REMARK  status: ('A' for Active; 'I' for Inactive)
REMARK    1  A    between atoms: C_5  and  C_8
REMARK    2  A    between atoms: C_7  and  C_12
REMARK    3  A    between atoms: C_8  and  O_9
REMARK    4  A    between atoms: O_9  and  C_16
REMARK                            x       y       z     vdW  Elec       q    Type
REMARK                         _______ _______ _______ _____ _____    ______ ____
ROOT
ATOM      1 CL   UNL A   1     -28.149  -0.820  28.908  0.00  0.00    -0.081 Cl
ATOM      2  C   UNL A   1     -27.834   0.496  29.060  0.00  0.00    +0.072 A 
ATOM      3  C   UNL A   1     -27.514   1.238  28.049  0.00  0.00    +0.068 A 
ATOM      4  C   UNL A   1     -27.055   2.625  28.133  0.00  0.00    +0.019 A 
ATOM      5  C   UNL A   1     -26.944   3.184  29.430  0.00  0.00    +0.077 A 
ATOM      6  C   UNL A   1     -27.221   2.358  30.512  0.00  0.00    +0.011 A 
ATOM      7  C   UNL A   1     -27.599   1.059  30.370  0.00  0.00    +0.083 A 
ATOM      8 CL   UNL A   1     -27.586   0.735  26.402  0.00  0.00    -0.081 Cl
ENDROOT
BRANCH   7   9
ATOM      9  C   UNL A   1     -27.872   0.278  31.596  0.00  0.00    +0.419 C 
ATOM     10  F   UNL A   1     -27.945   1.139  32.512  0.00  0.00    -0.166 F 
ATOM     11  F   UNL A   1     -26.904  -0.587  31.766  0.00  0.00    -0.166 F 
ATOM     12  F   UNL A   1     -29.070  -0.292  31.500  0.00  0.00    -0.166 F 
ENDBRANCH   7   9
BRANCH   5  13
ATOM     13  C   UNL A   1     -26.486   4.560  29.594  0.00  0.00    +0.346 C 
ATOM     14  O   UNL A   1     -26.960   5.481  28.878  0.00  0.00    -0.244 OA
BRANCH  13  15
ATOM     15  O   UNL A   1     -25.877   4.799  30.601  0.00  0.00    -0.421 OA
BRANCH  15  16
ATOM     16  C   UNL A   1     -26.132   5.875  31.525  0.00  0.00    +0.149 A 
ATOM     17  C   UNL A   1     -25.936   5.746  32.565  0.00  0.00    +0.038 A 
ATOM     18  C   UNL A   1     -26.209   6.834  33.617  0.00  0.00    +0.003 A 
ATOM     19  C   UNL A   1     -26.678   8.038  33.097  0.00  0.00    +0.000 A 
ATOM     20  C   UNL A   1     -26.523   7.066  30.864  0.00  0.00    +0.038 A 
ATOM     21  C   UNL A   1     -26.794   8.166  31.738  0.00  0.00    +0.003 A 
ENDBRANCH  15  16
ENDBRANCH  13  15
ENDBRANCH   5  13
TORSDOF 4
