REMARK  Name = No_3850-gen_results/8p0m/2024-11-26-14-13-15/
REMARK  5 active torsions:
REMARK  status: ('A' for Active; 'I' for Inactive)
REMARK    1  A    between atoms: C_1  and  C_7
REMARK    2  A    between atoms: C_4  and  C_15
REMARK    3  A    between atoms: C_15  and  C_17
REMARK    4  A    between atoms: C_20  and  C_23
REMARK    5  A    between atoms: N_24  and  C_29
REMARK                            x       y       z     vdW  Elec       q    Type
REMARK                         _______ _______ _______ _____ _____    ______ ____
ROOT
ATOM      1  C   UNL A   1     -29.337   2.114  24.947  0.00  0.00    -0.000 A 
ATOM      2  C   UNL A   1     -30.198   2.717  25.727  0.00  0.00    -0.000 A 
ATOM      3  C   UNL A   1     -31.387   3.315  25.231  0.00  0.00    -0.003 A 
ATOM      4  C   UNL A   1     -31.633   3.191  23.844  0.00  0.00    -0.004 A 
ATOM      5  C   UNL A   1     -30.773   2.507  23.017  0.00  0.00    -0.003 A 
ATOM      6  C   UNL A   1     -29.513   1.914  23.526  0.00  0.00    -0.000 A 
ENDROOT
BRANCH   4   7
ATOM      7  C   UNL A   1     -32.850   3.729  23.247  0.00  0.00    +0.095 C 
ATOM      8  N   UNL A   1     -33.847   3.244  23.238  0.00  0.00    -0.305 N 
ATOM      9  C   UNL A   1     -35.002   3.611  22.720  0.00  0.00    +0.091 C 
ATOM     10  C   UNL A   1     -35.015   4.811  22.027  0.00  0.00    +0.021 C 
ATOM     11  C   UNL A   1     -33.814   5.540  21.915  0.00  0.00    +0.004 C 
ATOM     12  C   UNL A   1     -32.696   5.085  22.537  0.00  0.00    +0.024 C 
BRANCH   8  13
ATOM     13  C   UNL A   1     -34.178   1.991  24.002  0.00  0.00    +0.048 A 
ATOM     14  C   UNL A   1     -33.905   0.817  23.349  0.00  0.00    +0.015 A 
ATOM     15  C   UNL A   1     -35.466   1.941  24.732  0.00  0.00    +0.015 A 
ATOM     16  C   UNL A   1     -35.809   0.728  25.149  0.00  0.00    +0.001 A 
ATOM     17  C   UNL A   1     -35.562  -0.455  24.431  0.00  0.00    +0.000 A 
ATOM     18  C   UNL A   1     -34.232  -0.436  23.881  0.00  0.00    +0.001 A 
ENDBRANCH   8  13
ENDBRANCH   4   7
BRANCH   1  19
ATOM     19  C   UNL A   1     -28.092   1.558  25.433  0.00  0.00    -0.000 C 
ATOM     20  C   UNL A   1     -27.006   1.711  24.754  0.00  0.00    -0.000 C 
BRANCH  19  24
ATOM     21  C   UNL A   1     -28.016  -0.814  28.878  0.00  0.00    +0.054 A 
ATOM     22  C   UNL A   1     -27.064  -0.119  28.608  0.00  0.00    +0.004 A 
ATOM     23  C   UNL A   1     -27.001   0.691  27.491  0.00  0.00    +0.000 A 
ATOM     24  C   UNL A   1     -28.137   0.736  26.635  0.00  0.00    +0.000 A 
ATOM     25  C   UNL A   1     -29.236   0.076  27.069  0.00  0.00    +0.000 A 
ATOM     26  C   UNL A   1     -29.218  -0.643  28.175  0.00  0.00    +0.004 A 
BRANCH  21  27
ATOM     27  C   UNL A   1     -28.003  -1.660  30.127  0.00  0.00    +0.249 C 
ATOM     28  O   UNL A   1     -27.122  -2.502  30.244  0.00  0.00    -0.270 OA
ATOM     29  N   UNL A   1     -29.011  -1.637  31.027  0.00  0.00    -0.276 N 
ATOM     30  C   UNL A   1     -30.067  -0.670  31.066  0.00  0.00    +0.094 C 
ATOM     31  C   UNL A   1     -31.088  -1.096  31.757  0.00  0.00    +0.022 C 
ATOM     32  C   UNL A   1     -29.445  -2.830  31.660  0.00  0.00    +0.094 C 
ATOM     33  C   UNL A   1     -30.509  -2.955  32.380  0.00  0.00    +0.022 C 
ATOM     34  C   UNL A   1     -31.371  -2.018  32.554  0.00  0.00    +0.004 C 
ENDBRANCH  21  27
ENDBRANCH  19  24
ENDBRANCH   1  19
TORSDOF 5
