MODEL 3850
MODEL 1
REMARK VINA RESULT:    -8.423      0.000      0.000
REMARK INTER + INTRA:         -12.373
REMARK INTER:                 -10.885
REMARK INTRA:                  -1.488
REMARK UNBOUND:                -1.488
REMARK  Name = No_3850-gen_results/8p0m/2024-11-26-14-13-15/
REMARK  5 active torsions:
REMARK  status: ('A' for Active; 'I' for Inactive)
REMARK    1  A    between atoms: C_1  and  C_7
REMARK    2  A    between atoms: C_4  and  C_15
REMARK    3  A    between atoms: C_15  and  C_17
REMARK    4  A    between atoms: C_20  and  C_23
REMARK    5  A    between atoms: N_24  and  C_29
REMARK                            x       y       z     vdW  Elec       q    Type
REMARK                         _______ _______ _______ _____ _____    ______ ____
ROOT
ATOM      1  C   UNL A   1     -27.934  -0.011  24.545  0.00  0.00    -0.000 A 
ATOM      2  C   UNL A   1     -27.945   0.841  25.539  0.00  0.00    -0.000 A 
ATOM      3  C   UNL A   1     -26.790   1.118  26.318  0.00  0.00    -0.003 A 
ATOM      4  C   UNL A   1     -25.595   0.463  25.942  0.00  0.00    -0.004 A 
ATOM      5  C   UNL A   1     -25.546  -0.387  24.862  0.00  0.00    -0.003 A 
ATOM      6  C   UNL A   1     -26.759  -0.706  24.070  0.00  0.00    -0.000 A 
ENDROOT
BRANCH   4   7
ATOM      7  C   UNL A   1     -24.345   0.718  26.650  0.00  0.00    +0.095 C 
ATOM      8  N   UNL A   1     -24.004   0.222  27.580  0.00  0.00    -0.305 N 
ATOM      9  C   UNL A   1     -22.923   0.377  28.318  0.00  0.00    +0.091 C 
ATOM     10  C   UNL A   1     -22.027   1.350  27.904  0.00  0.00    +0.021 C 
ATOM     11  C   UNL A   1     -22.330   2.101  26.751  0.00  0.00    +0.004 C 
ATOM     12  C   UNL A   1     -23.452   1.814  26.042  0.00  0.00    +0.024 C 
BRANCH   8  13
ATOM     13  C   UNL A   1     -24.702  -0.953  28.209  0.00  0.00    +0.048 A 
ATOM     14  C   UNL A   1     -25.637  -0.639  29.160  0.00  0.00    +0.015 A 
ATOM     15  C   UNL A   1     -23.881  -2.125  28.595  0.00  0.00    +0.015 A 
ATOM     16  C   UNL A   1     -24.508  -2.995  29.378  0.00  0.00    +0.001 A 
ATOM     17  C   UNL A   1     -25.425  -2.638  30.382  0.00  0.00    +0.000 A 
ATOM     18  C   UNL A   1     -26.315  -1.613  29.904  0.00  0.00    +0.001 A 
ENDBRANCH   8  13
ENDBRANCH   4   7
BRANCH   1  19
ATOM     19  C   UNL A   1     -29.119  -0.348  23.786  0.00  0.00    -0.000 C 
ATOM     20  C   UNL A   1     -29.276  -1.544  23.328  0.00  0.00    -0.000 C 
BRANCH  19  24
ATOM     21  C   UNL A   1     -31.932   2.591  22.810  0.00  0.00    +0.054 A 
ATOM     22  C   UNL A   1     -32.305   1.481  23.113  0.00  0.00    +0.004 A 
ATOM     23  C   UNL A   1     -31.448   0.450  23.445  0.00  0.00    +0.000 A 
ATOM     24  C   UNL A   1     -30.052   0.725  23.468  0.00  0.00    +0.000 A 
ATOM     25  C   UNL A   1     -29.697   2.019  23.289  0.00  0.00    +0.000 A 
ATOM     26  C   UNL A   1     -30.591   2.949  23.016  0.00  0.00    +0.004 A 
BRANCH  21  27
ATOM     27  C   UNL A   1     -32.940   3.661  22.472  0.00  0.00    +0.249 C 
ATOM     28  O   UNL A   1     -33.505   4.233  23.395  0.00  0.00    -0.270 OA
ATOM     29  N   UNL A   1     -33.358   3.887  21.207  0.00  0.00    -0.276 N 
ATOM     30  C   UNL A   1     -32.752   3.354  20.024  0.00  0.00    +0.094 C 
ATOM     31  C   UNL A   1     -33.561   3.399  19.002  0.00  0.00    +0.022 C 
ATOM     32  C   UNL A   1     -34.715   4.200  20.937  0.00  0.00    +0.094 C 
ATOM     33  C   UNL A   1     -35.258   4.245  19.766  0.00  0.00    +0.022 C 
ATOM     34  C   UNL A   1     -34.648   3.929  18.680  0.00  0.00    +0.004 C 
ENDBRANCH  21  27
ENDBRANCH  19  24
ENDBRANCH   1  19
TORSDOF 5
ENDMDL
ENDMDL
