MODEL 3851
MODEL 1
REMARK VINA RESULT:    -7.964      0.000      0.000
REMARK INTER + INTRA:         -14.598
REMARK INTER:                 -11.688
REMARK INTRA:                  -2.910
REMARK UNBOUND:                -2.910
REMARK  Name = No_3851-gen_results/8p0m/2024-11-26-14-13-15/
REMARK  8 active torsions:
REMARK  status: ('A' for Active; 'I' for Inactive)
REMARK    1  A    between atoms: C_5  and  C_8
REMARK    2  A    between atoms: C_7  and  C_11
REMARK    3  A    between atoms: C_12  and  O_19
REMARK    4  A    between atoms: C_16  and  O_21
REMARK    5  A    between atoms: O_21  and  C_22
REMARK    6  A    between atoms: C_22  and  C_23
REMARK    7  A    between atoms: C_28  and  C_29
REMARK    8  A    between atoms: C_29  and  C_30
REMARK                            x       y       z     vdW  Elec       q    Type
REMARK                         _______ _______ _______ _____ _____    ______ ____
ROOT
ATOM      1  C   UNL A   1     -24.628   0.026  27.546  0.00  0.00    +0.070 A 
ATOM      2  C   UNL A   1     -25.125   0.192  26.370  0.00  0.00    +0.142 A 
ATOM      3  C   UNL A   1     -24.490   1.201  25.497  0.00  0.00    +0.049 A 
ATOM      4  C   UNL A   1     -23.242   1.665  25.874  0.00  0.00    +0.074 A 
ATOM      5  C   UNL A   1     -22.729   1.364  27.088  0.00  0.00    +0.102 A 
ATOM      6  C   UNL A   1     -23.385   0.498  27.957  0.00  0.00    +0.153 A 
ATOM      7 CL   UNL A   1     -21.246   2.018  27.608  0.00  0.00    -0.078 Cl
ATOM      8 CL   UNL A   1     -22.483   2.820  24.814  0.00  0.00    -0.081 Cl
ENDROOT
BRANCH   1  15
ATOM      9 CL   UNL A   1     -26.884   0.893  29.287  0.00  0.00    -0.082 Cl
ATOM     10  C   UNL A   1     -26.541  -0.496  29.115  0.00  0.00    +0.058 A 
ATOM     11  C   UNL A   1     -27.092  -1.477  29.927  0.00  0.00    +0.011 A 
ATOM     12  C   UNL A   1     -26.611  -2.804  29.993  0.00  0.00    +0.005 A 
ATOM     13  C   UNL A   1     -25.558  -3.210  29.203  0.00  0.00    +0.057 A 
ATOM     14  C   UNL A   1     -24.965  -2.260  28.412  0.00  0.00    +0.006 A 
ATOM     15  C   UNL A   1     -25.382  -0.991  28.412  0.00  0.00    +0.017 A 
BRANCH  13  16
ATOM     16  C   UNL A   1     -25.146  -4.604  29.283  0.00  0.00    +0.284 C 
ATOM     17  N   UNL A   1     -23.963  -5.062  28.908  0.00  0.00    -0.084 NA
ATOM     18  O   UNL A   1     -25.834  -5.301  29.844  0.00  0.00    -0.267 OA
ENDBRANCH  13  16
ENDBRANCH   1  15
BRANCH   2  19
ATOM     19  O   UNL A   1     -26.323  -0.254  25.958  0.00  0.00    -0.471 OA
ATOM     20  C   UNL A   1     -27.288   0.589  25.375  0.00  0.00    +0.253 C 
ENDBRANCH   2  19
BRANCH   6  21
ATOM     21  O   UNL A   1     -22.864   0.207  29.129  0.00  0.00    -0.470 OA
BRANCH  21  22
ATOM     22  C   UNL A   1     -23.312   0.884  30.219  0.00  0.00    +0.232 C 
BRANCH  22  23
ATOM     23  C   UNL A   1     -23.500   0.102  31.351  0.00  0.00    +0.018 A 
ATOM     24  C   UNL A   1     -22.916  -0.872  31.675  0.00  0.00    -0.001 A 
ATOM     25  C   UNL A   1     -23.097  -1.656  32.868  0.00  0.00    -0.000 A 
ATOM     26  C   UNL A   1     -24.139  -1.206  33.731  0.00  0.00    -0.000 A 
ATOM     27  C   UNL A   1     -24.893  -0.131  33.417  0.00  0.00    -0.004 A 
ATOM     28  C   UNL A   1     -24.645   0.587  32.248  0.00  0.00    -0.018 A 
BRANCH  28  29
ATOM     29  C   UNL A   1     -25.438   1.753  31.939  0.00  0.00    +0.052 C 
BRANCH  29  30
ATOM     30  C   UNL A   1     -25.547   2.619  32.633  0.00  0.00    -0.018 A 
ATOM     31  C   UNL A   1     -26.173   2.879  33.624  0.00  0.00    -0.004 A 
ATOM     32  C   UNL A   1     -26.228   4.053  34.510  0.00  0.00    -0.000 A 
ATOM     33  C   UNL A   1     -25.401   5.083  34.096  0.00  0.00    -0.000 A 
ATOM     34  C   UNL A   1     -24.632   4.912  33.011  0.00  0.00    -0.000 A 
ATOM     35  C   UNL A   1     -24.642   3.811  32.276  0.00  0.00    -0.004 A 
ENDBRANCH  29  30
ENDBRANCH  28  29
ENDBRANCH  22  23
ENDBRANCH  21  22
ENDBRANCH   6  21
TORSDOF 8
ENDMDL
ENDMDL
