REMARK  Name = No_3851-gen_results/8p0m/2024-11-26-14-13-15/
REMARK  8 active torsions:
REMARK  status: ('A' for Active; 'I' for Inactive)
REMARK    1  A    between atoms: C_5  and  C_8
REMARK    2  A    between atoms: C_7  and  C_11
REMARK    3  A    between atoms: C_12  and  O_19
REMARK    4  A    between atoms: C_16  and  O_21
REMARK    5  A    between atoms: O_21  and  C_22
REMARK    6  A    between atoms: C_22  and  C_23
REMARK    7  A    between atoms: C_28  and  C_29
REMARK    8  A    between atoms: C_29  and  C_30
REMARK                            x       y       z     vdW  Elec       q    Type
REMARK                         _______ _______ _______ _____ _____    ______ ____
ROOT
ATOM      1  C   UNL A   1     -27.079   0.346  31.432  0.00  0.00    +0.070 A 
ATOM      2  C   UNL A   1     -26.541  -0.337  32.381  0.00  0.00    +0.142 A 
ATOM      3  C   UNL A   1     -27.248  -0.377  33.678  0.00  0.00    +0.049 A 
ATOM      4  C   UNL A   1     -28.564   0.051  33.692  0.00  0.00    +0.074 A 
ATOM      5  C   UNL A   1     -29.103   0.669  32.618  0.00  0.00    +0.102 A 
ATOM      6  C   UNL A   1     -28.393   0.805  31.429  0.00  0.00    +0.153 A 
ATOM      7 CL   UNL A   1     -30.683   1.299  32.660  0.00  0.00    -0.078 Cl
ATOM      8 CL   UNL A   1     -29.402  -0.043  35.216  0.00  0.00    -0.081 Cl
ENDROOT
BRANCH   1  15
ATOM      9 CL   UNL A   1     -28.149  -0.820  28.908  0.00  0.00    -0.082 Cl
ATOM     10  C   UNL A   1     -26.912  -0.080  28.945  0.00  0.00    +0.058 A 
ATOM     11  C   UNL A   1     -26.049  -0.072  27.859  0.00  0.00    +0.011 A 
ATOM     12  C   UNL A   1     -24.719   0.403  27.917  0.00  0.00    +0.005 A 
ATOM     13  C   UNL A   1     -24.210   0.930  29.084  0.00  0.00    +0.057 A 
ATOM     14  C   UNL A   1     -25.023   0.908  30.188  0.00  0.00    +0.006 A 
ATOM     15  C   UNL A   1     -26.253   0.390  30.140  0.00  0.00    +0.017 A 
BRANCH  13  16
ATOM     16  C   UNL A   1     -22.850   1.448  29.059  0.00  0.00    +0.284 C 
ATOM     17  N   UNL A   1     -22.094   1.523  27.976  0.00  0.00    -0.084 NA
ATOM     18  O   UNL A   1     -22.486   1.954  29.999  0.00  0.00    -0.267 OA
ENDBRANCH  13  16
ENDBRANCH   1  15
BRANCH   2  19
ATOM     19  O   UNL A   1     -25.275  -0.785  32.402  0.00  0.00    -0.471 OA
ATOM     20  C   UNL A   1     -24.379  -0.483  33.444  0.00  0.00    +0.253 C 
ENDBRANCH   2  19
BRANCH   6  21
ATOM     21  O   UNL A   1     -28.938   1.398  30.390  0.00  0.00    -0.470 OA
BRANCH  21  22
ATOM     22  C   UNL A   1     -28.621   2.698  30.150  0.00  0.00    +0.232 C 
BRANCH  22  23
ATOM     23  C   UNL A   1     -29.701   3.509  29.828  0.00  0.00    +0.018 A 
ATOM     24  C   UNL A   1     -30.794   3.186  29.519  0.00  0.00    -0.001 A 
ATOM     25  C   UNL A   1     -31.916   4.036  29.220  0.00  0.00    -0.000 A 
ATOM     26  C   UNL A   1     -31.642   5.434  29.273  0.00  0.00    -0.000 A 
ATOM     27  C   UNL A   1     -30.408   5.896  29.568  0.00  0.00    -0.004 A 
ATOM     28  C   UNL A   1     -29.375   5.007  29.862  0.00  0.00    -0.018 A 
BRANCH  28  29
ATOM     29  C   UNL A   1     -28.068   5.513  30.206  0.00  0.00    +0.052 C 
BRANCH  29  30
ATOM     30  C   UNL A   1     -27.584   6.366  29.674  0.00  0.00    -0.018 A 
ATOM     31  C   UNL A   1     -26.472   6.683  29.351  0.00  0.00    -0.004 A 
ATOM     32  C   UNL A   1     -25.920   7.827  28.608  0.00  0.00    -0.000 A 
ATOM     33  C   UNL A   1     -26.886   8.741  28.224  0.00  0.00    -0.000 A 
ATOM     34  C   UNL A   1     -28.173   8.494  28.508  0.00  0.00    -0.000 A 
ATOM     35  C   UNL A   1     -28.581   7.427  29.178  0.00  0.00    -0.004 A 
ENDBRANCH  29  30
ENDBRANCH  28  29
ENDBRANCH  22  23
ENDBRANCH  21  22
ENDBRANCH   6  21
TORSDOF 8
