REMARK  Name = No_3852-gen_results/8p0m/2024-11-26-14-13-15/
REMARK  2 active torsions:
REMARK  status: ('A' for Active; 'I' for Inactive)
REMARK    1  A    between atoms: C_2  and  N_7
REMARK    2  A    between atoms: N_7  and  C_8
REMARK                            x       y       z     vdW  Elec       q    Type
REMARK                         _______ _______ _______ _____ _____    ______ ____
ROOT
ATOM      1  N   UNL A   1     -29.965  -0.735  29.890  0.00  0.00    -0.201 N 
ATOM      2  C   UNL A   1     -30.600  -1.999  29.555  0.00  0.00    +0.455 C 
ATOM      3  O   UNL A   1     -30.290  -3.053  29.972  0.00  0.00    -0.222 OA
ATOM      4  O   UNL A   1     -31.531  -2.005  28.673  0.00  0.00    -0.222 OA
ENDROOT
BRANCH   1   6
ATOM      5  C   UNL A   1     -28.016  -0.814  28.878  0.00  0.00    +0.045 A 
ATOM      6  C   UNL A   1     -28.469  -0.785  29.829  0.00  0.00    +0.064 A 
ATOM      7  C   UNL A   1     -26.546  -0.876  28.850  0.00  0.00    +0.141 A 
ATOM      8  C   UNL A   1     -25.804  -1.032  30.057  0.00  0.00    +0.030 A 
ATOM      9  C   UNL A   1     -27.944  -0.987  31.207  0.00  0.00    +0.015 A 
ATOM     10  C   UNL A   1     -26.582  -1.039  31.223  0.00  0.00    +0.004 A 
ATOM     11  F   UNL A   1     -25.822  -0.850  27.723  0.00  0.00    -0.204 F 
ENDBRANCH   1   6
BRANCH   1  12
ATOM     12  C   UNL A   1     -30.648   0.317  30.268  0.00  0.00    +0.062 A 
ATOM     13  C   UNL A   1     -30.074   1.360  30.468  0.00  0.00    +0.015 A 
ATOM     14  C   UNL A   1     -30.890   2.611  30.817  0.00  0.00    +0.002 A 
ATOM     15  C   UNL A   1     -32.267   2.405  30.822  0.00  0.00    +0.011 A 
ATOM     16  C   UNL A   1     -32.056   0.201  30.298  0.00  0.00    +0.027 A 
ATOM     17  C   UNL A   1     -32.816   1.253  30.591  0.00  0.00    +0.059 A 
ATOM     18 CL   UNL A   1     -34.518   1.074  30.651  0.00  0.00    -0.082 Cl
ENDBRANCH   1  12
TORSDOF 2
