MODEL 3852
MODEL 1
REMARK VINA RESULT:    -7.443      0.000      0.000
REMARK INTER + INTRA:          -8.756
REMARK INTER:                  -8.314
REMARK INTRA:                  -0.442
REMARK UNBOUND:                -0.442
REMARK  Name = No_3852-gen_results/8p0m/2024-11-26-14-13-15/
REMARK  2 active torsions:
REMARK  status: ('A' for Active; 'I' for Inactive)
REMARK    1  A    between atoms: C_2  and  N_7
REMARK    2  A    between atoms: N_7  and  C_8
REMARK                            x       y       z     vdW  Elec       q    Type
REMARK                         _______ _______ _______ _____ _____    ______ ____
ROOT
ATOM      1  N   UNL A   1     -23.677  -0.724  29.714  0.00  0.00    -0.201 N 
ATOM      2  C   UNL A   1     -23.390  -0.406  31.103  0.00  0.00    +0.455 C 
ATOM      3  O   UNL A   1     -22.810  -1.094  31.858  0.00  0.00    -0.222 OA
ATOM      4  O   UNL A   1     -23.865   0.679  31.596  0.00  0.00    -0.222 OA
ENDROOT
BRANCH   1   6
ATOM      5  C   UNL A   1     -23.661  -2.775  28.925  0.00  0.00    +0.045 A 
ATOM      6  C   UNL A   1     -24.218  -2.108  29.520  0.00  0.00    +0.064 A 
ATOM      7  C   UNL A   1     -24.224  -4.122  28.741  0.00  0.00    +0.141 A 
ATOM      8  C   UNL A   1     -25.525  -4.437  29.232  0.00  0.00    +0.030 A 
ATOM      9  C   UNL A   1     -25.594  -2.163  30.086  0.00  0.00    +0.015 A 
ATOM     10  C   UNL A   1     -26.146  -3.401  29.944  0.00  0.00    +0.004 A 
ATOM     11  F   UNL A   1     -23.604  -5.103  28.072  0.00  0.00    -0.204 F 
ENDBRANCH   1   6
BRANCH   1  12
ATOM     12  C   UNL A   1     -23.420   0.106  28.734  0.00  0.00    +0.062 A 
ATOM     13  C   UNL A   1     -22.333   0.626  28.663  0.00  0.00    +0.015 A 
ATOM     14  C   UNL A   1     -22.007   1.522  27.462  0.00  0.00    +0.002 A 
ATOM     15  C   UNL A   1     -23.033   1.606  26.524  0.00  0.00    +0.011 A 
ATOM     16  C   UNL A   1     -24.405   0.251  27.731  0.00  0.00    +0.027 A 
ATOM     17  C   UNL A   1     -24.177   1.013  26.665  0.00  0.00    +0.059 A 
ATOM     18 CL   UNL A   1     -25.402   1.196  25.481  0.00  0.00    -0.082 Cl
ENDBRANCH   1  12
TORSDOF 2
ENDMDL
ENDMDL
