REMARK  Name = No_3853-gen_results/8p0m/2024-11-26-14-13-15/
REMARK  10 active torsions:
REMARK  status: ('A' for Active; 'I' for Inactive)
REMARK    1  A    between atoms: C_3  and  C_8
REMARK    2  A    between atoms: N_4  and  C_14
REMARK    3  A    between atoms: C_14  and  C_15
REMARK    4  A    between atoms: C_15  and  C_16
REMARK    5  A    between atoms: C_16  and  C_17
REMARK    6  A    between atoms: C_16  and  C_23
REMARK    7  A    between atoms: C_23  and  C_24
REMARK    8  A    between atoms: C_24  and  C_25
REMARK    9  A    between atoms: C_26  and  C_27
REMARK   10  A    between atoms: C_27  and  C_28
REMARK                            x       y       z     vdW  Elec       q    Type
REMARK                         _______ _______ _______ _____ _____    ______ ____
ROOT
ATOM      1  C   UNL A   1     -29.898  -2.871  31.642  0.00  0.00    +0.026 C 
ENDROOT
BRANCH   1   2
ATOM      2  C   UNL A   1     -28.976  -2.341  30.852  0.00  0.00    +0.094 C 
BRANCH   2   6
ATOM      3  O   UNL A   1     -28.123  -1.335  28.487  0.00  0.00    -0.275 OA
ATOM      4  C   UNL A   1     -28.521  -0.436  29.078  0.00  0.00    +0.229 C 
ATOM      5  C   UNL A   1     -28.589   0.592  28.946  0.00  0.00    +0.099 C 
ATOM      6  N   UNL A   1     -29.125  -0.940  30.427  0.00  0.00    -0.279 N 
ATOM      7  C   UNL A   1     -29.296   1.637  29.434  0.00  0.00    +0.015 C 
ATOM      8  C   UNL A   1     -29.800   0.014  31.159  0.00  0.00    +0.093 C 
ATOM      9  C   UNL A   1     -29.882   1.288  30.746  0.00  0.00    +0.022 C 
BRANCH   5  10
ATOM     10  C   UNL A   1     -27.930   1.022  27.532  0.00  0.00    -0.014 A 
ATOM     11  C   UNL A   1     -26.995   2.109  27.574  0.00  0.00    -0.004 A 
ATOM     12  C   UNL A   1     -26.228   2.392  26.496  0.00  0.00    -0.000 A 
ATOM     13  C   UNL A   1     -26.214   1.514  25.376  0.00  0.00    -0.000 A 
ATOM     14  C   UNL A   1     -27.032   0.444  25.372  0.00  0.00    -0.000 A 
ATOM     15  C   UNL A   1     -27.793   0.120  26.489  0.00  0.00    -0.004 A 
ENDBRANCH   5  10
ENDBRANCH   2   6
ENDBRANCH   1   2
BRANCH   1  16
ATOM     16  C   UNL A   1     -31.098  -3.182  31.020  0.00  0.00    +0.025 C 
BRANCH  16  17
ATOM     17  C   UNL A   1     -31.230  -3.101  29.723  0.00  0.00    -0.019 A 
ATOM     18  C   UNL A   1     -31.592  -2.458  29.034  0.00  0.00    +0.016 A 
ATOM     19  C   UNL A   1     -31.788  -2.478  27.550  0.00  0.00    +0.099 A 
ATOM     20  N   UNL A   1     -31.801  -3.764  27.155  0.00  0.00    -0.242 NA
ATOM     21  C   UNL A   1     -31.229  -4.553  28.985  0.00  0.00    +0.016 A 
ATOM     22  C   UNL A   1     -31.490  -4.742  27.753  0.00  0.00    +0.099 A 
ENDBRANCH  16  17
BRANCH  16  23
ATOM     23  C   UNL A   1     -32.336  -3.346  31.819  0.00  0.00    +0.009 C 
BRANCH  23  24
ATOM     24  C   UNL A   1     -33.182  -2.524  31.924  0.00  0.00    +0.026 C 
BRANCH  24  25
ATOM     25  C   UNL A   1     -33.051  -1.113  31.645  0.00  0.00    -0.030 C 
ATOM     26  C   UNL A   1     -34.113  -0.146  31.670  0.00  0.00    -0.026 C 
BRANCH  26  27
ATOM     27  C   UNL A   1     -33.867   1.173  31.528  0.00  0.00    +0.051 C 
BRANCH  27  28
ATOM     28  C   UNL A   1     -34.792   2.086  31.354  0.00  0.00    -0.026 C 
ATOM     29  C   UNL A   1     -36.129   1.692  31.380  0.00  0.00    -0.030 C 
ATOM     30  C   UNL A   1     -36.414   0.356  31.508  0.00  0.00    +0.030 C 
ENDBRANCH  27  28
ENDBRANCH  26  27
ENDBRANCH  24  25
ENDBRANCH  23  24
ENDBRANCH  16  23
ENDBRANCH   1  16
TORSDOF 10
