MODEL 3853
MODEL 1
REMARK VINA RESULT:    -6.492      0.000      0.000
REMARK INTER + INTRA:         -13.451
REMARK INTER:                 -10.287
REMARK INTRA:                  -3.163
REMARK UNBOUND:                -3.163
REMARK  Name = No_3853-gen_results/8p0m/2024-11-26-14-13-15/
REMARK  10 active torsions:
REMARK  status: ('A' for Active; 'I' for Inactive)
REMARK    1  A    between atoms: C_3  and  C_8
REMARK    2  A    between atoms: N_4  and  C_14
REMARK    3  A    between atoms: C_14  and  C_15
REMARK    4  A    between atoms: C_15  and  C_16
REMARK    5  A    between atoms: C_16  and  C_17
REMARK    6  A    between atoms: C_16  and  C_23
REMARK    7  A    between atoms: C_23  and  C_24
REMARK    8  A    between atoms: C_24  and  C_25
REMARK    9  A    between atoms: C_26  and  C_27
REMARK   10  A    between atoms: C_27  and  C_28
REMARK                            x       y       z     vdW  Elec       q    Type
REMARK                         _______ _______ _______ _____ _____    ______ ____
ROOT
ATOM      1  C   UNL A   1     -25.615   2.310  26.358  0.00  0.00    +0.026 C 
ENDROOT
BRANCH   1   2
ATOM      2  C   UNL A   1     -24.825   1.297  26.032  0.00  0.00    +0.094 C 
BRANCH   2   6
ATOM      3  O   UNL A   1     -25.374  -1.129  27.103  0.00  0.00    -0.275 OA
ATOM      4  C   UNL A   1     -24.485  -0.722  27.703  0.00  0.00    +0.229 C 
ATOM      5  C   UNL A   1     -23.915  -1.022  28.517  0.00  0.00    +0.099 C 
ATOM      6  N   UNL A   1     -24.037   0.642  27.088  0.00  0.00    -0.279 N 
ATOM      7  C   UNL A   1     -22.705  -0.763  29.065  0.00  0.00    +0.015 C 
ATOM      8  C   UNL A   1     -22.865   1.158  27.600  0.00  0.00    +0.093 C 
ATOM      9  C   UNL A   1     -22.198   0.540  28.586  0.00  0.00    +0.022 C 
BRANCH   5  10
ATOM     10  C   UNL A   1     -24.457  -2.434  29.093  0.00  0.00    -0.014 A 
ATOM     11  C   UNL A   1     -25.776  -2.423  29.658  0.00  0.00    -0.004 A 
ATOM     12  C   UNL A   1     -26.401  -3.585  29.956  0.00  0.00    -0.000 A 
ATOM     13  C   UNL A   1     -25.834  -4.827  29.555  0.00  0.00    -0.000 A 
ATOM     14  C   UNL A   1     -24.632  -4.833  28.947  0.00  0.00    -0.000 A 
ATOM     15  C   UNL A   1     -24.000  -3.645  28.599  0.00  0.00    -0.004 A 
ENDBRANCH   5  10
ENDBRANCH   2   6
ENDBRANCH   1   2
BRANCH   1  16
ATOM     16  C   UNL A   1     -26.822   1.951  26.939  0.00  0.00    +0.025 C 
BRANCH  16  17
ATOM     17  C   UNL A   1     -27.847   1.598  26.209  0.00  0.00    -0.019 A 
ATOM     18  C   UNL A   1     -28.420   0.783  26.047  0.00  0.00    +0.016 A 
ATOM     19  C   UNL A   1     -29.538   0.429  25.116  0.00  0.00    +0.099 A 
ATOM     20  N   UNL A   1     -29.485   1.275  24.072  0.00  0.00    -0.242 NA
ATOM     21  C   UNL A   1     -28.035   2.518  24.878  0.00  0.00    +0.016 A 
ATOM     22  C   UNL A   1     -28.865   2.279  23.942  0.00  0.00    +0.099 A 
ENDBRANCH  16  17
BRANCH  16  23
ATOM     23  C   UNL A   1     -27.073   2.221  28.375  0.00  0.00    +0.009 C 
BRANCH  23  24
ATOM     24  C   UNL A   1     -27.408   1.403  29.164  0.00  0.00    +0.026 C 
BRANCH  24  25
ATOM     25  C   UNL A   1     -26.654   0.953  30.310  0.00  0.00    -0.030 C 
ATOM     26  C   UNL A   1     -25.296   1.305  30.618  0.00  0.00    -0.026 C 
BRANCH  26  27
ATOM     27  C   UNL A   1     -24.721   0.942  31.784  0.00  0.00    +0.051 C 
BRANCH  27  28
ATOM     28  C   UNL A   1     -25.126  -0.056  32.531  0.00  0.00    -0.026 C 
ATOM     29  C   UNL A   1     -24.210  -1.052  32.864  0.00  0.00    -0.030 C 
ATOM     30  C   UNL A   1     -22.947  -0.983  32.331  0.00  0.00    +0.030 C 
ENDBRANCH  27  28
ENDBRANCH  26  27
ENDBRANCH  24  25
ENDBRANCH  23  24
ENDBRANCH  16  23
ENDBRANCH   1  16
TORSDOF 10
ENDMDL
ENDMDL
