MODEL 3854
MODEL 1
REMARK VINA RESULT:    -4.324      0.000      0.000
REMARK INTER + INTRA:          -4.324
REMARK INTER:                  -4.324
REMARK INTRA:                   0.000
REMARK UNBOUND:                 0.000
REMARK  Name = No_3854-gen_results/8p0m/2024-11-26-14-13-15/
REMARK  0 active torsions:
REMARK  status: ('A' for Active; 'I' for Inactive)
REMARK                            x       y       z     vdW  Elec       q    Type
REMARK                         _______ _______ _______ _____ _____    ______ ____
ROOT
ATOM      1  C   UNL A   1     -24.144  -4.486  28.860  0.00  0.00    +0.011 A 
ATOM      2  C   UNL A   1     -24.986  -5.106  28.989  0.00  0.00    +0.001 A 
ATOM      3  C   UNL A   1     -24.317  -3.063  29.193  0.00  0.00    +0.058 A 
ATOM      4  C   UNL A   1     -25.525  -2.600  29.791  0.00  0.00    +0.011 A 
ATOM      5  C   UNL A   1     -26.514  -3.538  29.954  0.00  0.00    +0.001 A 
ATOM      6  C   UNL A   1     -26.295  -4.834  29.609  0.00  0.00    +0.000 A 
ATOM      7 CL   UNL A   1     -23.125  -1.870  28.937  0.00  0.00    -0.082 Cl
ENDROOT
TORSDOF 0
ENDMDL
ENDMDL
