MODEL 3855
MODEL 1
REMARK VINA RESULT:    -6.452      0.000      0.000
REMARK INTER + INTRA:          -6.899
REMARK INTER:                  -6.830
REMARK INTRA:                  -0.069
REMARK UNBOUND:                -0.069
REMARK  Name = No_3855-gen_results/8p0m/2024-11-26-14-13-15/
REMARK  1 active torsions:
REMARK  status: ('A' for Active; 'I' for Inactive)
REMARK    1  A    between atoms: C_5  and  C_11
REMARK                            x       y       z     vdW  Elec       q    Type
REMARK                         _______ _______ _______ _____ _____    ______ ____
ROOT
ATOM      1  C   UNL A   1     -30.795  -9.680  29.536  0.00  0.00    +0.000 A 
ATOM      2  C   UNL A   1     -30.084 -10.255  30.327  0.00  0.00    +0.000 A 
ATOM      3  C   UNL A   1     -29.153 -11.228  29.963  0.00  0.00    +0.000 A 
ATOM      4  C   UNL A   1     -28.258 -11.985  30.859  0.00  0.00    +0.005 A 
ATOM      5  C   UNL A   1     -28.201 -11.529  32.211  0.00  0.00    +0.057 A 
ATOM      6  C   UNL A   1     -29.087 -10.523  32.609  0.00  0.00    +0.005 A 
ATOM      7  C   UNL A   1     -29.948  -9.916  31.761  0.00  0.00    +0.000 A 
ATOM      8  C   UNL A   1     -31.140 -10.380  28.259  0.00  0.00    +0.000 A 
ATOM      9  C   UNL A   1     -30.107 -11.211  27.694  0.00  0.00    +0.000 A 
ATOM     10  C   UNL A   1     -29.199 -11.789  28.596  0.00  0.00    +0.000 A 
ENDROOT
BRANCH   5  11
ATOM     11  C   UNL A   1     -27.266 -12.232  33.127  0.00  0.00    +0.284 C 
ATOM     12  N   UNL A   1     -27.536 -12.153  34.442  0.00  0.00    -0.084 NA
ATOM     13  O   UNL A   1     -26.409 -13.003  32.614  0.00  0.00    -0.267 OA
ENDBRANCH   5  11
TORSDOF 1
ENDMDL
ENDMDL
