MODEL 3856
MODEL 1
REMARK VINA RESULT:    -4.335      0.000      0.000
REMARK INTER + INTRA:          -4.335
REMARK INTER:                  -4.335
REMARK INTRA:                   0.000
REMARK UNBOUND:                 0.000
REMARK  Name = No_3856-gen_results/8p0m/2024-11-26-14-13-15/
REMARK  0 active torsions:
REMARK  status: ('A' for Active; 'I' for Inactive)
REMARK                            x       y       z     vdW  Elec       q    Type
REMARK                         _______ _______ _______ _____ _____    ______ ____
ROOT
ATOM      1  C   UNL A   1     -24.158  -4.975  28.603  0.00  0.00    +0.000 A 
ATOM      2  C   UNL A   1     -25.037  -5.342  29.054  0.00  0.00    +0.000 A 
ATOM      3  C   UNL A   1     -23.983  -3.526  28.756  0.00  0.00    +0.000 A 
ATOM      4  C   UNL A   1     -24.937  -2.738  29.255  0.00  0.00    +0.000 A 
ATOM      5  C   UNL A   1     -26.198  -4.700  29.619  0.00  0.00    +0.000 A 
ATOM      6  C   UNL A   1     -26.027  -3.351  29.731  0.00  0.00    +0.000 A 
ENDROOT
TORSDOF 0
ENDMDL
ENDMDL
