REMARK  Name = No_3857-gen_results/8p0m/2024-11-26-14-13-15/
REMARK  3 active torsions:
REMARK  status: ('A' for Active; 'I' for Inactive)
REMARK    1  A    between atoms: C_3  and  C_4
REMARK    2  A    between atoms: C_4  and  C_8
REMARK    3  A    between atoms: C_12  and  C_14
REMARK                            x       y       z     vdW  Elec       q    Type
REMARK                         _______ _______ _______ _____ _____    ______ ____
ROOT
ATOM      1  C   UNL A   1     -26.252   0.411  27.422  0.00  0.00    +0.041 C 
ATOM      2  C   UNL A   1     -26.764   1.353  26.533  0.00  0.00    +0.009 C 
ENDROOT
BRANCH   1   5
ATOM      3  C   UNL A   1     -28.016  -0.814  28.878  0.00  0.00    -0.004 A 
ATOM      4  C   UNL A   1     -28.469  -0.785  29.829  0.00  0.00    -0.000 A 
ATOM      5  C   UNL A   1     -27.087   0.290  28.638  0.00  0.00    -0.019 A 
ATOM      6  C   UNL A   1     -28.314  -0.127  30.710  0.00  0.00    -0.000 A 
ATOM      7  C   UNL A   1     -27.483   1.008  30.810  0.00  0.00    -0.000 A 
ATOM      8  C   UNL A   1     -26.777   1.172  29.687  0.00  0.00    -0.004 A 
ENDBRANCH   1   5
BRANCH   1   9
ATOM      9  C   UNL A   1     -24.953   0.351  27.669  0.00  0.00    -0.037 C 
ATOM     10  C   UNL A   1     -24.001   0.557  26.692  0.00  0.00    -0.008 C 
ATOM     11  C   UNL A   1     -22.638   0.843  27.098  0.00  0.00    -0.005 C 
ATOM     12  C   UNL A   1     -22.290   0.614  28.464  0.00  0.00    -0.022 C 
ATOM     13  C   UNL A   1     -24.194   0.348  28.955  0.00  0.00    +0.041 C 
BRANCH  13  14
ATOM     14  C   UNL A   1     -24.076  -0.024  30.205  0.00  0.00    +0.008 C 
ATOM     15  C   UNL A   1     -24.672  -0.494  31.015  0.00  0.00    +0.001 C 
ATOM     16  C   UNL A   1     -22.561   0.498  30.440  0.00  0.00    +0.001 C 
ENDBRANCH  13  14
ENDBRANCH   1   9
TORSDOF 3
