MODEL 3857
MODEL 1
REMARK VINA RESULT:    -6.337      0.000      0.000
REMARK INTER + INTRA:          -8.598
REMARK INTER:                  -7.448
REMARK INTRA:                  -1.149
REMARK UNBOUND:                -1.149
REMARK  Name = No_3857-gen_results/8p0m/2024-11-26-14-13-15/
REMARK  3 active torsions:
REMARK  status: ('A' for Active; 'I' for Inactive)
REMARK    1  A    between atoms: C_3  and  C_4
REMARK    2  A    between atoms: C_4  and  C_8
REMARK    3  A    between atoms: C_12  and  C_14
REMARK                            x       y       z     vdW  Elec       q    Type
REMARK                         _______ _______ _______ _____ _____    ______ ____
ROOT
ATOM      1  C   UNL A   1     -23.910  -0.639  29.979  0.00  0.00    +0.041 C 
ATOM      2  C   UNL A   1     -22.967  -0.763  30.997  0.00  0.00    +0.009 C 
ENDROOT
BRANCH   1   5
ATOM      3  C   UNL A   1     -23.671  -2.988  28.903  0.00  0.00    -0.004 A 
ATOM      4  C   UNL A   1     -24.196  -3.890  28.759  0.00  0.00    -0.000 A 
ATOM      5  C   UNL A   1     -24.458  -1.953  29.573  0.00  0.00    -0.019 A 
ATOM      6  C   UNL A   1     -25.199  -4.232  29.092  0.00  0.00    -0.000 A 
ATOM      7  C   UNL A   1     -26.188  -3.489  29.769  0.00  0.00    -0.000 A 
ATOM      8  C   UNL A   1     -25.731  -2.271  30.076  0.00  0.00    -0.004 A 
ENDBRANCH   1   5
BRANCH   1   9
ATOM      9  C   UNL A   1     -23.703   0.180  28.961  0.00  0.00    -0.037 C 
ATOM     10  C   UNL A   1     -22.647   1.067  28.925  0.00  0.00    -0.008 C 
ATOM     11  C   UNL A   1     -22.272   1.651  27.651  0.00  0.00    -0.005 C 
ATOM     12  C   UNL A   1     -23.183   1.507  26.561  0.00  0.00    -0.022 C 
ATOM     13  C   UNL A   1     -24.274   0.202  27.582  0.00  0.00    +0.041 C 
BRANCH  13  14
ATOM     14  C   UNL A   1     -25.286   0.037  26.767  0.00  0.00    +0.008 C 
ATOM     15  C   UNL A   1     -25.505  -0.326  25.741  0.00  0.00    +0.001 C 
ATOM     16  C   UNL A   1     -26.434   0.659  27.726  0.00  0.00    +0.001 C 
ENDBRANCH  13  14
ENDBRANCH   1   9
TORSDOF 3
ENDMDL
ENDMDL
