MODEL 3858
MODEL 1
REMARK VINA RESULT:    -8.093      0.000      0.000
REMARK INTER + INTRA:          -9.633
REMARK INTER:                  -9.512
REMARK INTRA:                  -0.121
REMARK UNBOUND:                -0.121
REMARK  Name = No_3858-gen_results/8p0m/2024-11-26-14-13-15/
REMARK  3 active torsions:
REMARK  status: ('A' for Active; 'I' for Inactive)
REMARK    1  A    between atoms: C_2  and  O_7
REMARK    2  A    between atoms: O_7  and  C_8
REMARK    3  A    between atoms: C_14  and  C_15
REMARK                            x       y       z     vdW  Elec       q    Type
REMARK                         _______ _______ _______ _____ _____    ______ ____
ROOT
ATOM      1  C   UNL A   1     -24.641  -0.443  28.086  0.00  0.00    +0.037 A 
ATOM      2  C   UNL A   1     -24.724  -0.425  29.136  0.00  0.00    +0.145 A 
ATOM      3  C   UNL A   1     -24.171   0.818  27.514  0.00  0.00    +0.003 A 
ATOM      4  C   UNL A   1     -23.016   1.202  27.698  0.00  0.00    +0.000 A 
ATOM      5  C   UNL A   1     -23.485   0.082  29.967  0.00  0.00    +0.037 A 
ATOM      6  C   UNL A   1     -22.752   1.099  29.272  0.00  0.00    +0.003 A 
ATOM      7  C   UNL A   1     -24.554   1.059  26.006  0.00  0.00    -0.000 A 
ATOM      8  C   UNL A   1     -23.691   1.782  25.178  0.00  0.00    -0.000 A 
ATOM      9  C   UNL A   1     -22.270   2.113  25.599  0.00  0.00    -0.000 A 
ATOM     10  C   UNL A   1     -22.003   1.904  27.022  0.00  0.00    +0.000 A 
ENDROOT
BRANCH   7  11
ATOM     11  C   UNL A   1     -25.697   1.006  25.593  0.00  0.00    -0.005 C 
ATOM     12  C   UNL A   1     -26.128   0.004  24.731  0.00  0.00    -0.026 C 
ATOM     13  C   UNL A   1     -27.514  -0.044  24.451  0.00  0.00    +0.031 C 
ENDBRANCH   7  11
BRANCH   2  14
ATOM     14  O   UNL A   1     -25.296  -1.432  29.929  0.00  0.00    -0.454 OA
BRANCH  14  15
ATOM     15  C   UNL A   1     -25.171  -2.663  29.421  0.00  0.00    +0.145 A 
ATOM     16  C   UNL A   1     -26.242  -3.482  29.795  0.00  0.00    +0.037 A 
ATOM     17  C   UNL A   1     -26.136  -4.902  29.571  0.00  0.00    +0.003 A 
ATOM     18  C   UNL A   1     -24.956  -5.353  28.926  0.00  0.00    +0.000 A 
ATOM     19  C   UNL A   1     -23.957  -4.475  28.636  0.00  0.00    +0.003 A 
ATOM     20  C   UNL A   1     -24.029  -3.096  28.952  0.00  0.00    +0.037 A 
ENDBRANCH  14  15
ENDBRANCH   2  14
TORSDOF 3
ENDMDL
ENDMDL
