REMARK  Name = No_3858-gen_results/8p0m/2024-11-26-14-13-15/
REMARK  3 active torsions:
REMARK  status: ('A' for Active; 'I' for Inactive)
REMARK    1  A    between atoms: C_2  and  O_7
REMARK    2  A    between atoms: O_7  and  C_8
REMARK    3  A    between atoms: C_14  and  C_15
REMARK                            x       y       z     vdW  Elec       q    Type
REMARK                         _______ _______ _______ _____ _____    ______ ____
ROOT
ATOM      1  C   UNL A   1     -28.016  -0.814  28.878  0.00  0.00    +0.037 A 
ATOM      2  C   UNL A   1     -28.469  -0.785  29.829  0.00  0.00    +0.145 A 
ATOM      3  C   UNL A   1     -27.087   0.290  28.638  0.00  0.00    +0.003 A 
ATOM      4  C   UNL A   1     -26.024   0.364  29.253  0.00  0.00    +0.000 A 
ATOM      5  C   UNL A   1     -27.537  -0.619  31.088  0.00  0.00    +0.037 A 
ATOM      6  C   UNL A   1     -26.384   0.183  30.801  0.00  0.00    +0.003 A 
ATOM      7  C   UNL A   1     -26.826   0.634  27.124  0.00  0.00    -0.000 A 
ATOM      8  C   UNL A   1     -25.577   1.120  26.729  0.00  0.00    -0.000 A 
ATOM      9  C   UNL A   1     -24.372   1.073  27.652  0.00  0.00    -0.000 A 
ATOM     10  C   UNL A   1     -24.700   0.790  29.050  0.00  0.00    +0.000 A 
ENDROOT
BRANCH   7  11
ATOM     11  C   UNL A   1     -27.718   0.879  26.334  0.00  0.00    -0.005 C 
ATOM     12  C   UNL A   1     -27.470   1.119  24.987  0.00  0.00    -0.026 C 
ATOM     13  C   UNL A   1     -28.598   1.231  24.141  0.00  0.00    +0.031 C 
ENDBRANCH   7  11
BRANCH   2  14
ATOM     14  O   UNL A   1     -29.510  -1.619  30.265  0.00  0.00    -0.454 OA
BRANCH  14  15
ATOM     15  C   UNL A   1     -30.724  -1.238  29.851  0.00  0.00    +0.145 A 
ATOM     16  C   UNL A   1     -31.569  -2.337  29.664  0.00  0.00    +0.037 A 
ATOM     17  C   UNL A   1     -32.813  -2.139  28.963  0.00  0.00    +0.003 A 
ATOM     18  C   UNL A   1     -33.108  -0.810  28.564  0.00  0.00    +0.000 A 
ATOM     19  C   UNL A   1     -32.198   0.182  28.764  0.00  0.00    +0.003 A 
ATOM     20  C   UNL A   1     -30.935  -0.042  29.363  0.00  0.00    +0.037 A 
ENDBRANCH  14  15
ENDBRANCH   2  14
TORSDOF 3
