REMARK  Name = No_3859-gen_results/8p0m/2024-11-26-14-13-15/
REMARK  3 active torsions:
REMARK  status: ('A' for Active; 'I' for Inactive)
REMARK    1  A    between atoms: C_5  and  C_13
REMARK    2  A    between atoms: C_11  and  C_17
REMARK    3  A    between atoms: C_20  and  C_21
REMARK                            x       y       z     vdW  Elec       q    Type
REMARK                         _______ _______ _______ _____ _____    ______ ____
ROOT
ATOM      1  C   UNL A   1     -28.016  -0.814  28.878  0.00  0.00    +0.277 C 
ATOM      2  C   UNL A   1     -27.064  -0.119  28.608  0.00  0.00    +0.132 A 
ATOM      3  N   UNL A   1     -25.818  -0.343  29.049  0.00  0.00    -0.239 NA
ATOM      4  C   UNL A   1     -24.651   0.444  28.765  0.00  0.00    +0.104 A 
ATOM      5  C   UNL A   1     -24.715   1.312  27.719  0.00  0.00    +0.075 A 
ATOM      6  C   UNL A   1     -26.000   1.524  27.153  0.00  0.00    +0.004 A 
ATOM      7  C   UNL A   1     -27.090   0.820  27.538  0.00  0.00    +0.006 A 
ATOM      8  N   UNL A   1     -29.259  -0.258  28.916  0.00  0.00    -0.189 N 
ATOM      9  O   UNL A   1     -27.893  -1.926  29.589  0.00  0.00    -0.268 OA
ATOM     10  C   UNL A   1     -29.598   0.875  28.332  0.00  0.00    +0.044 C 
ATOM     11  C   UNL A   1     -30.915   1.315  28.206  0.00  0.00    +0.011 C 
ATOM     12  C   UNL A   1     -28.648   1.643  27.546  0.00  0.00    +0.070 C 
ATOM     13  C   UNL A   1     -30.404  -0.990  29.490  0.00  0.00    +0.353 C 
ATOM     14  O   UNL A   1     -30.327  -1.248  30.549  0.00  0.00    -0.248 OA
ATOM     15  N   UNL A   1     -31.285  -1.513  28.621  0.00  0.00    -0.069 NA
ENDROOT
BRANCH   5  16
ATOM     16  C   UNL A   1     -23.514   2.038  27.309  0.00  0.00    +0.286 C 
ATOM     17  N   UNL A   1     -22.320   1.667  27.840  0.00  0.00    -0.084 NA
ATOM     18  O   UNL A   1     -23.580   2.964  26.454  0.00  0.00    -0.267 OA
ENDBRANCH   5  16
BRANCH  11  19
ATOM     19  C   UNL A   1     -31.143   2.575  27.620  0.00  0.00    +0.001 C 
ATOM     20  C   UNL A   1     -32.292   3.196  27.774  0.00  0.00    -0.000 C 
BRANCH  20  21
ATOM     21  C   UNL A   1     -32.566   4.463  27.277  0.00  0.00    -0.005 C 
ATOM     22  C   UNL A   1     -31.557   5.077  26.475  0.00  0.00    -0.026 C 
ATOM     23  C   UNL A   1     -30.355   4.424  26.226  0.00  0.00    +0.031 C 
ENDBRANCH  20  21
ENDBRANCH  11  19
TORSDOF 3
