MODEL 3859
MODEL 1
REMARK VINA RESULT:    -7.119      0.000      0.000
REMARK INTER + INTRA:          -8.858
REMARK INTER:                  -8.368
REMARK INTRA:                  -0.489
REMARK UNBOUND:                -0.489
REMARK  Name = No_3859-gen_results/8p0m/2024-11-26-14-13-15/
REMARK  3 active torsions:
REMARK  status: ('A' for Active; 'I' for Inactive)
REMARK    1  A    between atoms: C_5  and  C_13
REMARK    2  A    between atoms: C_11  and  C_17
REMARK    3  A    between atoms: C_20  and  C_21
REMARK                            x       y       z     vdW  Elec       q    Type
REMARK                         _______ _______ _______ _____ _____    ______ ____
ROOT
ATOM      1  C   UNL A   1     -24.351   1.811  27.153  0.00  0.00    +0.277 C 
ATOM      2  C   UNL A   1     -25.343   1.699  26.471  0.00  0.00    +0.132 A 
ATOM      3  N   UNL A   1     -26.071   2.732  26.023  0.00  0.00    -0.239 NA
ATOM      4  C   UNL A   1     -27.255   2.662  25.214  0.00  0.00    +0.104 A 
ATOM      5  C   UNL A   1     -27.513   1.490  24.573  0.00  0.00    +0.075 A 
ATOM      6  C   UNL A   1     -26.713   0.378  24.946  0.00  0.00    +0.004 A 
ATOM      7  C   UNL A   1     -25.668   0.486  25.799  0.00  0.00    +0.006 A 
ATOM      8  N   UNL A   1     -24.023   0.817  28.024  0.00  0.00    -0.189 N 
ATOM      9  O   UNL A   1     -23.842   2.996  27.459  0.00  0.00    -0.268 OA
ATOM     10  C   UNL A   1     -24.458  -0.426  27.950  0.00  0.00    +0.044 C 
ATOM     11  C   UNL A   1     -23.948  -1.470  28.720  0.00  0.00    +0.011 C 
ATOM     12  C   UNL A   1     -25.336  -0.865  26.879  0.00  0.00    +0.070 C 
ATOM     13  C   UNL A   1     -22.985   1.017  29.053  0.00  0.00    +0.353 C 
ATOM     14  O   UNL A   1     -23.186   1.797  29.791  0.00  0.00    -0.248 OA
ATOM     15  N   UNL A   1     -21.793   0.440  28.831  0.00  0.00    -0.069 NA
ENDROOT
BRANCH   5  16
ATOM     16  C   UNL A   1     -28.633   1.411  23.636  0.00  0.00    +0.286 C 
ATOM     17  N   UNL A   1     -29.142   0.188  23.337  0.00  0.00    -0.084 NA
ATOM     18  O   UNL A   1     -29.138   2.458  23.144  0.00  0.00    -0.267 OA
ENDBRANCH   5  16
BRANCH  11  19
ATOM     19  C   UNL A   1     -24.543  -2.741  28.598  0.00  0.00    +0.001 C 
ATOM     20  C   UNL A   1     -25.200  -3.281  29.600  0.00  0.00    -0.000 C 
BRANCH  20  21
ATOM     21  C   UNL A   1     -25.861  -4.500  29.533  0.00  0.00    -0.005 C 
ATOM     22  C   UNL A   1     -27.208  -4.534  30.002  0.00  0.00    -0.026 C 
ATOM     23  C   UNL A   1     -27.809  -3.389  30.514  0.00  0.00    +0.031 C 
ENDBRANCH  20  21
ENDBRANCH  11  19
TORSDOF 3
ENDMDL
ENDMDL
