MODEL 385
MODEL 1
REMARK VINA RESULT:    -6.545      0.000      0.000
REMARK INTER + INTRA:          -8.766
REMARK INTER:                  -8.076
REMARK INTRA:                  -0.690
REMARK UNBOUND:                -0.690
REMARK  Name = No_385-gen_results/8p0m/2024-11-26-14-13-15/
REMARK  4 active torsions:
REMARK  status: ('A' for Active; 'I' for Inactive)
REMARK    1  A    between atoms: C_5  and  C_8
REMARK    2  A    between atoms: C_7  and  C_12
REMARK    3  A    between atoms: C_8  and  O_9
REMARK    4  A    between atoms: O_9  and  C_16
REMARK                            x       y       z     vdW  Elec       q    Type
REMARK                         _______ _______ _______ _____ _____    ______ ____
ROOT
ATOM      1 CL   UNL A   1     -15.636   3.644  35.431  0.00  0.00    -0.081 Cl
ATOM      2  C   UNL A   1     -14.404   3.111  35.662  0.00  0.00    +0.072 A 
ATOM      3  C   UNL A   1     -13.685   2.623  34.702  0.00  0.00    +0.068 A 
ATOM      4  C   UNL A   1     -12.406   1.934  34.874  0.00  0.00    +0.019 A 
ATOM      5  C   UNL A   1     -11.934   1.784  36.201  0.00  0.00    +0.077 A 
ATOM      6  C   UNL A   1     -12.746   2.247  37.229  0.00  0.00    +0.011 A 
ATOM      7  C   UNL A   1     -13.950   2.839  37.006  0.00  0.00    +0.083 A 
ATOM      8 CL   UNL A   1     -14.093   2.710  33.030  0.00  0.00    -0.081 Cl
ENDROOT
BRANCH   7   9
ATOM      9  C   UNL A   1     -14.725   3.297  38.180  0.00  0.00    +0.419 C 
ATOM     10  F   UNL A   1     -14.047   2.927  39.174  0.00  0.00    -0.166 F 
ATOM     11  F   UNL A   1     -15.918   2.759  38.130  0.00  0.00    -0.166 F 
ATOM     12  F   UNL A   1     -14.753   4.627  38.200  0.00  0.00    -0.166 F 
ENDBRANCH   7   9
BRANCH   5  13
ATOM     13  C   UNL A   1     -10.669   1.101  36.452  0.00  0.00    +0.346 C 
ATOM     14  O   UNL A   1      -9.691   1.260  35.675  0.00  0.00    -0.244 OA
BRANCH  13  15
ATOM     15  O   UNL A   1     -10.527   0.634  37.550  0.00  0.00    -0.421 OA
BRANCH  15  16
ATOM     16  C   UNL A   1     -11.124  -0.577  38.052  0.00  0.00    +0.149 A 
ATOM     17  C   UNL A   1     -11.109  -1.466  37.464  0.00  0.00    +0.038 A 
ATOM     18  C   UNL A   1     -11.749  -2.789  37.916  0.00  0.00    +0.003 A 
ATOM     19  C   UNL A   1     -12.303  -2.758  39.193  0.00  0.00    +0.000 A 
ATOM     20  C   UNL A   1     -11.574  -0.437  39.389  0.00  0.00    +0.038 A 
ATOM     21  C   UNL A   1     -12.181  -1.613  39.935  0.00  0.00    +0.003 A 
ENDBRANCH  15  16
ENDBRANCH  13  15
ENDBRANCH   5  13
TORSDOF 4
ENDMDL
ENDMDL
