REMARK  Name = No_386-gen_results/8p0m/2024-11-26-14-13-15/
REMARK  0 active torsions:
REMARK  status: ('A' for Active; 'I' for Inactive)
REMARK                            x       y       z     vdW  Elec       q    Type
REMARK                         _______ _______ _______ _____ _____    ______ ____
ROOT
ATOM      1 CL   UNL A   1     -28.149  -0.820  28.908  0.00  0.00    -0.082 Cl
ATOM      2  C   UNL A   1     -26.912  -0.080  28.945  0.00  0.00    +0.058 A 
ATOM      3  C   UNL A   1     -26.738   1.044  29.253  0.00  0.00    +0.011 A 
ATOM      4  C   UNL A   1     -25.424   1.576  29.424  0.00  0.00    +0.001 A 
ATOM      5  C   UNL A   1     -24.263   0.848  29.032  0.00  0.00    +0.000 A 
ATOM      6  C   UNL A   1     -24.487  -0.440  28.673  0.00  0.00    +0.001 A 
ATOM      7  C   UNL A   1     -25.722  -0.928  28.616  0.00  0.00    +0.011 A 
ENDROOT
TORSDOF 0
