REMARK  Name = No_3860-gen_results/8p0m/2024-11-26-14-13-15/
REMARK  9 active torsions:
REMARK  status: ('A' for Active; 'I' for Inactive)
REMARK    1  A    between atoms: C_2  and  C_17
REMARK    2  A    between atoms: C_4  and  C_7
REMARK    3  A    between atoms: C_8  and  C_14
REMARK    4  A    between atoms: C_14  and  O_16
REMARK    5  A    between atoms: O_16  and  C_20
REMARK    6  A    between atoms: C_20  and  C_21
REMARK    7  A    between atoms: C_20  and  C_27
REMARK    8  A    between atoms: C_28  and  C_29
REMARK    9  A    between atoms: C_29  and  C_30
REMARK                            x       y       z     vdW  Elec       q    Type
REMARK                         _______ _______ _______ _____ _____    ______ ____
ROOT
ATOM      1  C   UNL A   1     -24.389  -0.805  30.164  0.00  0.00    +0.029 C 
ATOM      2  C   UNL A   1     -23.817   0.476  29.912  0.00  0.00    +0.103 C 
ATOM      3  C   UNL A   1     -22.501   0.545  29.410  0.00  0.00    +0.011 C 
ATOM      4  C   UNL A   1     -21.770  -0.652  29.213  0.00  0.00    +0.001 C 
ATOM      5  C   UNL A   1     -23.694  -1.821  29.252  0.00  0.00    +0.005 C 
ATOM      6  C   UNL A   1     -22.303  -1.789  29.162  0.00  0.00    +0.000 C 
ATOM      7  C   UNL A   1     -23.876  -1.230  31.672  0.00  0.00    +0.005 C 
ENDROOT
BRANCH   1  11
ATOM      8  C   UNL A   1     -28.016  -0.814  28.878  0.00  0.00    +0.006 A 
ATOM      9  C   UNL A   1     -28.469  -0.785  29.829  0.00  0.00    +0.080 A 
ATOM     10  C   UNL A   1     -26.504  -0.778  28.877  0.00  0.00    -0.004 A 
ATOM     11  C   UNL A   1     -25.810  -0.853  30.103  0.00  0.00    -0.022 A 
ATOM     12  C   UNL A   1     -27.991  -0.892  31.226  0.00  0.00    +0.006 A 
ATOM     13  C   UNL A   1     -26.604  -0.868  31.265  0.00  0.00    -0.004 A 
BRANCH   9  14
ATOM     14  C   UNL A   1     -30.053  -0.907  29.966  0.00  0.00    +0.388 C 
ATOM     15  O   UNL A   1     -30.684  -0.299  29.208  0.00  0.00    -0.241 OA
ATOM     16  O   UNL A   1     -30.617  -1.655  30.833  0.00  0.00    -0.241 OA
ENDBRANCH   9  14
ENDBRANCH   1  11
BRANCH   2  17
ATOM     17  C   UNL A   1     -24.427   1.739  30.363  0.00  0.00    +0.317 C 
ATOM     18  O   UNL A   1     -24.504   2.146  31.503  0.00  0.00    -0.250 OA
BRANCH  17  19
ATOM     19  O   UNL A   1     -25.207   2.333  29.419  0.00  0.00    -0.443 OA
BRANCH  19  20
ATOM     20  C   UNL A   1     -25.913   3.469  29.796  0.00  0.00    +0.213 C 
BRANCH  20  21
ATOM     21  C   UNL A   1     -26.071   4.319  28.736  0.00  0.00    +0.022 A 
ATOM     22  C   UNL A   1     -26.026   5.598  28.952  0.00  0.00    -0.001 A 
ATOM     23  C   UNL A   1     -25.869   6.565  27.836  0.00  0.00    -0.000 A 
ATOM     24  C   UNL A   1     -25.741   5.991  26.534  0.00  0.00    -0.000 A 
ATOM     25  C   UNL A   1     -25.464   4.662  26.491  0.00  0.00    -0.000 A 
ATOM     26  C   UNL A   1     -25.624   3.807  27.502  0.00  0.00    -0.001 A 
ENDBRANCH  20  21
BRANCH  20  27
ATOM     27  C   UNL A   1     -27.365   2.975  30.160  0.00  0.00    +0.017 C 
ATOM     28  C   UNL A   1     -28.453   3.065  29.325  0.00  0.00    -0.022 C 
BRANCH  28  29
ATOM     29  C   UNL A   1     -29.701   2.732  29.880  0.00  0.00    +0.051 C 
BRANCH  29  30
ATOM     30  C   UNL A   1     -30.849   3.050  29.176  0.00  0.00    -0.026 C 
ATOM     31  C   UNL A   1     -30.731   3.511  27.876  0.00  0.00    -0.030 C 
ATOM     32  C   UNL A   1     -29.466   3.831  27.337  0.00  0.00    +0.030 C 
ENDBRANCH  29  30
ENDBRANCH  28  29
ENDBRANCH  20  27
ENDBRANCH  19  20
ENDBRANCH  17  19
ENDBRANCH   2  17
TORSDOF 9
