MODEL 3860
MODEL 1
REMARK VINA RESULT:    -6.971      0.000      0.000
REMARK INTER + INTRA:         -13.383
REMARK INTER:                 -10.638
REMARK INTRA:                  -2.744
REMARK UNBOUND:                -2.744
REMARK  Name = No_3860-gen_results/8p0m/2024-11-26-14-13-15/
REMARK  9 active torsions:
REMARK  status: ('A' for Active; 'I' for Inactive)
REMARK    1  A    between atoms: C_2  and  C_17
REMARK    2  A    between atoms: C_4  and  C_7
REMARK    3  A    between atoms: C_8  and  C_14
REMARK    4  A    between atoms: C_14  and  O_16
REMARK    5  A    between atoms: O_16  and  C_20
REMARK    6  A    between atoms: C_20  and  C_21
REMARK    7  A    between atoms: C_20  and  C_27
REMARK    8  A    between atoms: C_28  and  C_29
REMARK    9  A    between atoms: C_29  and  C_30
REMARK                            x       y       z     vdW  Elec       q    Type
REMARK                         _______ _______ _______ _____ _____    ______ ____
ROOT
ATOM      1  C   UNL A   1      -9.779   1.693  34.735  0.00  0.00    +0.029 C 
ATOM      2  C   UNL A   1     -10.435   1.821  35.995  0.00  0.00    +0.103 C 
ATOM      3  C   UNL A   1     -11.837   1.963  36.019  0.00  0.00    +0.011 C 
ATOM      4  C   UNL A   1     -12.550   2.020  34.796  0.00  0.00    +0.001 C 
ATOM      5  C   UNL A   1     -10.784   1.109  33.737  0.00  0.00    +0.005 C 
ATOM      6  C   UNL A   1     -12.069   1.650  33.696  0.00  0.00    +0.000 C 
ATOM      7  C   UNL A   1      -9.553   3.234  34.195  0.00  0.00    +0.005 C 
ENDROOT
BRANCH   1  11
ATOM      8  C   UNL A   1      -6.017   0.889  34.643  0.00  0.00    +0.006 A 
ATOM      9  C   UNL A   1      -6.129  -0.159  34.670  0.00  0.00    +0.080 A 
ATOM     10  C   UNL A   1      -7.306   1.679  34.617  0.00  0.00    -0.004 A 
ATOM     11  C   UNL A   1      -8.535   1.003  34.771  0.00  0.00    -0.022 A 
ATOM     12  C   UNL A   1      -7.262  -1.092  34.865  0.00  0.00    +0.006 A 
ATOM     13  C   UNL A   1      -8.465  -0.400  34.852  0.00  0.00    -0.004 A 
BRANCH   9  14
ATOM     14  C   UNL A   1      -4.846  -1.098  34.791  0.00  0.00    +0.388 C 
ATOM     15  O   UNL A   1      -3.832  -0.628  34.487  0.00  0.00    -0.241 OA
ATOM     16  O   UNL A   1      -4.905  -2.296  35.229  0.00  0.00    -0.241 OA
ENDBRANCH   9  14
ENDBRANCH   1  11
BRANCH   2  17
ATOM     17  C   UNL A   1      -9.718   2.050  37.261  0.00  0.00    +0.317 C 
ATOM     18  O   UNL A   1      -9.050   3.018  37.557  0.00  0.00    -0.250 OA
BRANCH  17  19
ATOM     19  O   UNL A   1      -9.593   0.930  38.024  0.00  0.00    -0.443 OA
BRANCH  19  20
ATOM     20  C   UNL A   1     -10.540   0.726  39.020  0.00  0.00    +0.213 C 
BRANCH  20  21
ATOM     21  C   UNL A   1     -11.280  -0.396  38.766  0.00  0.00    +0.022 A 
ATOM     22  C   UNL A   1     -10.931  -1.161  37.777  0.00  0.00    -0.001 A 
ATOM     23  C   UNL A   1     -11.473  -2.537  37.636  0.00  0.00    -0.000 A 
ATOM     24  C   UNL A   1     -12.365  -2.959  38.668  0.00  0.00    -0.000 A 
ATOM     25  C   UNL A   1     -12.373  -2.204  39.797  0.00  0.00    -0.000 A 
ATOM     26  C   UNL A   1     -11.892  -0.964  39.901  0.00  0.00    -0.001 A 
ENDBRANCH  20  21
BRANCH  20  27
ATOM     27  C   UNL A   1      -9.727   0.406  40.332  0.00  0.00    +0.017 C 
ATOM     28  C   UNL A   1      -8.576  -0.343  40.375  0.00  0.00    -0.022 C 
BRANCH  28  29
ATOM     29  C   UNL A   1      -8.083  -0.667  41.651  0.00  0.00    +0.051 C 
BRANCH  29  30
ATOM     30  C   UNL A   1      -7.651  -1.960  41.889  0.00  0.00    -0.026 C 
ATOM     31  C   UNL A   1      -8.571  -2.906  42.309  0.00  0.00    -0.030 C 
ATOM     32  C   UNL A   1      -9.882  -2.526  42.669  0.00  0.00    +0.030 C 
ENDBRANCH  29  30
ENDBRANCH  28  29
ENDBRANCH  20  27
ENDBRANCH  19  20
ENDBRANCH  17  19
ENDBRANCH   2  17
TORSDOF 9
ENDMDL
ENDMDL
