MODEL 3861
MODEL 1
REMARK VINA RESULT:    -5.919      0.000      0.000
REMARK INTER + INTRA:          -8.177
REMARK INTER:                  -6.957
REMARK INTRA:                  -1.220
REMARK UNBOUND:                -1.220
REMARK  Name = No_3861-gen_results/8p0m/2024-11-26-14-13-15/
REMARK  3 active torsions:
REMARK  status: ('A' for Active; 'I' for Inactive)
REMARK    1  A    between atoms: C_12  and  C_15
REMARK    2  A    between atoms: C_15  and  C_16
REMARK    3  A    between atoms: C_16  and  C_17
REMARK                            x       y       z     vdW  Elec       q    Type
REMARK                         _______ _______ _______ _____ _____    ______ ____
ROOT
ATOM      1  C   UNL A   1     -24.556   3.464  26.703  0.00  0.00    +0.019 A 
ATOM      2  C   UNL A   1     -24.117   3.402  25.747  0.00  0.00    +0.002 A 
ATOM      3  C   UNL A   1     -24.002   2.579  27.741  0.00  0.00    +0.081 A 
ATOM      4  C   UNL A   1     -22.841   1.793  27.479  0.00  0.00    +0.018 A 
ATOM      5  C   UNL A   1     -22.269   0.920  28.464  0.00  0.00    +0.003 A 
ATOM      6  C   UNL A   1     -22.896   2.769  25.209  0.00  0.00    +0.000 A 
ATOM      7  C   UNL A   1     -22.259   1.931  26.185  0.00  0.00    +0.002 A 
ATOM      8  C   UNL A   1     -22.870   0.583  29.549  0.00  0.00    +0.017 A 
ATOM      9  C   UNL A   1     -22.349  -0.454  30.444  0.00  0.00    +0.002 A 
ATOM     10  C   UNL A   1     -23.131  -0.937  31.488  0.00  0.00    -0.000 A 
ATOM     11  C   UNL A   1     -24.570  -0.924  31.292  0.00  0.00    -0.003 A 
ATOM     12  C   UNL A   1     -25.135  -0.104  30.235  0.00  0.00    -0.004 A 
ATOM     13  C   UNL A   1     -24.157   1.106  29.892  0.00  0.00    +0.077 A 
ATOM     14  N   UNL A   1     -24.591   2.345  28.929  0.00  0.00    -0.246 NA
ENDROOT
BRANCH  12  15
ATOM     15  C   UNL A   1     -26.585   0.135  30.143  0.00  0.00    +0.033 C 
BRANCH  15  16
ATOM     16  C   UNL A   1     -27.146  -0.446  28.996  0.00  0.00    +0.030 C 
BRANCH  16  17
ATOM     17  C   UNL A   1     -26.832   0.089  27.829  0.00  0.00    -0.030 C 
ATOM     18  C   UNL A   1     -25.777  -0.457  26.977  0.00  0.00    -0.030 C 
ATOM     19  C   UNL A   1     -25.593  -0.130  25.684  0.00  0.00    +0.030 C 
ENDBRANCH  16  17
ENDBRANCH  15  16
ENDBRANCH  12  15
TORSDOF 3
ENDMDL
ENDMDL
