REMARK  Name = No_3861-gen_results/8p0m/2024-11-26-14-13-15/
REMARK  3 active torsions:
REMARK  status: ('A' for Active; 'I' for Inactive)
REMARK    1  A    between atoms: C_12  and  C_15
REMARK    2  A    between atoms: C_15  and  C_16
REMARK    3  A    between atoms: C_16  and  C_17
REMARK                            x       y       z     vdW  Elec       q    Type
REMARK                         _______ _______ _______ _____ _____    ______ ____
ROOT
ATOM      1  C   UNL A   1     -28.016  -0.814  28.878  0.00  0.00    +0.019 A 
ATOM      2  C   UNL A   1     -28.469  -0.785  29.829  0.00  0.00    +0.002 A 
ATOM      3  C   UNL A   1     -26.546  -0.876  28.850  0.00  0.00    +0.081 A 
ATOM      4  C   UNL A   1     -25.804  -1.032  30.057  0.00  0.00    +0.018 A 
ATOM      5  C   UNL A   1     -24.370  -1.100  30.072  0.00  0.00    +0.003 A 
ATOM      6  C   UNL A   1     -27.990  -1.005  31.209  0.00  0.00    +0.000 A 
ATOM      7  C   UNL A   1     -26.562  -1.137  31.260  0.00  0.00    +0.002 A 
ATOM      8  C   UNL A   1     -23.634  -0.783  29.067  0.00  0.00    +0.017 A 
ATOM      9  C   UNL A   1     -22.176  -0.678  29.166  0.00  0.00    +0.002 A 
ATOM     10  C   UNL A   1     -21.440  -0.130  28.121  0.00  0.00    -0.000 A 
ATOM     11  C   UNL A   1     -22.101   0.876  27.308  0.00  0.00    -0.003 A 
ATOM     12  C   UNL A   1     -23.547   0.996  27.364  0.00  0.00    -0.004 A 
ATOM     13  C   UNL A   1     -24.199  -0.387  27.814  0.00  0.00    +0.077 A 
ATOM     14  N   UNL A   1     -25.801  -0.669  27.747  0.00  0.00    -0.246 NA
ENDROOT
BRANCH  12  15
ATOM     15  C   UNL A   1     -24.285   1.823  26.396  0.00  0.00    +0.033 C 
BRANCH  15  16
ATOM     16  C   UNL A   1     -25.196   2.687  27.022  0.00  0.00    +0.030 C 
BRANCH  16  17
ATOM     17  C   UNL A   1     -24.703   3.599  27.841  0.00  0.00    -0.030 C 
ATOM     18  C   UNL A   1     -25.529   4.652  28.429  0.00  0.00    -0.030 C 
ATOM     19  C   UNL A   1     -25.154   5.433  29.459  0.00  0.00    +0.030 C 
ENDBRANCH  16  17
ENDBRANCH  15  16
ENDBRANCH  12  15
TORSDOF 3
