REMARK  Name = No_3862-gen_results/8p0m/2024-11-26-14-13-15/
REMARK  3 active torsions:
REMARK  status: ('A' for Active; 'I' for Inactive)
REMARK    1  A    between atoms: C_1  and  C_2
REMARK    2  A    between atoms: C_1  and  C_8
REMARK    3  A    between atoms: C_5  and  C_12
REMARK                            x       y       z     vdW  Elec       q    Type
REMARK                         _______ _______ _______ _____ _____    ______ ____
ROOT
ATOM      1  C   UNL A   1     -27.064  -0.119  28.608  0.00  0.00    -0.010 A 
ATOM      2  C   UNL A   1     -25.765  -0.390  29.036  0.00  0.00    -0.004 A 
ATOM      3  C   UNL A   1     -24.552   0.406  28.765  0.00  0.00    +0.001 A 
ATOM      4  C   UNL A   1     -24.696   1.448  27.799  0.00  0.00    +0.021 A 
ATOM      5  C   UNL A   1     -25.976   1.725  27.308  0.00  0.00    +0.001 A 
ATOM      6  C   UNL A   1     -27.072   1.013  27.654  0.00  0.00    -0.004 A 
ENDROOT
BRANCH   4   7
ATOM      7  C   UNL A   1     -23.521   2.251  27.494  0.00  0.00    +0.122 C 
ATOM      8  N   UNL A   1     -22.496   2.003  27.179  0.00  0.00    -0.146 NA
ENDBRANCH   4   7
BRANCH   1   9
ATOM      9  C   UNL A   1     -28.016  -0.814  28.878  0.00  0.00    +0.152 C 
BRANCH   9  10
ATOM     10  C   UNL A   1     -28.618  -0.469  30.221  0.00  0.00    +0.391 C 
ATOM     11  N   UNL A   1     -28.338   0.450  30.825  0.00  0.00    -0.057 NA
ATOM     12  N   UNL A   1     -29.743  -1.268  30.570  0.00  0.00    +0.211 NA
ATOM     13  C   UNL A   1     -28.924   0.786  32.102  0.00  0.00    +0.321 C 
ENDBRANCH   9  10
ENDBRANCH   1   9
TORSDOF 3
