MODEL 3862
MODEL 1
REMARK VINA RESULT:    -5.010      0.000      0.000
REMARK INTER + INTRA:          -6.026
REMARK INTER:                  -5.889
REMARK INTRA:                  -0.137
REMARK UNBOUND:                -0.137
REMARK  Name = No_3862-gen_results/8p0m/2024-11-26-14-13-15/
REMARK  3 active torsions:
REMARK  status: ('A' for Active; 'I' for Inactive)
REMARK    1  A    between atoms: C_1  and  C_2
REMARK    2  A    between atoms: C_1  and  C_8
REMARK    3  A    between atoms: C_5  and  C_12
REMARK                            x       y       z     vdW  Elec       q    Type
REMARK                         _______ _______ _______ _____ _____    ______ ____
ROOT
ATOM      1  C   UNL A   1     -23.531  -0.361  29.029  0.00  0.00    -0.010 A 
ATOM      2  C   UNL A   1     -22.361   0.312  28.682  0.00  0.00    -0.004 A 
ATOM      3  C   UNL A   1     -22.194   1.315  27.611  0.00  0.00    +0.001 A 
ATOM      4  C   UNL A   1     -23.297   1.457  26.715  0.00  0.00    +0.021 A 
ATOM      5  C   UNL A   1     -24.477   0.764  27.001  0.00  0.00    +0.001 A 
ATOM      6  C   UNL A   1     -24.603  -0.084  28.047  0.00  0.00    -0.004 A 
ENDROOT
BRANCH   4   7
ATOM      7  C   UNL A   1     -23.169   2.428  25.639  0.00  0.00    +0.122 C 
ATOM      8  N   UNL A   1     -22.397   2.617  24.877  0.00  0.00    -0.146 NA
ENDBRANCH   4   7
BRANCH   1   9
ATOM      9  C   UNL A   1     -23.597  -1.167  29.929  0.00  0.00    +0.152 C 
BRANCH   9  10
ATOM     10  C   UNL A   1     -24.151  -2.497  29.471  0.00  0.00    +0.391 C 
ATOM     11  N   UNL A   1     -23.553  -3.268  28.893  0.00  0.00    -0.057 NA
ATOM     12  N   UNL A   1     -25.424  -2.812  30.026  0.00  0.00    +0.211 NA
ATOM     13  C   UNL A   1     -24.079  -4.545  28.468  0.00  0.00    +0.321 C 
ENDBRANCH   9  10
ENDBRANCH   1   9
TORSDOF 3
ENDMDL
ENDMDL
