REMARK  Name = No_3863-gen_results/8p0m/2024-11-26-14-13-15/
REMARK  0 active torsions:
REMARK  status: ('A' for Active; 'I' for Inactive)
REMARK                            x       y       z     vdW  Elec       q    Type
REMARK                         _______ _______ _______ _____ _____    ______ ____
ROOT
ATOM      1  C   UNL A   1     -28.016  -0.814  28.878  0.00  0.00    +0.047 A 
ATOM      2  C   UNL A   1     -28.469  -0.785  29.829  0.00  0.00    +0.141 A 
ATOM      3  C   UNL A   1     -26.504  -0.778  28.877  0.00  0.00    +0.087 A 
ATOM      4  C   UNL A   1     -25.810  -0.853  30.103  0.00  0.00    +0.011 A 
ATOM      5  C   UNL A   1     -27.991  -0.892  31.226  0.00  0.00    +0.029 A 
ATOM      6  C   UNL A   1     -26.604  -0.868  31.265  0.00  0.00    +0.001 A 
ATOM      7  F   UNL A   1     -29.920  -0.833  29.824  0.00  0.00    -0.204 F 
ATOM      8  C   UNL A   1     -24.380  -0.802  30.142  0.00  0.00    +0.099 C 
ATOM      9  N   UNL A   1     -23.853   0.541  30.208  0.00  0.00    -0.265 NA
ATOM     10  C   UNL A   1     -23.316   1.158  29.142  0.00  0.00    +0.082 C 
ATOM     11  C   UNL A   1     -22.280   0.657  28.458  0.00  0.00    +0.024 C 
ATOM     12  C   UNL A   1     -24.391   1.725  28.173  0.00  0.00    +0.007 A 
ATOM     13  C   UNL A   1     -24.049   3.062  27.693  0.00  0.00    -0.002 A 
ATOM     14  C   UNL A   1     -24.511   1.353  31.263  0.00  0.00    +0.090 C 
ATOM     15  C   UNL A   1     -24.932   3.449  26.512  0.00  0.00    -0.000 A 
ATOM     16  N   UNL A   1     -25.745  -0.719  27.707  0.00  0.00    -0.146 NA
ATOM     17  C   UNL A   1     -26.230   3.079  26.598  0.00  0.00    +0.001 A 
ATOM     18  C   UNL A   1     -26.535   1.841  27.215  0.00  0.00    +0.016 A 
ATOM     19  C   UNL A   1     -25.617   1.289  28.052  0.00  0.00    +0.066 A 
ATOM     20  N   UNL A   1     -25.612   0.002  28.148  0.00  0.00    -0.206 N 
ATOM     21  C   UNL A   1     -24.230  -0.746  28.204  0.00  0.00    +0.166 C 
ATOM     22  C   UNL A   1     -23.023  -0.571  28.039  0.00  0.00    +0.041 C 
ATOM     23  N   UNL A   1     -24.192  -2.059  28.592  0.00  0.00    -0.197 NA
ATOM     24  C   UNL A   1     -23.698  -1.727  29.527  0.00  0.00    +0.111 C 
ENDROOT
TORSDOF 0
