REMARK  Name = No_3864-gen_results/8p0m/2024-11-26-14-13-15/
REMARK  3 active torsions:
REMARK  status: ('A' for Active; 'I' for Inactive)
REMARK    1  A    between atoms: C_5  and  C_10
REMARK    2  A    between atoms: C_7  and  C_17
REMARK    3  A    between atoms: C_13  and  C_14
REMARK                            x       y       z     vdW  Elec       q    Type
REMARK                         _______ _______ _______ _____ _____    ______ ____
ROOT
ATOM      1  C   UNL A   1     -28.016  -0.814  28.878  0.00  0.00    -0.029 C 
ATOM      2  C   UNL A   1     -27.064  -0.119  28.608  0.00  0.00    -0.040 C 
ATOM      3  C   UNL A   1     -25.765  -0.390  29.036  0.00  0.00    +0.021 C 
ATOM      4  C   UNL A   1     -24.552   0.406  28.765  0.00  0.00    +0.015 C 
ATOM      5  C   UNL A   1     -24.696   1.448  27.799  0.00  0.00    +0.104 C 
ATOM      6  C   UNL A   1     -25.976   1.725  27.308  0.00  0.00    +0.024 C 
ATOM      7  C   UNL A   1     -27.072   1.013  27.654  0.00  0.00    +0.095 C 
ATOM      8  C   UNL A   1     -28.604  -0.474  30.232  0.00  0.00    +0.051 C 
ATOM      9  C   UNL A   1     -29.658  -1.284  30.726  0.00  0.00    -0.019 C 
ATOM     10  C   UNL A   1     -30.028  -2.285  30.024  0.00  0.00    +0.054 C 
ATOM     11  C   UNL A   1     -25.481  -1.515  29.985  0.00  0.00    +0.034 C 
ATOM     12  C   UNL A   1     -24.384  -2.280  29.758  0.00  0.00    +0.003 C 
ATOM     13  C   UNL A   1     -25.543  -1.154  31.484  0.00  0.00    +0.003 C 
ATOM     14  C   UNL A   1     -26.627  -2.665  29.711  0.00  0.00    +0.182 C 
ATOM     15  C   UNL A   1     -26.081  -3.996  30.347  0.00  0.00    +0.182 C 
ATOM     16  C   UNL A   1     -27.025  -5.003  29.652  0.00  0.00    +0.036 C 
ATOM     17  O   UNL A   1     -26.649  -2.912  28.410  0.00  0.00    -0.220 OA
ATOM     18  C   UNL A   1     -24.412  -0.457  32.001  0.00  0.00    +0.000 C 
ATOM     19  C   UNL A   1     -24.725   0.610  32.908  0.00  0.00    +0.000 C 
ATOM     20  C   UNL A   1     -23.113  -0.890  31.767  0.00  0.00    +0.000 C 
ATOM     21  C   UNL A   1     -23.040  -1.401  30.112  0.00  0.00    +0.000 C 
ATOM     22  C   UNL A   1     -28.509  -4.465  29.886  0.00  0.00    +0.008 C 
ATOM     23  C   UNL A   1     -29.018  -3.665  30.664  0.00  0.00    +0.033 C 
ATOM     24  O   UNL A   1     -24.839  -4.256  29.767  0.00  0.00    -0.220 OA
ENDROOT
BRANCH   7  25
ATOM     25  C   UNL A   1     -28.386   1.284  27.056  0.00  0.00    +0.229 C 
ATOM     26  O   UNL A   1     -29.275   1.709  27.675  0.00  0.00    -0.275 OA
ATOM     27  N   UNL A   1     -28.462   0.967  25.730  0.00  0.00    -0.276 N 
ATOM     28  C   UNL A   1     -29.641   1.103  24.956  0.00  0.00    +0.115 C 
ATOM     29  C   UNL A   1     -27.325   0.537  24.896  0.00  0.00    +0.115 C 
ENDBRANCH   7  25
BRANCH   5  30
ATOM     30  C   UNL A   1     -23.495   2.197  27.490  0.00  0.00    +0.364 C 
ATOM     31  O   UNL A   1     -23.582   3.159  26.717  0.00  0.00    -0.246 OA
ATOM     32  O   UNL A   1     -22.237   1.690  27.632  0.00  0.00    -0.246 OA
ENDBRANCH   5  30
BRANCH  10  33
ATOM     33  C   UNL A   1     -31.271  -2.873  30.418  0.00  0.00    +0.384 C 
ATOM     34  O   UNL A   1     -31.618  -3.784  29.746  0.00  0.00    -0.241 OA
ATOM     35  O   UNL A   1     -32.084  -2.572  31.403  0.00  0.00    -0.241 OA
ENDBRANCH  10  33
TORSDOF 3
