MODEL 3864
MODEL 1
REMARK VINA RESULT:    -7.125      0.000      0.000
REMARK INTER + INTRA:          -8.479
REMARK INTER:                  -8.374
REMARK INTRA:                  -0.105
REMARK UNBOUND:                -0.105
REMARK  Name = No_3864-gen_results/8p0m/2024-11-26-14-13-15/
REMARK  3 active torsions:
REMARK  status: ('A' for Active; 'I' for Inactive)
REMARK    1  A    between atoms: C_5  and  C_10
REMARK    2  A    between atoms: C_7  and  C_17
REMARK    3  A    between atoms: C_13  and  C_14
REMARK                            x       y       z     vdW  Elec       q    Type
REMARK                         _______ _______ _______ _____ _____    ______ ____
ROOT
ATOM      1  C   UNL A   1     -30.473 -11.967  29.122  0.00  0.00    -0.029 C 
ATOM      2  C   UNL A   1     -30.747 -10.888  28.648  0.00  0.00    -0.040 C 
ATOM      3  C   UNL A   1     -30.892  -9.727  29.407  0.00  0.00    +0.021 C 
ATOM      4  C   UNL A   1     -31.235  -8.378  28.916  0.00  0.00    +0.015 C 
ATOM      5  C   UNL A   1     -31.218  -8.210  27.498  0.00  0.00    +0.104 C 
ATOM      6  C   UNL A   1     -31.031  -9.342  26.698  0.00  0.00    +0.024 C 
ATOM      7  C   UNL A   1     -30.801 -10.575  27.202  0.00  0.00    +0.095 C 
ATOM      8  C   UNL A   1     -31.700 -12.692  29.634  0.00  0.00    +0.051 C 
ATOM      9  C   UNL A   1     -31.514 -13.922  30.315  0.00  0.00    -0.019 C 
ATOM     10  C   UNL A   1     -30.319 -14.333  30.501  0.00  0.00    +0.054 C 
ATOM     11  C   UNL A   1     -30.842  -9.769  30.904  0.00  0.00    +0.034 C 
ATOM     12  C   UNL A   1     -30.168  -8.783  31.548  0.00  0.00    +0.003 C 
ATOM     13  C   UNL A   1     -32.194 -10.000  31.610  0.00  0.00    +0.003 C 
ATOM     14  C   UNL A   1     -29.858 -11.025  31.309  0.00  0.00    +0.182 C 
ATOM     15  C   UNL A   1     -29.439 -10.796  32.808  0.00  0.00    +0.182 C 
ATOM     16  C   UNL A   1     -28.240 -11.769  32.877  0.00  0.00    +0.036 C 
ATOM     17  O   UNL A   1     -28.728 -10.888  30.632  0.00  0.00    -0.220 OA
ATOM     18  C   UNL A   1     -33.054  -8.865  31.689  0.00  0.00    +0.000 C 
ATOM     19  C   UNL A   1     -34.440  -9.142  31.442  0.00  0.00    +0.000 C 
ATOM     20  C   UNL A   1     -32.599  -7.629  32.132  0.00  0.00    +0.000 C 
ATOM     21  C   UNL A   1     -31.031  -7.387  31.434  0.00  0.00    +0.000 C 
ATOM     22  C   UNL A   1     -28.764 -13.169  32.319  0.00  0.00    +0.008 C 
ATOM     23  C   UNL A   1     -29.874 -13.659  32.138  0.00  0.00    +0.033 C 
ATOM     24  O   UNL A   1     -28.844  -9.536  32.886  0.00  0.00    -0.220 OA
ENDROOT
BRANCH   7  25
ATOM     25  C   UNL A   1     -30.530 -11.725  26.330  0.00  0.00    +0.229 C 
ATOM     26  O   UNL A   1     -29.449 -12.078  26.083  0.00  0.00    -0.275 OA
ATOM     27  N   UNL A   1     -31.656 -12.310  25.826  0.00  0.00    -0.276 N 
ATOM     28  C   UNL A   1     -31.638 -13.407  24.929  0.00  0.00    +0.115 C 
ATOM     29  C   UNL A   1     -33.036 -11.960  26.210  0.00  0.00    +0.115 C 
ENDBRANCH   7  25
BRANCH   5  30
ATOM     30  C   UNL A   1     -31.501  -6.874  27.014  0.00  0.00    +0.364 C 
ATOM     31  O   UNL A   1     -32.329  -6.739  26.104  0.00  0.00    -0.246 OA
ATOM     32  O   UNL A   1     -30.647  -5.823  27.170  0.00  0.00    -0.246 OA
ENDBRANCH   5  30
BRANCH  10  33
ATOM     33  C   UNL A   1     -30.207 -15.698  30.915  0.00  0.00    +0.384 C 
ATOM     34  O   UNL A   1     -31.241 -16.235  31.120  0.00  0.00    -0.241 OA
ATOM     35  O   UNL A   1     -29.147 -16.450  31.098  0.00  0.00    -0.241 OA
ENDBRANCH  10  33
TORSDOF 3
ENDMDL
ENDMDL
