MODEL 3865
MODEL 1
REMARK VINA RESULT:    -4.286      0.000      0.000
REMARK INTER + INTRA:          -4.286
REMARK INTER:                  -4.286
REMARK INTRA:                   0.000
REMARK UNBOUND:                 0.000
REMARK  Name = No_3865-gen_results/8p0m/2024-11-26-14-13-15/
REMARK  0 active torsions:
REMARK  status: ('A' for Active; 'I' for Inactive)
REMARK                            x       y       z     vdW  Elec       q    Type
REMARK                         _______ _______ _______ _____ _____    ______ ____
ROOT
ATOM      1  C   UNL A   1     -26.383  -3.783  29.813  0.00  0.00    +0.000 A 
ATOM      2  C   UNL A   1     -26.114  -4.780  29.606  0.00  0.00    +0.000 A 
ATOM      3  C   UNL A   1     -25.368  -2.808  29.413  0.00  0.00    +0.000 A 
ATOM      4  C   UNL A   1     -24.194  -3.183  28.808  0.00  0.00    +0.000 A 
ATOM      5  C   UNL A   1     -24.974  -5.457  28.988  0.00  0.00    +0.000 A 
ATOM      6  C   UNL A   1     -23.986  -4.522  28.596  0.00  0.00    +0.000 A 
ENDROOT
TORSDOF 0
ENDMDL
ENDMDL
