MODEL 3866
MODEL 1
REMARK VINA RESULT:    -4.857      0.000      0.000
REMARK INTER + INTRA:          -4.857
REMARK INTER:                  -4.857
REMARK INTRA:                   0.000
REMARK UNBOUND:                 0.000
REMARK  Name = No_3866-gen_results/8p0m/2024-11-26-14-13-15/
REMARK  0 active torsions:
REMARK  status: ('A' for Active; 'I' for Inactive)
REMARK                            x       y       z     vdW  Elec       q    Type
REMARK                         _______ _______ _______ _____ _____    ______ ____
ROOT
ATOM      1  F   UNL A   1     -25.856  -5.400  29.047  0.00  0.00    -0.202 F 
ATOM      2  C   UNL A   1     -25.492  -4.246  29.306  0.00  0.00    +0.171 A 
ATOM      3  C   UNL A   1     -24.301  -3.804  28.866  0.00  0.00    +0.196 A 
ATOM      4  C   UNL A   1     -26.383  -3.366  30.102  0.00  0.00    +0.044 A 
ATOM      5  C   UNL A   1     -25.916  -2.071  30.495  0.00  0.00    +0.073 A 
ATOM      6  C   UNL A   1     -23.848  -2.455  29.266  0.00  0.00    +0.181 A 
ATOM      7  C   UNL A   1     -24.642  -1.618  30.057  0.00  0.00    +0.098 A 
ATOM      8 CL   UNL A   1     -24.115  -0.078  30.535  0.00  0.00    -0.079 Cl
ATOM      9 CL   UNL A   1     -26.843  -0.989  31.410  0.00  0.00    -0.081 Cl
ATOM     10  F   UNL A   1     -23.529  -4.519  28.160  0.00  0.00    -0.199 F 
ATOM     11  F   UNL A   1     -22.659  -1.985  28.857  0.00  0.00    -0.201 F 
ENDROOT
TORSDOF 0
ENDMDL
ENDMDL
