REMARK  Name = No_3866-gen_results/8p0m/2024-11-26-14-13-15/
REMARK  0 active torsions:
REMARK  status: ('A' for Active; 'I' for Inactive)
REMARK                            x       y       z     vdW  Elec       q    Type
REMARK                         _______ _______ _______ _____ _____    ______ ____
ROOT
ATOM      1  F   UNL A   1     -28.073  -1.254  28.532  0.00  0.00    -0.202 F 
ATOM      2  C   UNL A   1     -27.061  -0.629  28.872  0.00  0.00    +0.171 A 
ATOM      3  C   UNL A   1     -27.176   0.615  29.369  0.00  0.00    +0.196 A 
ATOM      4  C   UNL A   1     -25.730  -1.269  28.724  0.00  0.00    +0.044 A 
ATOM      5  C   UNL A   1     -24.553  -0.508  29.013  0.00  0.00    +0.073 A 
ATOM      6  C   UNL A   1     -25.947   1.375  29.681  0.00  0.00    +0.181 A 
ATOM      7  C   UNL A   1     -24.675   0.820  29.507  0.00  0.00    +0.098 A 
ATOM      8 CL   UNL A   1     -23.263   1.698  29.844  0.00  0.00    -0.079 Cl
ATOM      9 CL   UNL A   1     -22.986  -1.133  28.871  0.00  0.00    -0.081 Cl
ATOM     10  F   UNL A   1     -28.298   1.180  29.535  0.00  0.00    -0.199 F 
ATOM     11  F   UNL A   1     -26.022   2.625  30.166  0.00  0.00    -0.201 F 
ENDROOT
TORSDOF 0
