REMARK  Name = No_3867-gen_results/8p0m/2024-11-26-14-13-15/
REMARK  3 active torsions:
REMARK  status: ('A' for Active; 'I' for Inactive)
REMARK    1  A    between atoms: C_2  and  C_12
REMARK    2  A    between atoms: C_4  and  N_7
REMARK    3  A    between atoms: C_19  and  C_20
REMARK                            x       y       z     vdW  Elec       q    Type
REMARK                         _______ _______ _______ _____ _____    ______ ____
ROOT
ATOM      1  C   UNL A   1     -28.016  -0.814  28.878  0.00  0.00    +0.006 A 
ATOM      2  C   UNL A   1     -28.469  -0.785  29.829  0.00  0.00    +0.054 A 
ATOM      3  C   UNL A   1     -26.504  -0.778  28.877  0.00  0.00    +0.018 A 
ATOM      4  C   UNL A   1     -25.810  -0.853  30.103  0.00  0.00    +0.066 A 
ATOM      5  C   UNL A   1     -27.991  -0.892  31.226  0.00  0.00    +0.006 A 
ATOM      6  C   UNL A   1     -26.604  -0.868  31.265  0.00  0.00    +0.018 A 
ENDROOT
BRANCH   2   7
ATOM      7  C   UNL A   1     -30.082  -0.754  29.839  0.00  0.00    +0.249 C 
ATOM      8  O   UNL A   1     -30.498  -0.320  28.876  0.00  0.00    -0.270 OA
ATOM      9  N   UNL A   1     -30.809  -1.211  30.881  0.00  0.00    -0.269 N 
ATOM     10  C   UNL A   1     -32.252  -1.163  30.815  0.00  0.00    +0.094 C 
ATOM     11  C   UNL A   1     -32.825  -1.921  31.583  0.00  0.00    +0.022 C 
ATOM     12  C   UNL A   1     -32.196  -2.621  32.679  0.00  0.00    +0.004 C 
ATOM     13  C   UNL A   1     -30.791  -2.675  32.712  0.00  0.00    +0.030 C 
ATOM     14  C   UNL A   1     -30.126  -2.086  31.786  0.00  0.00    +0.167 C 
BRANCH  14  15
ATOM     15  C   UNL A   1     -28.683  -1.925  31.990  0.00  0.00    +0.328 C 
ATOM     16  O   UNL A   1     -28.160  -2.403  32.995  0.00  0.00    -0.257 OA
ATOM     17  F   UNL A   1     -28.245  -2.775  31.438  0.00  0.00    -0.162 F 
ENDBRANCH  14  15
ENDBRANCH   2   7
BRANCH   4  18
ATOM     18  N   UNL A   1     -24.486  -0.801  30.149  0.00  0.00    -0.286 N 
ATOM     19  C   UNL A   1     -23.775  -0.620  30.909  0.00  0.00    +0.183 A 
ATOM     20  N   UNL A   1     -22.345  -0.593  30.765  0.00  0.00    -0.222 NA
ATOM     21  C   UNL A   1     -23.319  -1.184  29.182  0.00  0.00    +0.102 A 
ATOM     22  C   UNL A   1     -22.163  -0.924  29.601  0.00  0.00    +0.120 A 
ENDBRANCH   4  18
TORSDOF 3
