MODEL 3867
MODEL 1
REMARK VINA RESULT:    -6.540      0.000      0.000
REMARK INTER + INTRA:          -6.637
REMARK INTER:                  -7.687
REMARK INTRA:                   1.050
REMARK UNBOUND:                 1.050
REMARK  Name = No_3867-gen_results/8p0m/2024-11-26-14-13-15/
REMARK  3 active torsions:
REMARK  status: ('A' for Active; 'I' for Inactive)
REMARK    1  A    between atoms: C_2  and  C_12
REMARK    2  A    between atoms: C_4  and  N_7
REMARK    3  A    between atoms: C_19  and  C_20
REMARK                            x       y       z     vdW  Elec       q    Type
REMARK                         _______ _______ _______ _____ _____    ______ ____
ROOT
ATOM      1  C   UNL A   1     -24.744  -0.757  30.290  0.00  0.00    +0.006 A 
ATOM      2  C   UNL A   1     -24.138  -1.206  29.553  0.00  0.00    +0.054 A 
ATOM      3  C   UNL A   1     -26.002  -1.516  30.649  0.00  0.00    +0.018 A 
ATOM      4  C   UNL A   1     -26.212  -2.801  30.107  0.00  0.00    +0.066 A 
ATOM      5  C   UNL A   1     -24.110  -2.520  28.872  0.00  0.00    +0.006 A 
ATOM      6  C   UNL A   1     -25.249  -3.249  29.183  0.00  0.00    +0.018 A 
ENDROOT
BRANCH   2   7
ATOM      7  C   UNL A   1     -22.829  -0.371  29.114  0.00  0.00    +0.249 C 
ATOM      8  O   UNL A   1     -21.910  -0.700  29.692  0.00  0.00    -0.270 OA
ATOM      9  N   UNL A   1     -22.866   0.584  28.160  0.00  0.00    -0.269 N 
ATOM     10  C   UNL A   1     -21.650   1.283  27.809  0.00  0.00    +0.094 C 
ATOM     11  C   UNL A   1     -21.670   1.826  26.715  0.00  0.00    +0.022 C 
ATOM     12  C   UNL A   1     -22.855   2.034  25.915  0.00  0.00    +0.004 C 
ATOM     13  C   UNL A   1     -24.021   1.327  26.260  0.00  0.00    +0.030 C 
ATOM     14  C   UNL A   1     -23.994   0.547  27.278  0.00  0.00    +0.167 C 
BRANCH  14  15
ATOM     15  C   UNL A   1     -25.277   0.041  27.774  0.00  0.00    +0.328 C 
ATOM     16  O   UNL A   1     -26.274   0.757  27.706  0.00  0.00    -0.257 OA
ATOM     17  F   UNL A   1     -25.693  -0.507  26.911  0.00  0.00    -0.162 F 
ENDBRANCH  14  15
ENDBRANCH   2   7
BRANCH   4  18
ATOM     18  N   UNL A   1     -27.311  -3.491  30.377  0.00  0.00    -0.286 N 
ATOM     19  C   UNL A   1     -27.615  -4.492  30.233  0.00  0.00    +0.183 A 
ATOM     20  N   UNL A   1     -28.882  -5.070  30.590  0.00  0.00    -0.222 NA
ATOM     21  C   UNL A   1     -28.606  -3.245  31.218  0.00  0.00    +0.102 A 
ATOM     22  C   UNL A   1     -29.460  -4.165  31.176  0.00  0.00    +0.120 A 
ENDBRANCH   4  18
TORSDOF 3
ENDMDL
ENDMDL
