MODEL 3868
MODEL 1
REMARK VINA RESULT:    -5.027      0.000      0.000
REMARK INTER + INTRA:          -5.027
REMARK INTER:                  -5.027
REMARK INTRA:                   0.000
REMARK UNBOUND:                 0.000
REMARK  Name = No_3868-gen_results/8p0m/2024-11-26-14-13-15/
REMARK  0 active torsions:
REMARK  status: ('A' for Active; 'I' for Inactive)
REMARK                            x       y       z     vdW  Elec       q    Type
REMARK                         _______ _______ _______ _____ _____    ______ ____
ROOT
ATOM      1  C   UNL A   1     -10.488  -9.287  19.211  0.00  0.00    +0.042 A 
ATOM      2  C   UNL A   1      -9.734  -9.102  20.137  0.00  0.00    +0.003 A 
ATOM      3  C   UNL A   1      -8.439  -9.610  20.123  0.00  0.00    +0.000 A 
ATOM      4  C   UNL A   1      -7.971 -10.413  19.023  0.00  0.00    +0.003 A 
ATOM      5  C   UNL A   1      -8.916 -10.598  18.005  0.00  0.00    +0.042 A 
ATOM      6  C   UNL A   1     -10.134 -10.110  18.075  0.00  0.00    +0.196 A 
ATOM      7  O   UNL A   1     -11.003 -10.369  17.060  0.00  0.00    -0.287 OA
ENDROOT
TORSDOF 0
ENDMDL
ENDMDL
