MODEL 3869
MODEL 1
REMARK VINA RESULT:    -6.288      0.000      0.000
REMARK INTER + INTRA:         -12.467
REMARK INTER:                  -9.596
REMARK INTRA:                  -2.871
REMARK UNBOUND:                -2.871
REMARK  Name = No_3869-gen_results/8p0m/2024-11-26-14-13-15/
REMARK  9 active torsions:
REMARK  status: ('A' for Active; 'I' for Inactive)
REMARK    1  A    between atoms: C_1  and  C_2
REMARK    2  A    between atoms: C_1  and  C_8
REMARK    3  A    between atoms: C_3  and  C_18
REMARK    4  A    between atoms: C_5  and  C_14
REMARK    5  A    between atoms: C_18  and  O_20
REMARK    6  A    between atoms: O_20  and  C_21
REMARK    7  A    between atoms: C_21  and  C_22
REMARK    8  A    between atoms: C_21  and  C_25
REMARK    9  A    between atoms: C_25  and  C_26
REMARK                            x       y       z     vdW  Elec       q    Type
REMARK                         _______ _______ _______ _____ _____    ______ ____
ROOT
ATOM      1  C   UNL A   1      -9.545   1.509  37.376  0.00  0.00    -0.015 A 
ATOM      2  C   UNL A   1     -10.437   0.759  36.634  0.00  0.00    +0.072 A 
ATOM      3  C   UNL A   1     -11.132  -0.429  37.094  0.00  0.00    +0.010 A 
ATOM      4  C   UNL A   1     -10.889  -0.894  38.405  0.00  0.00    +0.072 A 
ATOM      5  C   UNL A   1      -9.971  -0.113  39.195  0.00  0.00    +0.004 A 
ATOM      6  C   UNL A   1      -9.352   1.031  38.750  0.00  0.00    -0.004 A 
ENDROOT
BRANCH   4   7
ATOM      7  C   UNL A   1     -11.540  -2.033  38.979  0.00  0.00    +0.419 C 
ATOM      8  F   UNL A   1     -10.971  -2.568  39.920  0.00  0.00    -0.166 F 
ATOM      9  F   UNL A   1     -12.812  -1.744  39.465  0.00  0.00    -0.166 F 
ATOM     10  F   UNL A   1     -11.798  -2.992  38.035  0.00  0.00    -0.166 F 
ENDBRANCH   4   7
BRANCH   2  11
ATOM     11  C   UNL A   1     -10.736   1.074  35.235  0.00  0.00    +0.341 C 
ATOM     12  O   UNL A   1      -9.905   1.171  34.384  0.00  0.00    -0.245 OA
BRANCH  11  13
ATOM     13  O   UNL A   1     -12.026   0.734  34.863  0.00  0.00    -0.437 OA
BRANCH  13  14
ATOM     14  C   UNL A   1     -12.769   1.721  34.295  0.00  0.00    +0.275 C 
BRANCH  14  15
ATOM     15  C   UNL A   1     -12.958   1.698  33.045  0.00  0.00    +0.405 C 
ATOM     16  O   UNL A   1     -13.961   2.318  32.651  0.00  0.00    -0.242 OA
ATOM     17  O   UNL A   1     -12.284   0.956  32.196  0.00  0.00    -0.242 OA
ENDBRANCH  14  15
BRANCH  14  18
ATOM     18  C   UNL A   1     -12.894   2.867  35.125  0.00  0.00    +0.080 C 
BRANCH  18  19
ATOM     19  C   UNL A   1     -13.761   2.842  36.143  0.00  0.00    -0.014 C 
ATOM     20  C   UNL A   1     -14.901   3.334  35.941  0.00  0.00    +0.014 C 
ATOM     21  C   UNL A   1     -15.900   3.540  37.095  0.00  0.00    +0.093 C 
ATOM     22  N   UNL A   1     -15.290   3.211  38.249  0.00  0.00    -0.264 NA
ATOM     23  C   UNL A   1     -13.724   2.611  37.560  0.00  0.00    +0.148 C 
ENDBRANCH  18  19
ENDBRANCH  14  18
ENDBRANCH  13  14
ENDBRANCH  11  13
ENDBRANCH   2  11
BRANCH   1  24
ATOM     24  C   UNL A   1      -9.037   2.531  36.979  0.00  0.00    +0.034 C 
BRANCH  24  25
ATOM     25  C   UNL A   1      -9.891   3.756  37.068  0.00  0.00    +0.062 C 
ATOM     26  C   UNL A   1     -10.478   4.000  38.014  0.00  0.00    +0.008 C 
ATOM     27  C   UNL A   1     -11.303   5.313  38.103  0.00  0.00    +0.001 C 
ATOM     28  C   UNL A   1     -11.289   6.099  36.971  0.00  0.00    +0.008 C 
ATOM     29  C   UNL A   1      -9.918   4.666  35.859  0.00  0.00    +0.151 C 
ATOM     30  C   UNL A   1     -10.628   5.792  35.859  0.00  0.00    +0.065 C 
ATOM     31  O   UNL A   1      -9.410   4.382  34.653  0.00  0.00    -0.296 OA
ENDBRANCH  24  25
ENDBRANCH   1  24
TORSDOF 9
ENDMDL
ENDMDL
