REMARK  Name = No_3869-gen_results/8p0m/2024-11-26-14-13-15/
REMARK  9 active torsions:
REMARK  status: ('A' for Active; 'I' for Inactive)
REMARK    1  A    between atoms: C_1  and  C_2
REMARK    2  A    between atoms: C_1  and  C_8
REMARK    3  A    between atoms: C_3  and  C_18
REMARK    4  A    between atoms: C_5  and  C_14
REMARK    5  A    between atoms: C_18  and  O_20
REMARK    6  A    between atoms: O_20  and  C_21
REMARK    7  A    between atoms: C_21  and  C_22
REMARK    8  A    between atoms: C_21  and  C_25
REMARK    9  A    between atoms: C_25  and  C_26
REMARK                            x       y       z     vdW  Elec       q    Type
REMARK                         _______ _______ _______ _____ _____    ______ ____
ROOT
ATOM      1  C   UNL A   1     -27.064  -0.119  28.608  0.00  0.00    -0.015 A 
ATOM      2  C   UNL A   1     -27.001   0.691  27.491  0.00  0.00    +0.072 A 
ATOM      3  C   UNL A   1     -25.855   1.482  27.083  0.00  0.00    +0.010 A 
ATOM      4  C   UNL A   1     -24.690   1.453  27.881  0.00  0.00    +0.072 A 
ATOM      5  C   UNL A   1     -24.738   0.601  29.042  0.00  0.00    +0.004 A 
ATOM      6  C   UNL A   1     -25.823  -0.169  29.389  0.00  0.00    -0.004 A 
ENDROOT
BRANCH   4   7
ATOM      7  C   UNL A   1     -23.489   2.164  27.562  0.00  0.00    +0.419 C 
ATOM      8  F   UNL A   1     -23.628   3.261  27.040  0.00  0.00    -0.166 F 
ATOM      9  F   UNL A   1     -22.693   2.412  28.677  0.00  0.00    -0.166 F 
ATOM     10  F   UNL A   1     -22.658   1.417  26.770  0.00  0.00    -0.166 F 
ENDBRANCH   4   7
BRANCH   2  11
ATOM     11  C   UNL A   1     -28.153   0.881  26.606  0.00  0.00    +0.341 C 
ATOM     12  O   UNL A   1     -28.254   0.376  25.530  0.00  0.00    -0.245 OA
BRANCH  11  13
ATOM     13  O   UNL A   1     -29.309   1.231  27.283  0.00  0.00    -0.437 OA
BRANCH  13  14
ATOM     14  C   UNL A   1     -30.223   1.953  26.582  0.00  0.00    +0.275 C 
BRANCH  14  15
ATOM     15  C   UNL A   1     -30.036   3.194  26.435  0.00  0.00    +0.405 C 
ATOM     16  O   UNL A   1     -30.536   3.686  25.408  0.00  0.00    -0.242 OA
ATOM     17  O   UNL A   1     -29.241   3.928  27.180  0.00  0.00    -0.242 OA
ENDBRANCH  14  15
BRANCH  14  18
ATOM     18  C   UNL A   1     -31.472   1.288  26.455  0.00  0.00    +0.080 C 
BRANCH  18  19
ATOM     19  C   UNL A   1     -31.697   0.524  25.381  0.00  0.00    -0.014 C 
ATOM     20  C   UNL A   1     -31.933  -0.695  25.579  0.00  0.00    +0.014 C 
ATOM     21  C   UNL A   1     -32.005  -1.697  24.412  0.00  0.00    +0.093 C 
ATOM     22  N   UNL A   1     -31.680  -1.051  23.276  0.00  0.00    -0.264 NA
ATOM     23  C   UNL A   1     -31.526   0.622  23.958  0.00  0.00    +0.148 C 
ENDBRANCH  18  19
ENDBRANCH  14  18
ENDBRANCH  13  14
ENDBRANCH  11  13
ENDBRANCH   2  11
BRANCH   1  24
ATOM     24  C   UNL A   1     -28.016  -0.814  28.878  0.00  0.00    +0.034 C 
BRANCH  24  25
ATOM     25  C   UNL A   1     -28.735  -0.464  30.142  0.00  0.00    +0.062 C 
ATOM     26  C   UNL A   1     -28.783   0.612  30.517  0.00  0.00    +0.008 C 
ATOM     27  C   UNL A   1     -29.593   0.957  31.796  0.00  0.00    +0.001 C 
ATOM     28  C   UNL A   1     -30.190  -0.114  32.426  0.00  0.00    +0.008 C 
ATOM     29  C   UNL A   1     -29.417  -1.594  30.883  0.00  0.00    +0.151 C 
ATOM     30  C   UNL A   1     -30.103  -1.371  32.001  0.00  0.00    +0.065 C 
ATOM     31  O   UNL A   1     -29.273  -2.900  30.623  0.00  0.00    -0.296 OA
ENDBRANCH  24  25
ENDBRANCH   1  24
TORSDOF 9
