MODEL 386
MODEL 1
REMARK VINA RESULT:    -4.256      0.000      0.000
REMARK INTER + INTRA:          -4.256
REMARK INTER:                  -4.256
REMARK INTRA:                   0.000
REMARK UNBOUND:                 0.000
REMARK  Name = No_386-gen_results/8p0m/2024-11-26-14-13-15/
REMARK  0 active torsions:
REMARK  status: ('A' for Active; 'I' for Inactive)
REMARK                            x       y       z     vdW  Elec       q    Type
REMARK                         _______ _______ _______ _____ _____    ______ ____
ROOT
ATOM      1 CL   UNL A   1     -24.582  -1.126  29.072  0.00  0.00    -0.082 Cl
ATOM      2  C   UNL A   1     -24.926  -2.518  29.230  0.00  0.00    +0.058 A 
ATOM      3  C   UNL A   1     -25.899  -2.984  29.703  0.00  0.00    +0.011 A 
ATOM      4  C   UNL A   1     -26.177  -4.382  29.610  0.00  0.00    +0.001 A 
ATOM      5  C   UNL A   1     -25.207  -5.310  29.133  0.00  0.00    +0.000 A 
ATOM      6  C   UNL A   1     -24.092  -4.752  28.601  0.00  0.00    +0.001 A 
ATOM      7  C   UNL A   1     -23.910  -3.435  28.621  0.00  0.00    +0.011 A 
ENDROOT
TORSDOF 0
ENDMDL
ENDMDL
