REMARK  Name = No_387-gen_results/8p0m/2024-11-26-14-13-15/
REMARK  1 active torsions:
REMARK  status: ('A' for Active; 'I' for Inactive)
REMARK    1  A    between atoms: C_3  and  N_10
REMARK                            x       y       z     vdW  Elec       q    Type
REMARK                         _______ _______ _______ _____ _____    ______ ____
ROOT
ATOM      1  F   UNL A   1     -28.073  -1.254  28.532  0.00  0.00    -0.203 F 
ATOM      2  C   UNL A   1     -27.061  -0.629  28.872  0.00  0.00    +0.156 A 
ATOM      3  C   UNL A   1     -27.176   0.615  29.369  0.00  0.00    +0.077 A 
ATOM      4  C   UNL A   1     -25.730  -1.269  28.724  0.00  0.00    +0.061 A 
ATOM      5  C   UNL A   1     -24.553  -0.508  29.013  0.00  0.00    +0.153 A 
ATOM      6  C   UNL A   1     -25.947   1.375  29.681  0.00  0.00    +0.030 A 
ATOM      7  C   UNL A   1     -24.675   0.820  29.507  0.00  0.00    +0.086 A 
ATOM      8 CL   UNL A   1     -23.263   1.698  29.844  0.00  0.00    -0.080 Cl
ATOM      9  F   UNL A   1     -23.330  -0.980  28.899  0.00  0.00    -0.203 F 
ENDROOT
BRANCH   3  10
ATOM     10  N   UNL A   1     -28.346   1.202  29.554  0.00  0.00    -0.306 N 
ATOM     11  C   UNL A   1     -28.993   1.821  28.554  0.00  0.00    +0.091 C 
ATOM     12  C   UNL A   1     -30.312   2.217  28.759  0.00  0.00    +0.021 C 
ATOM     13  C   UNL A   1     -28.977   1.033  30.797  0.00  0.00    +0.091 C 
ATOM     14  C   UNL A   1     -30.289   1.469  31.045  0.00  0.00    +0.021 C 
ATOM     15  C   UNL A   1     -30.915   2.143  29.992  0.00  0.00    +0.004 C 
ENDBRANCH   3  10
TORSDOF 1
