MODEL 3870
MODEL 1
REMARK VINA RESULT:    -5.317      0.000      0.000
REMARK INTER + INTRA:          -5.644
REMARK INTER:                  -5.628
REMARK INTRA:                  -0.015
REMARK UNBOUND:                -0.015
REMARK  Name = No_3870-gen_results/8p0m/2024-11-26-14-13-15/
REMARK  1 active torsions:
REMARK  status: ('A' for Active; 'I' for Inactive)
REMARK    1  A    between atoms: C_10  and  O_14
REMARK                            x       y       z     vdW  Elec       q    Type
REMARK                         _______ _______ _______ _____ _____    ______ ____
ROOT
ATOM      1  C   UNL A   1     -23.121  -0.515  28.360  0.00  0.00    +0.011 A 
ATOM      2  C   UNL A   1     -23.433   0.489  28.438  0.00  0.00    +0.058 A 
ATOM      3  C   UNL A   1     -24.055  -1.466  28.962  0.00  0.00    +0.005 A 
ATOM      4  C   UNL A   1     -25.229  -1.064  29.549  0.00  0.00    +0.036 A 
ATOM      5  C   UNL A   1     -24.594   1.191  28.984  0.00  0.00    +0.011 A 
ATOM      6  C   UNL A   1     -25.504   0.279  29.569  0.00  0.00    +0.004 A 
ATOM      7  C   UNL A   1     -23.965  -2.969  29.065  0.00  0.00    +0.014 A 
ATOM      8  C   UNL A   1     -24.804  -3.758  28.997  0.00  0.00    +0.088 A 
ATOM      9  C   UNL A   1     -26.166  -3.293  29.548  0.00  0.00    +0.184 A 
ATOM     10  C   UNL A   1     -26.379  -1.943  29.674  0.00  0.00    +0.167 A 
ATOM     11  F   UNL A   1     -27.073  -4.259  29.755  0.00  0.00    -0.200 F 
ATOM     12 CL   UNL A   1     -22.242   1.784  27.807  0.00  0.00    -0.082 Cl
ATOM     13 CL   UNL A   1     -24.647  -5.476  28.993  0.00  0.00    -0.080 Cl
ENDROOT
BRANCH  10  14
ATOM     14  O   UNL A   1     -27.590  -1.520  30.095  0.00  0.00    -0.469 OA
ATOM     15  C   UNL A   1     -27.795  -1.618  31.482  0.00  0.00    +0.253 C 
ENDBRANCH  10  14
TORSDOF 1
ENDMDL
ENDMDL
