REMARK  Name = No_3870-gen_results/8p0m/2024-11-26-14-13-15/
REMARK  1 active torsions:
REMARK  status: ('A' for Active; 'I' for Inactive)
REMARK    1  A    between atoms: C_10  and  O_14
REMARK                            x       y       z     vdW  Elec       q    Type
REMARK                         _______ _______ _______ _____ _____    ______ ____
ROOT
ATOM      1  C   UNL A   1     -28.016  -0.814  28.878  0.00  0.00    +0.011 A 
ATOM      2  C   UNL A   1     -28.469  -0.785  29.829  0.00  0.00    +0.058 A 
ATOM      3  C   UNL A   1     -27.087   0.290  28.638  0.00  0.00    +0.005 A 
ATOM      4  C   UNL A   1     -26.832   1.249  29.587  0.00  0.00    +0.036 A 
ATOM      5  C   UNL A   1     -28.391   0.080  31.006  0.00  0.00    +0.011 A 
ATOM      6  C   UNL A   1     -27.494   1.152  30.784  0.00  0.00    +0.004 A 
ATOM      7  C   UNL A   1     -26.260   0.604  27.415  0.00  0.00    +0.014 A 
ATOM      8  C   UNL A   1     -25.197   1.046  27.345  0.00  0.00    +0.088 A 
ATOM      9  C   UNL A   1     -24.844   2.044  28.464  0.00  0.00    +0.184 A 
ATOM     10  C   UNL A   1     -25.597   2.013  29.612  0.00  0.00    +0.167 A 
ATOM     11  F   UNL A   1     -23.749   2.790  28.258  0.00  0.00    -0.200 F 
ATOM     12 CL   UNL A   1     -29.765  -2.086  30.176  0.00  0.00    -0.082 Cl
ATOM     13 CL   UNL A   1     -24.234   1.274  25.931  0.00  0.00    -0.080 Cl
ENDROOT
BRANCH  10  14
ATOM     14  O   UNL A   1     -25.259   2.838  30.625  0.00  0.00    -0.469 OA
ATOM     15  C   UNL A   1     -24.342   2.296  31.542  0.00  0.00    +0.253 C 
ENDBRANCH  10  14
TORSDOF 1
