REMARK  Name = No_3871-gen_results/8p0m/2024-11-26-14-13-15/
REMARK  3 active torsions:
REMARK  status: ('A' for Active; 'I' for Inactive)
REMARK    1  A    between atoms: C_2  and  C_5
REMARK    2  A    between atoms: C_3  and  C_11
REMARK    3  A    between atoms: C_11  and  C_12
REMARK                            x       y       z     vdW  Elec       q    Type
REMARK                         _______ _______ _______ _____ _____    ______ ____
ROOT
ATOM      1  C   UNL A   1     -28.016  -0.814  28.878  0.00  0.00    +0.008 A 
ATOM      2  C   UNL A   1     -28.469  -0.785  29.829  0.00  0.00    +0.055 A 
ATOM      3  C   UNL A   1     -27.087   0.290  28.638  0.00  0.00    +0.039 A 
ATOM      4  C   UNL A   1     -26.832   1.249  29.587  0.00  0.00    +0.003 A 
ATOM      5  C   UNL A   1     -27.496   1.130  30.822  0.00  0.00    +0.000 A 
ATOM      6  C   UNL A   1     -28.338   0.036  31.033  0.00  0.00    +0.005 A 
ENDROOT
BRANCH   2   7
ATOM      7  C   UNL A   1     -29.444  -1.948  30.184  0.00  0.00    +0.265 C 
ATOM      8  O   UNL A   1     -29.155  -3.143  30.222  0.00  0.00    -0.268 OA
ATOM      9  N   UNL A   1     -30.794  -1.690  30.482  0.00  0.00    -0.200 NA
ATOM     10  C   UNL A   1     -31.709  -2.732  30.712  0.00  0.00    +0.139 C 
ENDBRANCH   2   7
BRANCH   3  11
ATOM     11  C   UNL A   1     -26.323   0.425  27.339  0.00  0.00    +0.196 C 
ATOM     12  O   UNL A   1     -26.990  -0.061  26.286  0.00  0.00    -0.287 OA
BRANCH  11  13
ATOM     13  C   UNL A   1     -25.153   0.850  27.214  0.00  0.00    +0.039 A 
ATOM     14  C   UNL A   1     -24.138   0.711  28.167  0.00  0.00    +0.003 A 
ATOM     15  C   UNL A   1     -22.877   1.307  27.976  0.00  0.00    +0.000 A 
ATOM     16  C   UNL A   1     -22.630   2.026  26.809  0.00  0.00    +0.000 A 
ATOM     17  C   UNL A   1     -24.802   1.664  26.054  0.00  0.00    +0.003 A 
ATOM     18  C   UNL A   1     -23.538   2.206  25.869  0.00  0.00    +0.000 A 
ENDBRANCH  11  13
ENDBRANCH   3  11
TORSDOF 3
