MODEL 3871
MODEL 1
REMARK VINA RESULT:    -7.052      0.000      0.000
REMARK INTER + INTRA:          -9.026
REMARK INTER:                  -8.288
REMARK INTRA:                  -0.738
REMARK UNBOUND:                -0.738
REMARK  Name = No_3871-gen_results/8p0m/2024-11-26-14-13-15/
REMARK  3 active torsions:
REMARK  status: ('A' for Active; 'I' for Inactive)
REMARK    1  A    between atoms: C_2  and  C_5
REMARK    2  A    between atoms: C_3  and  C_11
REMARK    3  A    between atoms: C_11  and  C_12
REMARK                            x       y       z     vdW  Elec       q    Type
REMARK                         _______ _______ _______ _____ _____    ______ ____
ROOT
ATOM      1  C   UNL A   1     -24.579   0.026  27.607  0.00  0.00    +0.008 A 
ATOM      2  C   UNL A   1     -24.319   0.809  26.951  0.00  0.00    +0.055 A 
ATOM      3  C   UNL A   1     -23.530  -0.301  28.573  0.00  0.00    +0.039 A 
ATOM      4  C   UNL A   1     -22.337   0.377  28.613  0.00  0.00    +0.003 A 
ATOM      5  C   UNL A   1     -22.155   1.420  27.686  0.00  0.00    +0.000 A 
ATOM      6  C   UNL A   1     -23.197   1.737  26.812  0.00  0.00    +0.005 A 
ENDROOT
BRANCH   2   7
ATOM      7  C   UNL A   1     -25.396   1.250  25.915  0.00  0.00    +0.265 C 
ATOM      8  O   UNL A   1     -25.621   2.406  25.558  0.00  0.00    -0.268 OA
ATOM      9  N   UNL A   1     -26.236   0.303  25.301  0.00  0.00    -0.200 NA
ATOM     10  C   UNL A   1     -27.274   0.690  24.436  0.00  0.00    +0.139 C 
ENDBRANCH   2   7
BRANCH   3  11
ATOM     11  C   UNL A   1     -23.709  -1.387  29.611  0.00  0.00    +0.196 C 
ATOM     12  O   UNL A   1     -22.963  -1.194  30.705  0.00  0.00    -0.287 OA
BRANCH  11  13
ATOM     13  C   UNL A   1     -24.394  -2.426  29.479  0.00  0.00    +0.039 A 
ATOM     14  C   UNL A   1     -25.695  -2.602  29.962  0.00  0.00    +0.003 A 
ATOM     15  C   UNL A   1     -26.350  -3.843  29.848  0.00  0.00    +0.000 A 
ATOM     16  C   UNL A   1     -25.700  -4.904  29.222  0.00  0.00    +0.000 A 
ATOM     17  C   UNL A   1     -23.790  -3.616  28.887  0.00  0.00    +0.003 A 
ATOM     18  C   UNL A   1     -24.472  -4.817  28.748  0.00  0.00    +0.000 A 
ENDBRANCH  11  13
ENDBRANCH   3  11
TORSDOF 3
ENDMDL
ENDMDL
