REMARK  Name = No_3872-gen_results/8p0m/2024-11-26-14-13-15/
REMARK  1 active torsions:
REMARK  status: ('A' for Active; 'I' for Inactive)
REMARK    1  A    between atoms: C_5  and  C_7
REMARK                            x       y       z     vdW  Elec       q    Type
REMARK                         _______ _______ _______ _____ _____    ______ ____
ROOT
ATOM      1  N   UNL A   1     -28.054  -1.050  28.725  0.00  0.00    -0.232 NA
ATOM      2  C   UNL A   1     -26.966  -0.472  28.771  0.00  0.00    +0.138 A 
ATOM      3  C   UNL A   1     -26.549   0.388  27.831  0.00  0.00    +0.031 A 
ATOM      4  C   UNL A   1     -27.476   0.726  26.767  0.00  0.00    +0.009 A 
ATOM      5  C   UNL A   1     -28.698   0.168  26.868  0.00  0.00    +0.076 A 
ATOM      6  C   UNL A   1     -28.997  -0.597  27.909  0.00  0.00    +0.104 A 
ATOM      7 CL   UNL A   1     -25.752  -0.955  30.010  0.00  0.00    -0.061 Cl
ENDROOT
BRANCH   5   8
ATOM      8  C   UNL A   1     -29.646   0.543  25.802  0.00  0.00    +0.286 C 
ATOM      9  N   UNL A   1     -29.280   0.722  24.637  0.00  0.00    -0.084 NA
ATOM     10  O   UNL A   1     -30.791   0.023  25.997  0.00  0.00    -0.267 OA
ENDBRANCH   5   8
TORSDOF 1
