REMARK  Name = No_3873-gen_results/8p0m/2024-11-26-14-13-15/
REMARK  6 active torsions:
REMARK  status: ('A' for Active; 'I' for Inactive)
REMARK    1  A    between atoms: C_2  and  C_5
REMARK    2  A    between atoms: C_10  and  C_14
REMARK    3  A    between atoms: C_14  and  O_16
REMARK    4  A    between atoms: O_16  and  C_17
REMARK    5  A    between atoms: C_17  and  C_18
REMARK    6  A    between atoms: C_19  and  C_20
REMARK                            x       y       z     vdW  Elec       q    Type
REMARK                         _______ _______ _______ _____ _____    ______ ____
ROOT
ATOM      1  C   UNL A   1     -28.016  -0.814  28.878  0.00  0.00    +0.007 A 
ATOM      2  C   UNL A   1     -28.469  -0.785  29.829  0.00  0.00    +0.080 A 
ATOM      3  C   UNL A   1     -27.136   0.236  28.535  0.00  0.00    +0.000 A 
ATOM      4  C   UNL A   1     -26.335   0.290  27.284  0.00  0.00    +0.000 A 
ATOM      5  C   UNL A   1     -28.230   0.301  30.904  0.00  0.00    +0.007 A 
ATOM      6  C   UNL A   1     -25.380   1.274  27.067  0.00  0.00    +0.006 A 
ATOM      7  C   UNL A   1     -27.415   1.311  30.614  0.00  0.00    +0.000 A 
ATOM      8  C   UNL A   1     -26.745   1.318  29.404  0.00  0.00    +0.000 A 
ATOM      9  C   UNL A   1     -25.164   2.320  27.982  0.00  0.00    +0.076 A 
ATOM     10  C   UNL A   1     -25.810   2.345  29.104  0.00  0.00    +0.006 A 
ENDROOT
BRANCH   2  11
ATOM     11  C   UNL A   1     -29.381  -1.913  30.355  0.00  0.00    +0.388 C 
ATOM     12  O   UNL A   1     -29.865  -1.812  31.475  0.00  0.00    -0.241 OA
ATOM     13  O   UNL A   1     -29.467  -2.935  29.695  0.00  0.00    -0.241 OA
ENDBRANCH   2  11
BRANCH   9  14
ATOM     14  C   UNL A   1     -24.124   3.334  27.535  0.00  0.00    +0.342 C 
ATOM     15  O   UNL A   1     -23.401   3.128  26.465  0.00  0.00    -0.245 OA
BRANCH  14  16
ATOM     16  O   UNL A   1     -24.432   4.661  27.760  0.00  0.00    -0.440 OA
BRANCH  16  17
ATOM     17  C   UNL A   1     -25.673   5.165  27.392  0.00  0.00    +0.235 C 
BRANCH  17  18
ATOM     18  C   UNL A   1     -25.707   6.524  27.804  0.00  0.00    +0.021 C 
ATOM     19  C   UNL A   1     -24.752   7.231  28.139  0.00  0.00    -0.001 C 
BRANCH  19  20
ATOM     20  C   UNL A   1     -24.799   8.649  28.603  0.00  0.00    -0.000 A 
ATOM     21  C   UNL A   1     -23.687   9.362  29.085  0.00  0.00    -0.000 A 
ATOM     22  C   UNL A   1     -23.707  10.219  30.142  0.00  0.00    -0.000 A 
ATOM     23  C   UNL A   1     -25.017  10.686  30.514  0.00  0.00    -0.000 A 
ATOM     24  C   UNL A   1     -26.122  10.094  30.028  0.00  0.00    -0.000 A 
ATOM     25  C   UNL A   1     -26.069   9.029  29.161  0.00  0.00    -0.000 A 
ENDBRANCH  19  20
ENDBRANCH  17  18
ENDBRANCH  16  17
ENDBRANCH  14  16
ENDBRANCH   9  14
TORSDOF 6
