MODEL 3873
MODEL 1
REMARK VINA RESULT:    -7.514      0.000      0.000
REMARK INTER + INTRA:         -11.187
REMARK INTER:                 -10.150
REMARK INTRA:                  -1.037
REMARK UNBOUND:                -1.037
REMARK  Name = No_3873-gen_results/8p0m/2024-11-26-14-13-15/
REMARK  6 active torsions:
REMARK  status: ('A' for Active; 'I' for Inactive)
REMARK    1  A    between atoms: C_2  and  C_5
REMARK    2  A    between atoms: C_10  and  C_14
REMARK    3  A    between atoms: C_14  and  O_16
REMARK    4  A    between atoms: O_16  and  C_17
REMARK    5  A    between atoms: C_17  and  C_18
REMARK    6  A    between atoms: C_19  and  C_20
REMARK                            x       y       z     vdW  Elec       q    Type
REMARK                         _______ _______ _______ _____ _____    ______ ____
ROOT
ATOM      1  C   UNL A   1     -15.723   3.339  36.949  0.00  0.00    +0.007 A 
ATOM      2  C   UNL A   1     -15.729   3.352  38.003  0.00  0.00    +0.080 A 
ATOM      3  C   UNL A   1     -14.487   3.129  36.300  0.00  0.00    +0.000 A 
ATOM      4  C   UNL A   1     -14.322   2.974  34.830  0.00  0.00    +0.000 A 
ATOM      5  C   UNL A   1     -14.496   3.129  38.910  0.00  0.00    +0.007 A 
ATOM      6  C   UNL A   1     -13.105   2.626  34.262  0.00  0.00    +0.006 A 
ATOM      7  C   UNL A   1     -13.313   2.937  38.334  0.00  0.00    +0.000 A 
ATOM      8  C   UNL A   1     -13.232   2.858  36.956  0.00  0.00    +0.000 A 
ATOM      9  C   UNL A   1     -11.938   2.471  35.032  0.00  0.00    +0.076 A 
ATOM     10  C   UNL A   1     -11.992   2.576  36.321  0.00  0.00    +0.006 A 
ENDROOT
BRANCH   2  11
ATOM     11  C   UNL A   1     -17.024   3.488  38.830  0.00  0.00    +0.388 C 
ATOM     12  O   UNL A   1     -17.479   4.604  39.043  0.00  0.00    -0.241 OA
ATOM     13  O   UNL A   1     -17.467   2.487  39.369  0.00  0.00    -0.241 OA
ENDBRANCH   2  11
BRANCH   9  14
ATOM     14  C   UNL A   1     -10.693   2.154  34.220  0.00  0.00    +0.342 C 
ATOM     15  O   UNL A   1      -9.856   3.098  33.877  0.00  0.00    -0.245 OA
BRANCH  14  16
ATOM     16  O   UNL A   1     -10.096   0.935  34.473  0.00  0.00    -0.440 OA
BRANCH  16  17
ATOM     17  C   UNL A   1      -8.963   0.862  35.274  0.00  0.00    +0.235 C 
BRANCH  17  18
ATOM     18  C   UNL A   1      -9.236  -0.090  36.292  0.00  0.00    +0.021 C 
ATOM     19  C   UNL A   1     -10.331  -0.358  36.794  0.00  0.00    -0.001 C 
BRANCH  19  20
ATOM     20  C   UNL A   1     -10.606  -1.336  37.888  0.00  0.00    -0.000 A 
ATOM     21  C   UNL A   1     -11.550  -2.375  37.803  0.00  0.00    -0.000 A 
ATOM     22  C   UNL A   1     -12.380  -2.760  38.810  0.00  0.00    -0.000 A 
ATOM     23  C   UNL A   1     -11.979  -2.323  40.122  0.00  0.00    -0.000 A 
ATOM     24  C   UNL A   1     -11.028  -1.386  40.273  0.00  0.00    -0.000 A 
ATOM     25  C   UNL A   1     -10.390  -0.801  39.205  0.00  0.00    -0.000 A 
ENDBRANCH  19  20
ENDBRANCH  17  18
ENDBRANCH  16  17
ENDBRANCH  14  16
ENDBRANCH   9  14
TORSDOF 6
ENDMDL
ENDMDL
