REMARK  Name = No_3874-gen_results/8p0m/2024-11-26-14-13-15/
REMARK  8 active torsions:
REMARK  status: ('A' for Active; 'I' for Inactive)
REMARK    1  A    between atoms: C_3  and  C_11
REMARK    2  A    between atoms: C_7  and  C_8
REMARK    3  A    between atoms: C_15  and  C_17
REMARK    4  A    between atoms: C_17  and  O_19
REMARK    5  A    between atoms: O_19  and  C_20
REMARK    6  A    between atoms: C_20  and  C_21
REMARK    7  A    between atoms: C_20  and  C_24
REMARK    8  A    between atoms: C_24  and  C_25
REMARK                            x       y       z     vdW  Elec       q    Type
REMARK                         _______ _______ _______ _____ _____    ______ ____
ROOT
ATOM      1  C   UNL A   1     -30.181   3.835  30.024  0.00  0.00    +0.342 C 
ATOM      2  O   UNL A   1     -30.122   4.220  29.003  0.00  0.00    -0.245 OA
ENDROOT
BRANCH   1   7
ATOM      3  C   UNL A   1     -28.202   0.661  30.356  0.00  0.00    -0.014 A 
ATOM      4  C   UNL A   1     -28.810   0.043  31.231  0.00  0.00    -0.004 A 
ATOM      5  C   UNL A   1     -30.042   0.559  31.881  0.00  0.00    -0.000 A 
ATOM      6  C   UNL A   1     -30.485   1.809  31.449  0.00  0.00    +0.006 A 
ATOM      7  C   UNL A   1     -29.757   2.470  30.467  0.00  0.00    +0.075 A 
ATOM      8  C   UNL A   1     -28.568   1.972  29.936  0.00  0.00    +0.003 A 
BRANCH   3  11
ATOM      9  O   UNL A   1     -28.123  -1.335  28.487  0.00  0.00    -0.273 OA
ATOM     10  C   UNL A   1     -27.064  -0.824  28.869  0.00  0.00    +0.245 C 
ATOM     11  C   UNL A   1     -26.959   0.093  29.758  0.00  0.00    +0.101 C 
ATOM     12  N   UNL A   1     -25.801  -1.357  28.397  0.00  0.00    -0.205 NA
ATOM     13  C   UNL A   1     -25.737   0.724  30.210  0.00  0.00    +0.027 C 
ATOM     14  C   UNL A   1     -24.549  -0.860  28.787  0.00  0.00    +0.126 C 
ATOM     15  C   UNL A   1     -24.515   0.188  29.698  0.00  0.00    +0.126 C 
BRANCH  15  16
ATOM     16  C   UNL A   1     -23.221   0.733  30.047  0.00  0.00    +0.366 C 
ATOM     17  O   UNL A   1     -22.149   0.110  29.718  0.00  0.00    -0.246 OA
ATOM     18  O   UNL A   1     -23.134   1.523  31.088  0.00  0.00    -0.246 OA
ENDBRANCH  15  16
ENDBRANCH   3  11
ENDBRANCH   1   7
BRANCH   1  19
ATOM     19  O   UNL A   1     -30.933   4.489  31.014  0.00  0.00    -0.437 OA
BRANCH  19  20
ATOM     20  C   UNL A   1     -31.047   5.810  30.893  0.00  0.00    +0.275 C 
BRANCH  20  21
ATOM     21  C   UNL A   1     -30.134   6.599  31.355  0.00  0.00    +0.405 C 
ATOM     22  O   UNL A   1     -29.619   6.316  32.408  0.00  0.00    -0.242 OA
ATOM     23  O   UNL A   1     -29.722   7.622  30.698  0.00  0.00    -0.242 OA
ENDBRANCH  20  21
BRANCH  20  24
ATOM     24  C   UNL A   1     -32.424   6.151  31.589  0.00  0.00    +0.082 C 
BRANCH  24  25
ATOM     25  C   UNL A   1     -32.599   6.036  32.852  0.00  0.00    -0.018 A 
ATOM     26  C   UNL A   1     -33.900   6.230  33.378  0.00  0.00    -0.004 A 
ATOM     27  C   UNL A   1     -34.099   6.117  34.791  0.00  0.00    +0.002 A 
ATOM     28  C   UNL A   1     -35.348   6.326  35.405  0.00  0.00    +0.030 A 
ATOM     29  C   UNL A   1     -36.420   6.551  34.550  0.00  0.00    +0.140 A 
ATOM     30  C   UNL A   1     -36.225   6.614  33.179  0.00  0.00    +0.030 A 
ATOM     31  C   UNL A   1     -34.958   6.438  32.586  0.00  0.00    +0.002 A 
ATOM     32  F   UNL A   1     -37.615   6.764  35.008  0.00  0.00    -0.204 F 
ATOM     33  C   UNL A   1     -32.816   5.737  35.499  0.00  0.00    +0.000 A 
ATOM     34  C   UNL A   1     -31.656   5.544  34.938  0.00  0.00    -0.000 A 
ATOM     35  C   UNL A   1     -31.522   5.659  33.734  0.00  0.00    -0.004 A 
ENDBRANCH  24  25
ENDBRANCH  20  24
ENDBRANCH  19  20
ENDBRANCH   1  19
TORSDOF 8
