MODEL 3875
MODEL 1
REMARK VINA RESULT:    -6.457      0.000      0.000
REMARK INTER + INTRA:         -11.075
REMARK INTER:                  -8.721
REMARK INTRA:                  -2.353
REMARK UNBOUND:                -2.353
REMARK  Name = No_3875-gen_results/8p0m/2024-11-26-14-13-15/
REMARK  6 active torsions:
REMARK  status: ('A' for Active; 'I' for Inactive)
REMARK    1  A    between atoms: C_2  and  C_13
REMARK    2  A    between atoms: C_4  and  C_7
REMARK    3  A    between atoms: C_13  and  O_14
REMARK    4  A    between atoms: O_14  and  C_16
REMARK    5  A    between atoms: C_16  and  C_17
REMARK    6  A    between atoms: C_17  and  N_19
REMARK                            x       y       z     vdW  Elec       q    Type
REMARK                         _______ _______ _______ _____ _____    ______ ____
ROOT
ATOM      1  C   UNL A   1     -29.239 -10.460  32.635  0.00  0.00    +0.006 A 
ATOM      2  C   UNL A   1     -28.476 -11.176  32.758  0.00  0.00    +0.076 A 
ATOM      3  C   UNL A   1     -29.726 -10.245  31.264  0.00  0.00    +0.000 A 
ATOM      4  C   UNL A   1     -29.274 -11.074  30.196  0.00  0.00    +0.000 A 
ATOM      5  C   UNL A   1     -27.884 -12.192  31.845  0.00  0.00    +0.006 A 
ATOM      6  C   UNL A   1     -28.304 -12.018  30.560  0.00  0.00    +0.000 A 
ENDROOT
BRANCH   4   7
ATOM      7  C   UNL A   1     -29.721 -10.914  28.852  0.00  0.00    +0.000 A 
ATOM      8  C   UNL A   1     -30.512 -10.369  28.502  0.00  0.00    +0.000 A 
ATOM      9  C   UNL A   1     -31.120 -10.280  27.108  0.00  0.00    +0.000 A 
ATOM     10  C   UNL A   1     -30.520 -11.146  26.256  0.00  0.00    +0.000 A 
ATOM     11  C   UNL A   1     -29.483 -12.013  26.620  0.00  0.00    +0.000 A 
ATOM     12  C   UNL A   1     -29.031 -11.910  27.987  0.00  0.00    +0.000 A 
ENDBRANCH   4   7
BRANCH   2  13
ATOM     13  C   UNL A   1     -27.832 -11.553  34.206  0.00  0.00    +0.341 C 
ATOM     14  O   UNL A   1     -26.864 -10.872  34.729  0.00  0.00    -0.245 OA
BRANCH  13  15
ATOM     15  O   UNL A   1     -28.269 -12.472  34.733  0.00  0.00    -0.443 OA
BRANCH  15  16
ATOM     16  C   UNL A   1     -29.613 -12.712  35.074  0.00  0.00    +0.241 C 
BRANCH  16  17
ATOM     17  C   UNL A   1     -30.076 -13.840  34.659  0.00  0.00    +0.183 C 
ATOM     18 CL   UNL A   1     -31.099 -14.724  35.593  0.00  0.00    -0.093 Cl
BRANCH  17  19
ATOM     19  N   UNL A   1     -30.788 -13.767  33.307  0.00  0.00    -0.258 NA
ATOM     20  C   UNL A   1     -30.415 -14.547  32.267  0.00  0.00    +0.073 C 
ATOM     21  C   UNL A   1     -31.800 -12.822  33.086  0.00  0.00    +0.073 C 
ATOM     22  C   UNL A   1     -32.378 -12.760  31.809  0.00  0.00    +0.017 C 
ATOM     23  C   UNL A   1     -31.049 -14.443  30.980  0.00  0.00    +0.017 C 
ATOM     24  C   UNL A   1     -32.009 -13.572  30.782  0.00  0.00    +0.003 C 
ENDBRANCH  17  19
ENDBRANCH  16  17
ENDBRANCH  15  16
ENDBRANCH  13  15
ENDBRANCH   2  13
TORSDOF 6
ENDMDL
ENDMDL
