REMARK  Name = No_3875-gen_results/8p0m/2024-11-26-14-13-15/
REMARK  6 active torsions:
REMARK  status: ('A' for Active; 'I' for Inactive)
REMARK    1  A    between atoms: C_2  and  C_13
REMARK    2  A    between atoms: C_4  and  C_7
REMARK    3  A    between atoms: C_13  and  O_14
REMARK    4  A    between atoms: O_14  and  C_16
REMARK    5  A    between atoms: C_16  and  C_17
REMARK    6  A    between atoms: C_17  and  N_19
REMARK                            x       y       z     vdW  Elec       q    Type
REMARK                         _______ _______ _______ _____ _____    ______ ____
ROOT
ATOM      1  C   UNL A   1     -28.016  -0.814  28.878  0.00  0.00    +0.006 A 
ATOM      2  C   UNL A   1     -28.469  -0.785  29.829  0.00  0.00    +0.076 A 
ATOM      3  C   UNL A   1     -26.546  -0.876  28.850  0.00  0.00    +0.000 A 
ATOM      4  C   UNL A   1     -25.804  -1.032  30.057  0.00  0.00    +0.000 A 
ATOM      5  C   UNL A   1     -27.944  -0.987  31.207  0.00  0.00    +0.006 A 
ATOM      6  C   UNL A   1     -26.582  -1.039  31.223  0.00  0.00    +0.000 A 
ENDROOT
BRANCH   4   7
ATOM      7  C   UNL A   1     -24.381  -1.108  30.085  0.00  0.00    +0.000 A 
ATOM      8  C   UNL A   1     -23.759  -1.132  30.896  0.00  0.00    +0.000 A 
ATOM      9  C   UNL A   1     -22.239  -1.066  30.985  0.00  0.00    +0.000 A 
ATOM     10  C   UNL A   1     -21.685  -0.865  29.765  0.00  0.00    +0.000 A 
ATOM     11  C   UNL A   1     -22.421  -0.728  28.582  0.00  0.00    +0.000 A 
ATOM     12  C   UNL A   1     -23.852  -0.859  28.716  0.00  0.00    +0.000 A 
ENDBRANCH   4   7
BRANCH   2  13
ATOM     13  C   UNL A   1     -30.082  -0.731  30.046  0.00  0.00    +0.341 C 
ATOM     14  O   UNL A   1     -30.687  -1.473  30.917  0.00  0.00    -0.245 OA
BRANCH  13  15
ATOM     15  O   UNL A   1     -30.663  -0.012  29.367  0.00  0.00    -0.443 OA
BRANCH  15  16
ATOM     16  C   UNL A   1     -31.999  -0.122  28.940  0.00  0.00    +0.241 C 
BRANCH  16  17
ATOM     17  C   UNL A   1     -32.147  -0.188  27.662  0.00  0.00    +0.183 C 
ATOM     18 CL   UNL A   1     -31.102   0.582  26.654  0.00  0.00    -0.093 Cl
BRANCH  17  19
ATOM     19  N   UNL A   1     -32.204  -1.613  27.109  0.00  0.00    -0.258 NA
ATOM     20  C   UNL A   1     -32.219  -1.856  25.778  0.00  0.00    +0.073 C 
ATOM     21  C   UNL A   1     -32.326  -2.708  27.975  0.00  0.00    +0.073 C 
ATOM     22  C   UNL A   1     -32.433  -3.988  27.411  0.00  0.00    +0.017 C 
ATOM     23  C   UNL A   1     -32.325  -3.193  25.257  0.00  0.00    +0.017 C 
ATOM     24  C   UNL A   1     -32.419  -4.216  26.070  0.00  0.00    +0.003 C 
ENDBRANCH  17  19
ENDBRANCH  16  17
ENDBRANCH  15  16
ENDBRANCH  13  15
ENDBRANCH   2  13
TORSDOF 6
