MODEL 3876
MODEL 1
REMARK VINA RESULT:    -7.779      0.000      0.000
REMARK INTER + INTRA:         -11.629
REMARK INTER:                 -10.962
REMARK INTRA:                  -0.667
REMARK UNBOUND:                -0.667
REMARK  Name = No_3876-gen_results/8p0m/2024-11-26-14-13-15/
REMARK  7 active torsions:
REMARK  status: ('A' for Active; 'I' for Inactive)
REMARK    1  A    between atoms: C_6  and  C_14
REMARK    2  A    between atoms: C_7  and  O_24
REMARK    3  A    between atoms: C_9  and  C_11
REMARK    4  A    between atoms: C_11  and  C_13
REMARK    5  A    between atoms: C_13  and  C_22
REMARK    6  A    between atoms: O_24  and  C_25
REMARK    7  A    between atoms: C_25  and  C_26
REMARK                            x       y       z     vdW  Elec       q    Type
REMARK                         _______ _______ _______ _____ _____    ______ ____
ROOT
ATOM      1  C   UNL A   1     -26.617 -11.173   7.281  0.00  0.00    +0.007 A 
ATOM      2  C   UNL A   1     -27.557 -11.234   8.038  0.00  0.00    +0.034 A 
ATOM      3  C   UNL A   1     -28.340 -12.381   8.121  0.00  0.00    +0.003 A 
ATOM      4  C   UNL A   1     -28.083 -13.516   7.272  0.00  0.00    +0.000 A 
ATOM      5  C   UNL A   1     -26.992 -13.351   6.409  0.00  0.00    +0.004 A 
ATOM      6  C   UNL A   1     -26.293 -12.240   6.358  0.00  0.00    +0.054 A 
ATOM      7  C   UNL A   1     -27.984 -10.152   8.965  0.00  0.00    +0.139 A 
ATOM      8  C   UNL A   1     -28.542 -10.377  10.102  0.00  0.00    +0.038 A 
ATOM      9  C   UNL A   1     -29.381 -11.642  10.238  0.00  0.00    +0.016 A 
ATOM     10  C   UNL A   1     -29.170 -12.665   9.322  0.00  0.00    +0.001 A 
ENDROOT
BRANCH   6  11
ATOM     11  C   UNL A   1     -25.268 -12.130   5.299  0.00  0.00    +0.249 C 
ATOM     12  N   UNL A   1     -24.310 -12.854   5.231  0.00  0.00    -0.276 N 
ATOM     13  O   UNL A   1     -25.423 -11.231   4.389  0.00  0.00    -0.270 OA
ATOM     14  C   UNL A   1     -23.284 -12.838   4.156  0.00  0.00    +0.094 C 
ATOM     15  C   UNL A   1     -22.312 -13.535   4.250  0.00  0.00    +0.022 C 
ATOM     16  C   UNL A   1     -22.329 -14.510   5.090  0.00  0.00    +0.004 C 
ATOM     17  C   UNL A   1     -23.206 -14.762   6.146  0.00  0.00    +0.022 C 
ATOM     18  C   UNL A   1     -24.152 -13.895   6.225  0.00  0.00    +0.094 C 
ENDBRANCH   6  11
BRANCH   9  19
ATOM     19  C   UNL A   1     -30.292 -11.817  11.362  0.00  0.00    +0.055 C 
ATOM     20  N   UNL A   1     -31.572 -11.575  11.196  0.00  0.00    -0.273 NA
ATOM     21  C   UNL A   1     -32.037 -11.020  10.040  0.00  0.00    +0.151 C 
BRANCH  19  22
ATOM     22  C   UNL A   1     -29.848 -12.325  12.613  0.00  0.00    +0.066 C 
BRANCH  22  23
ATOM     23  C   UNL A   1     -30.214 -13.677  12.829  0.00  0.00    +0.116 C 
ATOM     24  N   UNL A   1     -29.518 -14.433  12.607  0.00  0.00    -0.131 NA
ENDBRANCH  22  23
ENDBRANCH  19  22
ENDBRANCH   9  19
BRANCH   7  25
ATOM     25  O   UNL A   1     -27.347  -8.979   8.787  0.00  0.00    -0.466 OA
BRANCH  25  26
ATOM     26  C   UNL A   1     -27.525  -7.881   9.428  0.00  0.00    +0.290 C 
BRANCH  26  27
ATOM     27  C   UNL A   1     -27.844  -6.812   8.760  0.00  0.00    +0.270 C 
ATOM     28  N   UNL A   1     -29.045  -6.342   8.793  0.00  0.00    -0.277 N 
ATOM     29  C   UNL A   1     -29.898  -6.626   9.585  0.00  0.00    +0.093 C 
ATOM     30  C   UNL A   1     -29.409  -5.212   7.811  0.00  0.00    +0.093 C 
ATOM     31  O   UNL A   1     -27.002  -6.337   7.850  0.00  0.00    -0.271 OA
ATOM     32  C   UNL A   1     -30.932  -5.620  10.050  0.00  0.00    +0.020 C 
ATOM     33  C   UNL A   1     -30.199  -4.181   8.372  0.00  0.00    +0.022 C 
ATOM     34  C   UNL A   1     -31.329  -4.598   9.177  0.00  0.00    +0.004 C 
ATOM     35  C   UNL A   1     -31.864  -5.967  11.194  0.00  0.00    +0.002 C 
ENDBRANCH  26  27
ENDBRANCH  25  26
ENDBRANCH   7  25
TORSDOF 7
ENDMDL
ENDMDL
