REMARK  Name = No_3877-gen_results/8p0m/2024-11-26-14-13-15/
REMARK  1 active torsions:
REMARK  status: ('A' for Active; 'I' for Inactive)
REMARK    1  A    between atoms: C_6  and  C_11
REMARK                            x       y       z     vdW  Elec       q    Type
REMARK                         _______ _______ _______ _____ _____    ______ ____
ROOT
ATOM      1  O   UNL A   1     -28.123  -1.335  28.487  0.00  0.00    -0.257 OA
ATOM      2  C   UNL A   1     -27.064  -0.824  28.869  0.00  0.00    +0.310 C 
ATOM      3 CL   UNL A   1     -25.808  -1.226  28.967  0.00  0.00    -0.022 Cl
ATOM      4  N   UNL A   1     -27.229   0.642  29.286  0.00  0.00    -0.259 N 
ATOM      5  C   UNL A   1     -28.474   1.276  29.267  0.00  0.00    +0.122 C 
ATOM      6  C   UNL A   1     -29.171   1.115  30.222  0.00  0.00    -0.003 C 
ATOM      7  C   UNL A   1     -28.764   1.197  31.470  0.00  0.00    -0.003 C 
ATOM      8  C   UNL A   1     -27.367   1.569  31.707  0.00  0.00    -0.003 C 
ATOM      9  C   UNL A   1     -26.211   1.289  31.000  0.00  0.00    -0.005 C 
ATOM     10  C   UNL A   1     -26.134   1.097  29.835  0.00  0.00    +0.121 C 
ENDROOT
BRANCH   6  11
ATOM     11  C   UNL A   1     -30.668   1.182  30.103  0.00  0.00    -0.007 C 
ATOM     12  C   UNL A   1     -31.373   0.090  30.387  0.00  0.00    -0.026 C 
ATOM     13  C   UNL A   1     -32.806   0.030  30.198  0.00  0.00    +0.031 C 
ENDBRANCH   6  11
TORSDOF 1
