MODEL 3877
MODEL 1
REMARK VINA RESULT:    -5.851      0.000      0.000
REMARK INTER + INTRA:          -6.362
REMARK INTER:                  -6.193
REMARK INTRA:                  -0.169
REMARK UNBOUND:                -0.169
REMARK  Name = No_3877-gen_results/8p0m/2024-11-26-14-13-15/
REMARK  1 active torsions:
REMARK  status: ('A' for Active; 'I' for Inactive)
REMARK    1  A    between atoms: C_6  and  C_11
REMARK                            x       y       z     vdW  Elec       q    Type
REMARK                         _______ _______ _______ _____ _____    ______ ____
ROOT
ATOM      1  O   UNL A   1     -25.322  -0.399  26.079  0.00  0.00    -0.257 OA
ATOM      2  C   UNL A   1     -24.572   0.519  26.429  0.00  0.00    +0.310 C 
ATOM      3 CL   UNL A   1     -23.994   1.543  25.824  0.00  0.00    -0.022 Cl
ATOM      4  N   UNL A   1     -24.275   0.502  27.933  0.00  0.00    -0.259 N 
ATOM      5  C   UNL A   1     -24.780  -0.496  28.770  0.00  0.00    +0.122 C 
ATOM      6  C   UNL A   1     -24.162  -1.515  28.821  0.00  0.00    -0.003 C 
ATOM      7  C   UNL A   1     -22.855  -1.594  28.943  0.00  0.00    -0.003 C 
ATOM      8  C   UNL A   1     -22.107  -0.342  29.084  0.00  0.00    -0.003 C 
ATOM      9  C   UNL A   1     -22.313   0.915  28.544  0.00  0.00    -0.005 C 
ATOM     10  C   UNL A   1     -23.356   1.380  28.237  0.00  0.00    +0.121 C 
ENDROOT
BRANCH   6  11
ATOM     11  C   UNL A   1     -24.846  -2.815  29.138  0.00  0.00    -0.007 C 
ATOM     12  C   UNL A   1     -24.228  -3.948  28.814  0.00  0.00    -0.026 C 
ATOM     13  C   UNL A   1     -24.856  -5.241  28.983  0.00  0.00    +0.031 C 
ENDBRANCH   6  11
TORSDOF 1
ENDMDL
ENDMDL
