MODEL 3878
MODEL 1
REMARK VINA RESULT:    -4.379      0.000      0.000
REMARK INTER + INTRA:          -4.610
REMARK INTER:                  -4.891
REMARK INTRA:                   0.280
REMARK UNBOUND:                 0.280
REMARK  Name = No_3878-gen_results/8p0m/2024-11-26-14-13-15/
REMARK  2 active torsions:
REMARK  status: ('A' for Active; 'I' for Inactive)
REMARK    1  A    between atoms: C_2  and  C_4
REMARK    2  A    between atoms: C_6  and  C_7
REMARK                            x       y       z     vdW  Elec       q    Type
REMARK                         _______ _______ _______ _____ _____    ______ ____
ROOT
ATOM      1  C   UNL A   1     -29.958 -14.262  13.028  0.00  0.00    +0.056 C 
ATOM      2  C   UNL A   1     -29.881 -15.402  12.402  0.00  0.00    +0.005 C 
ENDROOT
BRANCH   1   4
ATOM      3 CL   UNL A   1     -29.663 -12.368  11.569  0.00  0.00    -0.042 Cl
ATOM      4  C   UNL A   1     -30.563 -12.954  12.406  0.00  0.00    +0.350 C 
ATOM      5  F   UNL A   1     -31.702 -13.288  11.987  0.00  0.00    -0.182 F 
ATOM      6  F   UNL A   1     -30.758 -12.154  13.497  0.00  0.00    -0.182 F 
ENDBRANCH   1   4
BRANCH   2   7
ATOM      7  C   UNL A   1     -30.323 -15.465  11.144  0.00  0.00    +0.037 C 
ATOM      8  C   UNL A   1     -29.611 -15.798  10.055  0.00  0.00    +0.174 C 
ATOM      9  C   UNL A   1     -29.682 -16.199   8.845  0.00  0.00    +0.077 C 
ATOM     10  O   UNL A   1     -28.669 -15.818   9.672  0.00  0.00    -0.291 OA
ENDBRANCH   2   7
TORSDOF 2
ENDMDL
ENDMDL
