REMARK  Name = No_3878-gen_results/8p0m/2024-11-26-14-13-15/
REMARK  2 active torsions:
REMARK  status: ('A' for Active; 'I' for Inactive)
REMARK    1  A    between atoms: C_2  and  C_4
REMARK    2  A    between atoms: C_6  and  C_7
REMARK                            x       y       z     vdW  Elec       q    Type
REMARK                         _______ _______ _______ _____ _____    ______ ____
ROOT
ATOM      1  C   UNL A   1     -26.380   0.773  28.538  0.00  0.00    +0.056 C 
ATOM      2  C   UNL A   1     -26.030   0.714  27.284  0.00  0.00    +0.005 C 
ENDROOT
BRANCH   1   4
ATOM      3 CL   UNL A   1     -28.149  -0.820  28.908  0.00  0.00    -0.042 Cl
ATOM      4  C   UNL A   1     -27.834   0.496  29.060  0.00  0.00    +0.350 C 
ATOM      5  F   UNL A   1     -27.883   1.038  30.194  0.00  0.00    -0.182 F 
ATOM      6  F   UNL A   1     -28.611   1.249  28.224  0.00  0.00    -0.182 F 
ENDBRANCH   1   4
BRANCH   2   7
ATOM      7  C   UNL A   1     -26.965   0.421  26.378  0.00  0.00    +0.037 C 
ATOM      8  C   UNL A   1     -28.280   0.679  26.464  0.00  0.00    +0.174 C 
ATOM      9  C   UNL A   1     -29.364   0.802  25.801  0.00  0.00    +0.077 C 
ATOM     10  O   UNL A   1     -29.039   0.834  27.123  0.00  0.00    -0.291 OA
ENDBRANCH   2   7
TORSDOF 2
