REMARK  Name = No_3879-gen_results/8p0m/2024-11-26-14-13-15/
REMARK  2 active torsions:
REMARK  status: ('A' for Active; 'I' for Inactive)
REMARK    1  A    between atoms: C_3  and  C_8
REMARK    2  A    between atoms: C_8  and  C_10
REMARK                            x       y       z     vdW  Elec       q    Type
REMARK                         _______ _______ _______ _____ _____    ______ ____
ROOT
ATOM      1  O   UNL A   1     -28.123  -1.335  28.487  0.00  0.00    -0.273 OA
ATOM      2  C   UNL A   1     -27.481  -0.404  28.709  0.00  0.00    +0.241 C 
ATOM      3  C   UNL A   1     -27.190   0.246  29.527  0.00  0.00    +0.082 C 
ATOM      4  N   UNL A   1     -26.816   0.137  27.426  0.00  0.00    -0.205 NA
ATOM      5  C   UNL A   1     -26.355   1.420  29.764  0.00  0.00    +0.011 C 
ATOM      6  C   UNL A   1     -26.012   1.231  27.405  0.00  0.00    +0.115 C 
ATOM      7  C   UNL A   1     -25.746   1.909  28.580  0.00  0.00    +0.024 C 
ENDROOT
BRANCH   3   8
ATOM      8  C   UNL A   1     -27.775  -0.377  30.863  0.00  0.00    +0.030 C 
ATOM      9  C   UNL A   1     -27.057  -0.577  31.817  0.00  0.00    +0.005 C 
BRANCH   8  10
ATOM     10  C   UNL A   1     -29.077   0.336  31.229  0.00  0.00    -0.030 C 
ATOM     11  C   UNL A   1     -29.947   0.571  30.449  0.00  0.00    -0.030 C 
ATOM     12  C   UNL A   1     -29.969   0.197  29.058  0.00  0.00    +0.030 C 
ENDBRANCH   8  10
ENDBRANCH   3   8
TORSDOF 2
