MODEL 3879
MODEL 1
REMARK VINA RESULT:    -5.209      0.000      0.000
REMARK INTER + INTRA:          -6.256
REMARK INTER:                  -5.818
REMARK INTRA:                  -0.438
REMARK UNBOUND:                -0.438
REMARK  Name = No_3879-gen_results/8p0m/2024-11-26-14-13-15/
REMARK  2 active torsions:
REMARK  status: ('A' for Active; 'I' for Inactive)
REMARK    1  A    between atoms: C_3  and  C_8
REMARK    2  A    between atoms: C_8  and  C_10
REMARK                            x       y       z     vdW  Elec       q    Type
REMARK                         _______ _______ _______ _____ _____    ______ ____
ROOT
ATOM      1  O   UNL A   1     -22.979  -2.351  28.860  0.00  0.00    -0.273 OA
ATOM      2  C   UNL A   1     -23.933  -2.947  29.109  0.00  0.00    +0.241 C 
ATOM      3  C   UNL A   1     -24.916  -2.823  29.551  0.00  0.00    +0.082 C 
ATOM      4  N   UNL A   1     -23.785  -4.431  28.713  0.00  0.00    -0.205 NA
ATOM      5  C   UNL A   1     -26.108  -3.615  29.837  0.00  0.00    +0.011 C 
ATOM      6  C   UNL A   1     -24.761  -5.356  28.904  0.00  0.00    +0.115 C 
ATOM      7  C   UNL A   1     -25.965  -4.977  29.468  0.00  0.00    +0.024 C 
ENDROOT
BRANCH   3   8
ATOM      8  C   UNL A   1     -25.114  -1.278  29.848  0.00  0.00    +0.030 C 
ATOM      9  C   UNL A   1     -25.787  -0.589  29.115  0.00  0.00    +0.005 C 
BRANCH   8  10
ATOM     10  C   UNL A   1     -25.445  -1.083  31.328  0.00  0.00    -0.030 C 
ATOM     11  C   UNL A   1     -24.627  -0.884  32.171  0.00  0.00    -0.030 C 
ATOM     12  C   UNL A   1     -23.208  -0.740  31.965  0.00  0.00    +0.030 C 
ENDBRANCH   8  10
ENDBRANCH   3   8
TORSDOF 2
ENDMDL
ENDMDL
