MODEL 387
MODEL 1
REMARK VINA RESULT:    -6.344      0.000      0.000
REMARK INTER + INTRA:          -7.025
REMARK INTER:                  -6.715
REMARK INTRA:                  -0.310
REMARK UNBOUND:                -0.310
REMARK  Name = No_387-gen_results/8p0m/2024-11-26-14-13-15/
REMARK  1 active torsions:
REMARK  status: ('A' for Active; 'I' for Inactive)
REMARK    1  A    between atoms: C_3  and  N_10
REMARK                            x       y       z     vdW  Elec       q    Type
REMARK                         _______ _______ _______ _____ _____    ______ ____
ROOT
ATOM      1  F   UNL A   1     -22.751  -1.380  30.649  0.00  0.00    -0.203 F 
ATOM      2  C   UNL A   1     -23.148  -0.798  29.632  0.00  0.00    +0.156 A 
ATOM      3  C   UNL A   1     -24.118  -1.348  28.879  0.00  0.00    +0.077 A 
ATOM      4  C   UNL A   1     -22.543   0.505  29.259  0.00  0.00    +0.061 A 
ATOM      5  C   UNL A   1     -22.923   1.124  28.026  0.00  0.00    +0.153 A 
ATOM      6  C   UNL A   1     -24.509  -0.679  27.620  0.00  0.00    +0.030 A 
ATOM      7  C   UNL A   1     -23.924   0.525  27.214  0.00  0.00    +0.086 A 
ATOM      8 CL   UNL A   1     -24.357   1.282  25.759  0.00  0.00    -0.080 Cl
ATOM      9  F   UNL A   1     -22.433   2.270  27.601  0.00  0.00    -0.203 F 
ENDROOT
BRANCH   3  10
ATOM     10  N   UNL A   1     -24.709  -2.485  29.201  0.00  0.00    -0.306 N 
ATOM     11  C   UNL A   1     -25.932  -2.516  29.754  0.00  0.00    +0.091 C 
ATOM     12  C   UNL A   1     -26.586  -3.740  29.857  0.00  0.00    +0.021 C 
ATOM     13  C   UNL A   1     -24.088  -3.683  28.811  0.00  0.00    +0.091 C 
ATOM     14  C   UNL A   1     -24.706  -4.936  28.951  0.00  0.00    +0.021 C 
ATOM     15  C   UNL A   1     -25.962  -4.930  29.566  0.00  0.00    +0.004 C 
ENDBRANCH   3  10
TORSDOF 1
ENDMDL
ENDMDL
