REMARK  Name = No_3880-gen_results/8p0m/2024-11-26-14-13-15/
REMARK  1 active torsions:
REMARK  status: ('A' for Active; 'I' for Inactive)
REMARK    1  A    between atoms: C_4  and  C_7
REMARK                            x       y       z     vdW  Elec       q    Type
REMARK                         _______ _______ _______ _____ _____    ______ ____
ROOT
ATOM      1  C   UNL A   1     -28.016  -0.814  28.878  0.00  0.00    +0.016 A 
ATOM      2  C   UNL A   1     -28.469  -0.785  29.829  0.00  0.00    +0.062 A 
ATOM      3  C   UNL A   1     -26.546  -0.876  28.850  0.00  0.00    +0.001 A 
ATOM      4  C   UNL A   1     -25.804  -1.032  30.057  0.00  0.00    -0.000 A 
ATOM      5  C   UNL A   1     -26.537  -1.039  31.217  0.00  0.00    -0.003 A 
ATOM      6  C   UNL A   1     -27.884  -0.953  31.186  0.00  0.00    -0.003 A 
ATOM      7  N   UNL A   1     -29.959  -0.674  29.905  0.00  0.00    -0.233 NA
ATOM      8  C   UNL A   1     -30.751  -1.418  30.385  0.00  0.00    +0.138 C 
ATOM      9  C   UNL A   1     -30.454  -2.472  30.990  0.00  0.00    -0.004 A 
ATOM     10  C   UNL A   1     -30.579  -3.525  30.785  0.00  0.00    -0.003 A 
ATOM     11  C   UNL A   1     -30.040  -4.771  31.443  0.00  0.00    -0.000 A 
ATOM     12  C   UNL A   1     -29.383  -4.550  32.616  0.00  0.00    -0.000 A 
ATOM     13  C   UNL A   1     -29.207  -3.310  33.083  0.00  0.00    -0.004 A 
ATOM     14  C   UNL A   1     -29.629  -2.292  32.341  0.00  0.00    -0.020 A 
ATOM     15  C   UNL A   1     -28.152  -1.544  31.916  0.00  0.00    +0.054 C 
ENDROOT
BRANCH   4  16
ATOM     16  C   UNL A   1     -24.366  -1.113  30.048  0.00  0.00    -0.000 A 
ATOM     17  C   UNL A   1     -23.745  -1.369  30.812  0.00  0.00    -0.000 A 
ATOM     18  C   UNL A   1     -22.207  -1.250  30.858  0.00  0.00    -0.000 A 
ATOM     19  C   UNL A   1     -21.686  -0.819  29.653  0.00  0.00    +0.000 A 
ATOM     20  C   UNL A   1     -23.735  -0.611  28.780  0.00  0.00    -0.000 A 
ATOM     21  C   UNL A   1     -22.434  -0.461  28.655  0.00  0.00    -0.000 A 
ENDBRANCH   4  16
TORSDOF 1
