MODEL 3880
MODEL 1
REMARK VINA RESULT:    -7.580      0.000      0.000
REMARK INTER + INTRA:          -8.535
REMARK INTER:                  -8.024
REMARK INTRA:                  -0.511
REMARK UNBOUND:                -0.511
REMARK  Name = No_3880-gen_results/8p0m/2024-11-26-14-13-15/
REMARK  1 active torsions:
REMARK  status: ('A' for Active; 'I' for Inactive)
REMARK    1  A    between atoms: C_4  and  C_7
REMARK                            x       y       z     vdW  Elec       q    Type
REMARK                         _______ _______ _______ _____ _____    ______ ____
ROOT
ATOM      1  C   UNL A   1     -22.910   1.597  27.703  0.00  0.00    +0.016 A 
ATOM      2  C   UNL A   1     -22.964   0.590  28.008  0.00  0.00    +0.062 A 
ATOM      3  C   UNL A   1     -23.955   2.063  26.777  0.00  0.00    +0.001 A 
ATOM      4  C   UNL A   1     -25.051   1.218  26.438  0.00  0.00    -0.000 A 
ATOM      5  C   UNL A   1     -25.018  -0.051  26.960  0.00  0.00    -0.003 A 
ATOM      6  C   UNL A   1     -24.020  -0.434  27.785  0.00  0.00    -0.003 A 
ATOM      7  N   UNL A   1     -21.896   0.061  28.912  0.00  0.00    -0.233 NA
ATOM      8  C   UNL A   1     -21.985  -0.391  30.007  0.00  0.00    +0.138 C 
ATOM      9  C   UNL A   1     -23.065  -0.556  30.618  0.00  0.00    -0.004 A 
ATOM     10  C   UNL A   1     -23.522  -0.101  31.484  0.00  0.00    -0.003 A 
ATOM     11  C   UNL A   1     -24.905  -0.190  32.080  0.00  0.00    -0.000 A 
ATOM     12  C   UNL A   1     -25.705  -1.136  31.514  0.00  0.00    -0.000 A 
ATOM     13  C   UNL A   1     -25.277  -1.869  30.481  0.00  0.00    -0.004 A 
ATOM     14  C   UNL A   1     -24.077  -1.605  29.976  0.00  0.00    -0.020 A 
ATOM     15  C   UNL A   1     -24.482  -1.008  28.426  0.00  0.00    +0.054 C 
ENDROOT
BRANCH   4  16
ATOM     16  C   UNL A   1     -26.093   1.662  25.547  0.00  0.00    -0.000 A 
ATOM     17  C   UNL A   1     -26.546   2.572  25.513  0.00  0.00    -0.000 A 
ATOM     18  C   UNL A   1     -27.798   2.973  24.705  0.00  0.00    -0.000 A 
ATOM     19  C   UNL A   1     -28.241   1.944  23.895  0.00  0.00    +0.000 A 
ATOM     20  C   UNL A   1     -26.652   0.575  24.673  0.00  0.00    -0.000 A 
ATOM     21  C   UNL A   1     -27.712   0.760  23.916  0.00  0.00    -0.000 A 
ENDBRANCH   4  16
TORSDOF 1
ENDMDL
ENDMDL
