MODEL 3881
MODEL 1
REMARK VINA RESULT:    -6.880      0.000      0.000
REMARK INTER + INTRA:          -9.406
REMARK INTER:                  -8.488
REMARK INTRA:                  -0.917
REMARK UNBOUND:                -0.917
REMARK  Name = No_3881-gen_results/8p0m/2024-11-26-14-13-15/
REMARK  4 active torsions:
REMARK  status: ('A' for Active; 'I' for Inactive)
REMARK    1  A    between atoms: C_3  and  C_8
REMARK    2  A    between atoms: C_6  and  O_7
REMARK    3  A    between atoms: O_7  and  C_14
REMARK    4  A    between atoms: C_14  and  C_15
REMARK                            x       y       z     vdW  Elec       q    Type
REMARK                         _______ _______ _______ _____ _____    ______ ____
ROOT
ATOM      1  C   UNL A   1     -26.120   2.519  25.454  0.00  0.00    +0.037 A 
ATOM      2  C   UNL A   1     -27.185   2.140  25.027  0.00  0.00    +0.003 A 
ATOM      3  C   UNL A   1     -27.348   0.844  24.549  0.00  0.00    +0.000 A 
ATOM      4  C   UNL A   1     -26.239  -0.074  24.506  0.00  0.00    +0.003 A 
ATOM      5  C   UNL A   1     -25.038   0.454  24.997  0.00  0.00    +0.037 A 
ATOM      6  C   UNL A   1     -24.933   1.692  25.422  0.00  0.00    +0.139 A 
ENDROOT
BRANCH   3   7
ATOM      7  C   UNL A   1     -28.624   0.252  24.003  0.00  0.00    +0.000 A 
ATOM      8  C   UNL A   1     -28.985  -0.978  24.114  0.00  0.00    +0.000 A 
ATOM      9  C   UNL A   1     -30.276  -1.435  23.627  0.00  0.00    +0.000 A 
ATOM     10  C   UNL A   1     -31.240  -0.475  23.284  0.00  0.00    +0.000 A 
ATOM     11  C   UNL A   1     -29.675   1.200  23.650  0.00  0.00    +0.000 A 
ATOM     12  C   UNL A   1     -30.920   0.797  23.274  0.00  0.00    +0.000 A 
ENDBRANCH   3   7
BRANCH   6  13
ATOM     13  O   UNL A   1     -23.720   2.139  25.848  0.00  0.00    -0.471 OA
BRANCH  13  14
ATOM     14  C   UNL A   1     -23.367   2.094  27.145  0.00  0.00    +0.232 C 
BRANCH  14  15
ATOM     15  C   UNL A   1     -22.616   1.445  27.604  0.00  0.00    +0.017 A 
ATOM     16  C   UNL A   1     -21.553   1.154  27.745  0.00  0.00    -0.001 A 
ATOM     17  C   UNL A   1     -20.777   0.118  28.521  0.00  0.00    -0.000 A 
ATOM     18  C   UNL A   1     -21.614  -0.790  29.183  0.00  0.00    -0.000 A 
ATOM     19  C   UNL A   1     -22.951  -0.601  29.196  0.00  0.00    -0.004 A 
ATOM     20  C   UNL A   1     -23.515   0.390  28.501  0.00  0.00    -0.022 A 
ATOM     21  C   UNL A   1     -23.895   1.265  29.862  0.00  0.00    +0.031 C 
ENDBRANCH  14  15
ENDBRANCH  13  14
ENDBRANCH   6  13
TORSDOF 4
ENDMDL
ENDMDL
