REMARK  Name = No_3882-gen_results/8p0m/2024-11-26-14-13-15/
REMARK  2 active torsions:
REMARK  status: ('A' for Active; 'I' for Inactive)
REMARK    1  A    between atoms: C_1  and  C_3
REMARK    2  A    between atoms: C_7  and  C_8
REMARK                            x       y       z     vdW  Elec       q    Type
REMARK                         _______ _______ _______ _____ _____    ______ ____
ROOT
ATOM      1  C   UNL A   1     -26.504  -0.778  28.877  0.00  0.00    -0.000 A 
ATOM      2  C   UNL A   1     -25.762  -0.002  27.971  0.00  0.00    -0.000 A 
ATOM      3  C   UNL A   1     -24.321  -0.030  28.018  0.00  0.00    -0.003 A 
ATOM      4  C   UNL A   1     -23.686  -0.866  28.974  0.00  0.00    -0.003 A 
ATOM      5  C   UNL A   1     -24.431  -1.661  29.870  0.00  0.00    -0.003 A 
ATOM      6  C   UNL A   1     -25.802  -1.627  29.776  0.00  0.00    -0.000 A 
ENDROOT
BRANCH   1   7
ATOM      7  C   UNL A   1     -28.016  -0.814  28.878  0.00  0.00    -0.000 A 
ATOM      8  C   UNL A   1     -28.469  -0.785  29.829  0.00  0.00    -0.000 A 
ATOM      9  C   UNL A   1     -29.999  -0.760  29.895  0.00  0.00    +0.000 A 
ATOM     10  C   UNL A   1     -30.592  -0.481  28.721  0.00  0.00    +0.000 A 
ATOM     11  C   UNL A   1     -29.891  -0.219  27.617  0.00  0.00    +0.000 A 
ATOM     12  C   UNL A   1     -28.543  -0.233  27.660  0.00  0.00    -0.000 A 
ENDBRANCH   1   7
BRANCH   4  13
ATOM     13  C   UNL A   1     -22.264  -0.844  29.054  0.00  0.00    +0.136 C 
ATOM     14  N   UNL A   1     -21.427   0.043  29.389  0.00  0.00    -0.126 NA
ENDBRANCH   4  13
TORSDOF 2
