MODEL 3882
MODEL 1
REMARK VINA RESULT:    -6.484      0.000      0.000
REMARK INTER + INTRA:          -7.679
REMARK INTER:                  -7.242
REMARK INTRA:                  -0.437
REMARK UNBOUND:                -0.437
REMARK  Name = No_3882-gen_results/8p0m/2024-11-26-14-13-15/
REMARK  2 active torsions:
REMARK  status: ('A' for Active; 'I' for Inactive)
REMARK    1  A    between atoms: C_1  and  C_3
REMARK    2  A    between atoms: C_7  and  C_8
REMARK                            x       y       z     vdW  Elec       q    Type
REMARK                         _______ _______ _______ _____ _____    ______ ____
ROOT
ATOM      1  C   UNL A   1     -24.261  -1.565  28.537  0.00  0.00    -0.000 A 
ATOM      2  C   UNL A   1     -23.044  -1.022  28.982  0.00  0.00    -0.000 A 
ATOM      3  C   UNL A   1     -22.565   0.216  28.419  0.00  0.00    -0.003 A 
ATOM      4  C   UNL A   1     -23.356   0.870  27.438  0.00  0.00    -0.003 A 
ATOM      5  C   UNL A   1     -24.588   0.336  27.006  0.00  0.00    -0.003 A 
ATOM      6  C   UNL A   1     -25.023  -0.832  27.586  0.00  0.00    -0.000 A 
ENDROOT
BRANCH   1   7
ATOM      7  C   UNL A   1     -24.837  -2.849  29.091  0.00  0.00    -0.000 A 
ATOM      8  C   UNL A   1     -25.864  -2.822  29.325  0.00  0.00    -0.000 A 
ATOM      9  C   UNL A   1     -26.519  -4.109  29.835  0.00  0.00    +0.000 A 
ATOM     10  C   UNL A   1     -25.773  -5.212  29.650  0.00  0.00    +0.000 A 
ATOM     11  C   UNL A   1     -24.586  -5.172  29.043  0.00  0.00    +0.000 A 
ATOM     12  C   UNL A   1     -24.101  -3.995  28.596  0.00  0.00    -0.000 A 
ENDBRANCH   1   7
BRANCH   4  13
ATOM     13  C   UNL A   1     -22.849   2.061  26.844  0.00  0.00    +0.136 C 
ATOM     14  N   UNL A   1     -22.769   2.470  25.650  0.00  0.00    -0.126 NA
ENDBRANCH   4  13
TORSDOF 2
ENDMDL
ENDMDL
