REMARK  Name = No_3883-gen_results/8p0m/2024-11-26-14-13-15/
REMARK  2 active torsions:
REMARK  status: ('A' for Active; 'I' for Inactive)
REMARK    1  A    between atoms: C_3  and  C_12
REMARK    2  A    between atoms: C_7  and  C_13
REMARK                            x       y       z     vdW  Elec       q    Type
REMARK                         _______ _______ _______ _____ _____    ______ ____
ROOT
ATOM      1  O   UNL A   1     -28.123  -1.335  28.487  0.00  0.00    -0.275 OA
ATOM      2  C   UNL A   1     -27.481  -0.404  28.709  0.00  0.00    +0.231 C 
ATOM      3  C   UNL A   1     -27.190   0.246  29.527  0.00  0.00    +0.100 C 
ATOM      4  N   UNL A   1     -26.816   0.137  27.426  0.00  0.00    -0.250 N 
ATOM      5  C   UNL A   1     -26.355   1.420  29.764  0.00  0.00    +0.028 C 
ATOM      6  C   UNL A   1     -26.012   1.231  27.405  0.00  0.00    +0.163 C 
ATOM      7  C   UNL A   1     -25.746   1.909  28.580  0.00  0.00    +0.139 C 
ATOM      8  N   UNL A   1     -25.474   1.648  26.265  0.00  0.00    -0.181 NA
ATOM      9  C   UNL A   1     -25.254   1.040  25.256  0.00  0.00    +0.181 C 
ATOM     10  N   UNL A   1     -26.000  -0.081  25.069  0.00  0.00    -0.178 NA
ATOM     11  C   UNL A   1     -26.734  -0.583  26.197  0.00  0.00    +0.188 C 
ENDROOT
BRANCH   3  12
ATOM     12  C   UNL A   1     -27.823  -0.261  30.917  0.00  0.00    -0.014 A 
ATOM     13  C   UNL A   1     -28.891   0.562  31.380  0.00  0.00    -0.004 A 
ATOM     14  C   UNL A   1     -29.569   0.059  32.303  0.00  0.00    -0.000 A 
ATOM     15  C   UNL A   1     -29.213  -1.166  32.966  0.00  0.00    -0.000 A 
ATOM     16  C   UNL A   1     -28.204  -1.936  32.419  0.00  0.00    -0.000 A 
ATOM     17  C   UNL A   1     -27.460  -1.458  31.342  0.00  0.00    -0.004 A 
ENDBRANCH   3  12
BRANCH   7  18
ATOM     18  C   UNL A   1     -24.882   3.128  28.630  0.00  0.00    +0.367 C 
ATOM     19  O   UNL A   1     -24.664   3.707  29.610  0.00  0.00    -0.246 OA
ATOM     20  O   UNL A   1     -24.511   3.709  27.466  0.00  0.00    -0.246 OA
ENDBRANCH   7  18
TORSDOF 2
