MODEL 3883
MODEL 1
REMARK VINA RESULT:    -6.581      0.000      0.000
REMARK INTER + INTRA:          -7.871
REMARK INTER:                  -7.350
REMARK INTRA:                  -0.520
REMARK UNBOUND:                -0.520
REMARK  Name = No_3883-gen_results/8p0m/2024-11-26-14-13-15/
REMARK  2 active torsions:
REMARK  status: ('A' for Active; 'I' for Inactive)
REMARK    1  A    between atoms: C_3  and  C_12
REMARK    2  A    between atoms: C_7  and  C_13
REMARK                            x       y       z     vdW  Elec       q    Type
REMARK                         _______ _______ _______ _____ _____    ______ ____
ROOT
ATOM      1  O   UNL A   1      -8.474   0.013  37.078  0.00  0.00    -0.275 OA
ATOM      2  C   UNL A   1      -9.422   0.342  36.512  0.00  0.00    +0.231 C 
ATOM      3  C   UNL A   1     -10.501   0.229  36.533  0.00  0.00    +0.100 C 
ATOM      4  N   UNL A   1      -9.071   1.225  35.296  0.00  0.00    -0.250 N 
ATOM      5  C   UNL A   1     -11.675   0.681  35.793  0.00  0.00    +0.028 C 
ATOM      6  C   UNL A   1     -10.002   1.742  34.454  0.00  0.00    +0.163 C 
ATOM      7  C   UNL A   1     -11.344   1.493  34.679  0.00  0.00    +0.139 C 
ATOM      8  N   UNL A   1      -9.633   2.491  33.422  0.00  0.00    -0.181 NA
ATOM      9  C   UNL A   1      -8.631   3.127  33.259  0.00  0.00    +0.181 C 
ATOM     10  N   UNL A   1      -7.556   2.732  33.992  0.00  0.00    -0.178 NA
ATOM     11  C   UNL A   1      -7.794   1.823  35.078  0.00  0.00    +0.188 C 
ENDROOT
BRANCH   3  12
ATOM     12  C   UNL A   1     -10.961  -0.663  37.791  0.00  0.00    -0.014 A 
ATOM     13  C   UNL A   1     -11.215   0.108  38.963  0.00  0.00    -0.004 A 
ATOM     14  C   UNL A   1     -11.818  -0.509  39.868  0.00  0.00    -0.000 A 
ATOM     15  C   UNL A   1     -12.087  -1.921  39.816  0.00  0.00    -0.000 A 
ATOM     16  C   UNL A   1     -11.868  -2.584  38.624  0.00  0.00    -0.000 A 
ATOM     17  C   UNL A   1     -11.264  -1.927  37.554  0.00  0.00    -0.004 A 
ENDBRANCH   3  12
BRANCH   7  18
ATOM     18  C   UNL A   1     -12.422   2.018  33.786  0.00  0.00    +0.367 C 
ATOM     19  O   UNL A   1     -13.087   2.925  34.066  0.00  0.00    -0.246 OA
ATOM     20  O   UNL A   1     -12.786   1.286  32.709  0.00  0.00    -0.246 OA
ENDBRANCH   7  18
TORSDOF 2
ENDMDL
ENDMDL
