REMARK  Name = No_3884-gen_results/8p0m/2024-11-26-14-13-15/
REMARK  0 active torsions:
REMARK  status: ('A' for Active; 'I' for Inactive)
REMARK                            x       y       z     vdW  Elec       q    Type
REMARK                         _______ _______ _______ _____ _____    ______ ____
ROOT
ATOM      1  C   UNL A   1     -28.016  -0.814  28.878  0.00  0.00    +0.003 A 
ATOM      2  C   UNL A   1     -28.469  -0.785  29.829  0.00  0.00    +0.000 A 
ATOM      3  C   UNL A   1     -26.546  -0.876  28.850  0.00  0.00    +0.035 A 
ATOM      4  C   UNL A   1     -25.804  -1.032  30.057  0.00  0.00    -0.019 A 
ATOM      5  C   UNL A   1     -27.944  -0.987  31.207  0.00  0.00    -0.000 A 
ATOM      6  C   UNL A   1     -24.401  -1.097  30.096  0.00  0.00    +0.031 C 
ATOM      7  C   UNL A   1     -26.561  -1.075  31.227  0.00  0.00    -0.004 A 
ATOM      8  C   UNL A   1     -23.719   0.112  29.858  0.00  0.00    +0.031 C 
ATOM      9  C   UNL A   1     -23.304   0.534  28.670  0.00  0.00    -0.019 A 
ATOM     10  C   UNL A   1     -22.616   1.699  28.421  0.00  0.00    -0.004 A 
ATOM     11  C   UNL A   1     -23.046   2.331  27.335  0.00  0.00    -0.000 A 
ATOM     12  C   UNL A   1     -23.830   1.714  26.293  0.00  0.00    +0.000 A 
ATOM     13  C   UNL A   1     -24.417   0.534  26.557  0.00  0.00    +0.003 A 
ATOM     14  C   UNL A   1     -24.241  -0.013  27.720  0.00  0.00    +0.035 A 
ATOM     15  C   UNL A   1     -25.634  -0.448  27.764  0.00  0.00    +0.195 C 
ATOM     16  O   UNL A   1     -26.129  -0.794  26.554  0.00  0.00    -0.287 OA
ENDROOT
TORSDOF 0
