MODEL 3884
MODEL 1
REMARK VINA RESULT:    -7.097      0.000      0.000
REMARK INTER + INTRA:          -7.097
REMARK INTER:                  -7.097
REMARK INTRA:                   0.000
REMARK UNBOUND:                 0.000
REMARK  Name = No_3884-gen_results/8p0m/2024-11-26-14-13-15/
REMARK  0 active torsions:
REMARK  status: ('A' for Active; 'I' for Inactive)
REMARK                            x       y       z     vdW  Elec       q    Type
REMARK                         _______ _______ _______ _____ _____    ______ ____
ROOT
ATOM      1  C   UNL A   1     -23.849  -3.616  28.888  0.00  0.00    +0.003 A 
ATOM      2  C   UNL A   1     -24.726  -4.199  28.915  0.00  0.00    +0.000 A 
ATOM      3  C   UNL A   1     -23.947  -2.251  29.429  0.00  0.00    +0.035 A 
ATOM      4  C   UNL A   1     -25.137  -1.814  30.080  0.00  0.00    -0.019 A 
ATOM      5  C   UNL A   1     -26.048  -4.008  29.572  0.00  0.00    -0.000 A 
ATOM      6  C   UNL A   1     -25.293  -0.524  30.616  0.00  0.00    +0.031 C 
ATOM      7  C   UNL A   1     -26.177  -2.741  30.119  0.00  0.00    -0.004 A 
ATOM      8  C   UNL A   1     -25.444   0.520  29.683  0.00  0.00    +0.031 C 
ATOM      9  C   UNL A   1     -24.453   1.243  29.178  0.00  0.00    -0.019 A 
ATOM     10  C   UNL A   1     -24.583   2.281  28.285  0.00  0.00    -0.004 A 
ATOM     11  C   UNL A   1     -23.663   2.258  27.328  0.00  0.00    -0.000 A 
ATOM     12  C   UNL A   1     -22.426   1.520  27.408  0.00  0.00    +0.000 A 
ATOM     13  C   UNL A   1     -22.316   0.570  28.352  0.00  0.00    +0.003 A 
ATOM     14  C   UNL A   1     -23.308   0.367  29.163  0.00  0.00    +0.035 A 
ATOM     15  C   UNL A   1     -23.103  -1.078  29.107  0.00  0.00    +0.195 C 
ATOM     16  O   UNL A   1     -21.803  -1.434  28.998  0.00  0.00    -0.287 OA
ENDROOT
TORSDOF 0
ENDMDL
ENDMDL
