REMARK  Name = No_3885-gen_results/8p0m/2024-11-26-14-13-15/
REMARK  4 active torsions:
REMARK  status: ('A' for Active; 'I' for Inactive)
REMARK    1  A    between atoms: C_1  and  C_8
REMARK    2  A    between atoms: C_3  and  C_15
REMARK    3  A    between atoms: C_5  and  C_11
REMARK    4  A    between atoms: C_15  and  O_17
REMARK                            x       y       z     vdW  Elec       q    Type
REMARK                         _______ _______ _______ _____ _____    ______ ____
ROOT
ATOM      1  C   UNL A   1     -28.016  -0.814  28.878  0.00  0.00    +0.081 C 
ATOM      2  C   UNL A   1     -27.064  -0.119  28.608  0.00  0.00    +0.004 C 
ATOM      3  C   UNL A   1     -26.972   0.714  27.506  0.00  0.00    +0.121 C 
ATOM      4  C   UNL A   1     -25.821   1.491  27.116  0.00  0.00    +0.027 C 
ATOM      5  C   UNL A   1     -24.656   1.424  27.918  0.00  0.00    +0.107 C 
ATOM      6  C   UNL A   1     -24.685   0.590  29.066  0.00  0.00    +0.051 C 
ATOM      7  C   UNL A   1     -25.810  -0.127  29.334  0.00  0.00    +0.181 C 
ATOM      8  F   UNL A   1     -25.734  -0.891  30.421  0.00  0.00    -0.233 F 
ENDROOT
BRANCH   1   9
ATOM      9  C   UNL A   1     -29.219  -0.042  29.313  0.00  0.00    +0.387 C 
ATOM     10  O   UNL A   1     -30.175  -0.769  29.713  0.00  0.00    -0.241 OA
ATOM     11  O   UNL A   1     -29.313   1.125  29.198  0.00  0.00    -0.241 OA
ENDBRANCH   1   9
BRANCH   5  12
ATOM     12  C   UNL A   1     -23.479   2.209  27.591  0.00  0.00    +0.364 C 
ATOM     13  O   UNL A   1     -22.614   2.322  28.474  0.00  0.00    -0.246 OA
ATOM     14  O   UNL A   1     -23.267   2.563  26.353  0.00  0.00    -0.246 OA
ENDBRANCH   5  12
BRANCH   3  15
ATOM     15  C   UNL A   1     -28.112   0.820  26.560  0.00  0.00    +0.321 C 
ATOM     16  O   UNL A   1     -27.936   0.507  25.377  0.00  0.00    -0.250 OA
BRANCH  15  17
ATOM     17  O   UNL A   1     -29.221   1.302  26.918  0.00  0.00    -0.444 OA
ATOM     18  C   UNL A   1     -29.706   2.025  25.796  0.00  0.00    +0.256 C 
ENDBRANCH  15  17
ENDBRANCH   3  15
TORSDOF 4
