MODEL 3886
MODEL 1
REMARK VINA RESULT:    -4.454      0.000      0.000
REMARK INTER + INTRA:          -4.454
REMARK INTER:                  -4.454
REMARK INTRA:                   0.000
REMARK UNBOUND:                 0.000
REMARK  Name = No_3886-gen_results/8p0m/2024-11-26-14-13-15/
REMARK  0 active torsions:
REMARK  status: ('A' for Active; 'I' for Inactive)
REMARK                            x       y       z     vdW  Elec       q    Type
REMARK                         _______ _______ _______ _____ _____    ______ ____
ROOT
ATOM      1  C   UNL A   1      -9.222  -9.206  19.967  0.00  0.00    +0.011 A 
ATOM      2  C   UNL A   1      -8.371  -9.766  19.695  0.00  0.00    +0.058 A 
ATOM      3  C   UNL A   1     -10.355  -9.232  19.029  0.00  0.00    +0.001 A 
ATOM      4  C   UNL A   1     -10.334 -10.089  17.890  0.00  0.00    +0.000 A 
ATOM      5  C   UNL A   1      -8.118 -10.764  18.621  0.00  0.00    +0.011 A 
ATOM      6  C   UNL A   1      -9.143 -10.809  17.724  0.00  0.00    +0.001 A 
ATOM      7 CL   UNL A   1      -6.970  -9.757  20.847  0.00  0.00    -0.082 Cl
ENDROOT
TORSDOF 0
ENDMDL
ENDMDL
