REMARK  Name = No_3887-gen_results/8p0m/2024-11-26-14-13-15/
REMARK  2 active torsions:
REMARK  status: ('A' for Active; 'I' for Inactive)
REMARK    1  A    between atoms: C_7  and  C_8
REMARK    2  A    between atoms: C_12  and  C_15
REMARK                            x       y       z     vdW  Elec       q    Type
REMARK                         _______ _______ _______ _____ _____    ______ ____
ROOT
ATOM      1  F   UNL A   1     -28.073  -1.254  28.532  0.00  0.00    -0.202 F 
ATOM      2  C   UNL A   1     -27.359  -0.379  28.722  0.00  0.00    +0.170 A 
ATOM      3  C   UNL A   1     -26.332  -0.644  29.452  0.00  0.00    +0.198 A 
ATOM      4  C   UNL A   1     -25.256   0.320  29.782  0.00  0.00    +0.208 A 
ATOM      5  C   UNL A   1     -25.424   1.627  29.203  0.00  0.00    +0.225 A 
ATOM      6  C   UNL A   1     -26.526   1.825  28.403  0.00  0.00    +0.047 A 
ATOM      7  C   UNL A   1     -27.451   0.860  28.136  0.00  0.00    +0.033 A 
ATOM      8  O   UNL A   1     -24.739   2.679  29.581  0.00  0.00    -0.284 OA
ATOM      9  F   UNL A   1     -26.054  -1.833  30.022  0.00  0.00    -0.199 F 
ATOM     10  F   UNL A   1     -24.271   0.123  30.628  0.00  0.00    -0.198 F 
ENDROOT
BRANCH   7  11
ATOM     11  C   UNL A   1     -28.540   1.202  27.245  0.00  0.00    +0.003 A 
ATOM     12  C   UNL A   1     -28.442   2.010  26.254  0.00  0.00    +0.000 A 
ATOM     13  C   UNL A   1     -29.491   2.223  25.346  0.00  0.00    +0.000 A 
ATOM     14  C   UNL A   1     -30.623   1.422  25.399  0.00  0.00    +0.007 A 
ATOM     15  C   UNL A   1     -30.679   0.478  26.402  0.00  0.00    +0.080 A 
ATOM     16  C   UNL A   1     -29.679   0.326  27.283  0.00  0.00    +0.007 A 
BRANCH  15  17
ATOM     17  C   UNL A   1     -31.905  -0.340  26.480  0.00  0.00    +0.388 C 
ATOM     18  O   UNL A   1     -32.516  -0.628  27.452  0.00  0.00    -0.241 OA
ATOM     19  O   UNL A   1     -32.336  -0.949  25.339  0.00  0.00    -0.241 OA
ENDBRANCH  15  17
ENDBRANCH   7  11
TORSDOF 2
