MODEL 3887
MODEL 1
REMARK VINA RESULT:    -7.594      0.000      0.000
REMARK INTER + INTRA:          -8.838
REMARK INTER:                  -8.482
REMARK INTRA:                  -0.357
REMARK UNBOUND:                -0.357
REMARK  Name = No_3887-gen_results/8p0m/2024-11-26-14-13-15/
REMARK  2 active torsions:
REMARK  status: ('A' for Active; 'I' for Inactive)
REMARK    1  A    between atoms: C_7  and  C_8
REMARK    2  A    between atoms: C_12  and  C_15
REMARK                            x       y       z     vdW  Elec       q    Type
REMARK                         _______ _______ _______ _____ _____    ______ ____
ROOT
ATOM      1  F   UNL A   1     -23.455  -3.889  28.443  0.00  0.00    -0.202 F 
ATOM      2  C   UNL A   1     -24.399  -3.466  28.934  0.00  0.00    +0.170 A 
ATOM      3  C   UNL A   1     -25.301  -4.329  29.247  0.00  0.00    +0.198 A 
ATOM      4  C   UNL A   1     -26.574  -4.012  29.936  0.00  0.00    +0.208 A 
ATOM      5  C   UNL A   1     -26.748  -2.621  30.263  0.00  0.00    +0.225 A 
ATOM      6  C   UNL A   1     -25.725  -1.763  29.932  0.00  0.00    +0.047 A 
ATOM      7  C   UNL A   1     -24.573  -2.159  29.319  0.00  0.00    +0.033 A 
ATOM      8  O   UNL A   1     -27.896  -2.101  30.626  0.00  0.00    -0.284 OA
ATOM      9  F   UNL A   1     -25.237  -5.656  29.019  0.00  0.00    -0.199 F 
ATOM     10  F   UNL A   1     -27.569  -4.843  30.148  0.00  0.00    -0.198 F 
ENDROOT
BRANCH   7  11
ATOM     11  C   UNL A   1     -23.566  -1.149  29.066  0.00  0.00    +0.003 A 
ATOM     12  C   UNL A   1     -22.319  -1.284  29.330  0.00  0.00    +0.000 A 
ATOM     13  C   UNL A   1     -21.360  -0.327  28.961  0.00  0.00    +0.000 A 
ATOM     14  C   UNL A   1     -21.721   0.727  28.134  0.00  0.00    +0.007 A 
ATOM     15  C   UNL A   1     -23.045   0.809  27.761  0.00  0.00    +0.080 A 
ATOM     16  C   UNL A   1     -23.949  -0.096  28.165  0.00  0.00    +0.007 A 
BRANCH  15  17
ATOM     17  C   UNL A   1     -23.431   1.958  26.918  0.00  0.00    +0.388 C 
ATOM     18  O   UNL A   1     -23.336   2.050  25.742  0.00  0.00    -0.241 OA
ATOM     19  O   UNL A   1     -23.826   3.102  27.545  0.00  0.00    -0.241 OA
ENDBRANCH  15  17
ENDBRANCH   7  11
TORSDOF 2
ENDMDL
ENDMDL
