MODEL 3888
MODEL 1
REMARK VINA RESULT:    -7.171      0.000      0.000
REMARK INTER + INTRA:         -14.148
REMARK INTER:                 -10.943
REMARK INTRA:                  -3.205
REMARK UNBOUND:                -3.205
REMARK  Name = No_3888-gen_results/8p0m/2024-11-26-14-13-15/
REMARK  9 active torsions:
REMARK  status: ('A' for Active; 'I' for Inactive)
REMARK    1  A    between atoms: C_2  and  C_5
REMARK    2  A    between atoms: C_6  and  C_25
REMARK    3  A    between atoms: N_9  and  C_21
REMARK    4  A    between atoms: C_15  and  C_17
REMARK    5  A    between atoms: C_21  and  C_22
REMARK    6  A    between atoms: C_22  and  C_23
REMARK    7  A    between atoms: C_29  and  C_31
REMARK    8  A    between atoms: C_31  and  C_32
REMARK    9  A    between atoms: C_33  and  C_34
REMARK                            x       y       z     vdW  Elec       q    Type
REMARK                         _______ _______ _______ _____ _____    ______ ____
ROOT
ATOM      1  C   UNL A   1      -8.510   0.674  34.865  0.00  0.00    -0.002 A 
ATOM      2  C   UNL A   1      -8.171  -0.161  35.412  0.00  0.00    +0.009 A 
ATOM      3  C   UNL A   1      -9.803   1.166  35.149  0.00  0.00    -0.000 A 
ATOM      4  C   UNL A   1     -10.616   0.579  36.098  0.00  0.00    -0.000 A 
ATOM      5  C   UNL A   1     -10.056  -0.516  36.770  0.00  0.00    -0.000 A 
ATOM      6  C   UNL A   1      -8.760  -0.920  36.510  0.00  0.00    -0.002 A 
ATOM      7  C   UNL A   1     -10.365   2.344  34.379  0.00  0.00    -0.000 A 
ATOM      8  C   UNL A   1     -11.459   2.974  34.869  0.00  0.00    +0.004 A 
ATOM      9  C   UNL A   1     -12.297   2.319  35.883  0.00  0.00    +0.071 A 
ATOM     10  C   UNL A   1     -11.837   1.202  36.527  0.00  0.00    +0.004 A 
ENDROOT
BRANCH   2  11
ATOM     11  C   UNL A   1      -6.753  -0.713  35.190  0.00  0.00    +0.155 C 
ATOM     12  N   UNL A   1      -6.617  -1.506  34.580  0.00  0.00    -0.199 NA
ATOM     13  N   UNL A   1      -5.743   0.253  35.506  0.00  0.00    -0.257 NA
ATOM     14  C   UNL A   1      -4.472  -0.039  35.128  0.00  0.00    +0.075 C 
ATOM     15  C   UNL A   1      -5.292  -1.939  34.170  0.00  0.00    +0.092 C 
ATOM     16  C   UNL A   1      -4.198  -1.133  34.437  0.00  0.00    +0.036 C 
BRANCH  13  17
ATOM     17  C   UNL A   1      -6.013   1.509  36.260  0.00  0.00    +0.074 C 
BRANCH  17  18
ATOM     18  C   UNL A   1      -5.693   1.481  37.664  0.00  0.00    +0.017 C 
BRANCH  18  19
ATOM     19  C   UNL A   1      -6.958   1.509  38.437  0.00  0.00    +0.001 C 
ATOM     20  C   UNL A   1      -7.932   2.436  38.121  0.00  0.00    +0.000 C 
ENDBRANCH  18  19
ENDBRANCH  17  18
ENDBRANCH  13  17
ENDBRANCH   2  11
BRANCH   5  21
ATOM     21  C   UNL A   1     -10.846  -1.186  37.858  0.00  0.00    -0.000 A 
ATOM     22  C   UNL A   1     -11.490  -2.056  37.844  0.00  0.00    -0.000 A 
ATOM     23  C   UNL A   1     -12.218  -2.632  38.467  0.00  0.00    -0.000 A 
ATOM     24  C   UNL A   1     -12.457  -2.062  39.858  0.00  0.00    -0.004 A 
ATOM     25  C   UNL A   1     -11.682  -0.926  40.150  0.00  0.00    -0.018 A 
ATOM     26  C   UNL A   1     -10.906  -0.395  39.145  0.00  0.00    -0.004 A 
BRANCH  25  27
ATOM     27  C   UNL A   1     -11.817  -0.340  41.500  0.00  0.00    +0.052 C 
BRANCH  27  28
ATOM     28  C   UNL A   1     -13.071  -0.041  41.948  0.00  0.00    -0.021 C 
ATOM     29  C   UNL A   1     -13.642   0.941  41.703  0.00  0.00    -0.004 C 
BRANCH  29  30
ATOM     30  C   UNL A   1     -12.914   2.178  41.291  0.00  0.00    -0.000 C 
ATOM     31  C   UNL A   1     -13.250   2.647  39.989  0.00  0.00    -0.000 C 
ENDBRANCH  29  30
ENDBRANCH  27  28
ENDBRANCH  25  27
ENDBRANCH   5  21
BRANCH   9  32
ATOM     32  C   UNL A   1     -13.584   3.003  36.208  0.00  0.00    +0.419 C 
ATOM     33  F   UNL A   1     -13.590   4.133  36.618  0.00  0.00    -0.166 F 
ATOM     34  F   UNL A   1     -14.327   3.025  34.954  0.00  0.00    -0.166 F 
ATOM     35  F   UNL A   1     -14.376   2.253  36.954  0.00  0.00    -0.166 F 
ENDBRANCH   9  32
TORSDOF 9
ENDMDL
ENDMDL
