REMARK  Name = No_3888-gen_results/8p0m/2024-11-26-14-13-15/
REMARK  9 active torsions:
REMARK  status: ('A' for Active; 'I' for Inactive)
REMARK    1  A    between atoms: C_2  and  C_5
REMARK    2  A    between atoms: C_6  and  C_25
REMARK    3  A    between atoms: N_9  and  C_21
REMARK    4  A    between atoms: C_15  and  C_17
REMARK    5  A    between atoms: C_21  and  C_22
REMARK    6  A    between atoms: C_22  and  C_23
REMARK    7  A    between atoms: C_29  and  C_31
REMARK    8  A    between atoms: C_31  and  C_32
REMARK    9  A    between atoms: C_33  and  C_34
REMARK                            x       y       z     vdW  Elec       q    Type
REMARK                         _______ _______ _______ _____ _____    ______ ____
ROOT
ATOM      1  C   UNL A   1     -28.016  -0.814  28.878  0.00  0.00    -0.002 A 
ATOM      2  C   UNL A   1     -28.469  -0.785  29.829  0.00  0.00    +0.009 A 
ATOM      3  C   UNL A   1     -27.136   0.236  28.535  0.00  0.00    -0.000 A 
ATOM      4  C   UNL A   1     -26.875   1.282  29.398  0.00  0.00    -0.000 A 
ATOM      5  C   UNL A   1     -27.524   1.209  30.638  0.00  0.00    -0.000 A 
ATOM      6  C   UNL A   1     -28.322   0.127  30.959  0.00  0.00    -0.002 A 
ATOM      7  C   UNL A   1     -26.475   0.272  27.172  0.00  0.00    -0.000 A 
ATOM      8  C   UNL A   1     -25.423   1.105  26.986  0.00  0.00    +0.004 A 
ATOM      9  C   UNL A   1     -25.175   2.204  27.930  0.00  0.00    +0.071 A 
ATOM     10  C   UNL A   1     -25.831   2.230  29.131  0.00  0.00    +0.004 A 
ENDROOT
BRANCH   2  11
ATOM     11  C   UNL A   1     -29.395  -1.924  30.286  0.00  0.00    +0.155 C 
ATOM     12  N   UNL A   1     -30.393  -1.835  30.162  0.00  0.00    -0.199 NA
ATOM     13  N   UNL A   1     -28.698  -3.171  30.403  0.00  0.00    -0.257 NA
ATOM     14  C   UNL A   1     -29.455  -4.286  30.570  0.00  0.00    +0.075 C 
ATOM     15  C   UNL A   1     -31.295  -2.953  30.380  0.00  0.00    +0.092 C 
ATOM     16  C   UNL A   1     -30.776  -4.225  30.551  0.00  0.00    +0.036 C 
BRANCH  13  17
ATOM     17  C   UNL A   1     -27.213  -3.286  30.404  0.00  0.00    +0.074 C 
BRANCH  17  18
ATOM     18  C   UNL A   1     -26.596  -3.488  29.118  0.00  0.00    +0.017 C 
BRANCH  18  19
ATOM     19  C   UNL A   1     -25.131  -3.605  29.311  0.00  0.00    +0.001 C 
ATOM     20  C   UNL A   1     -24.345  -4.111  28.294  0.00  0.00    +0.000 C 
ENDBRANCH  18  19
ENDBRANCH  17  18
ENDBRANCH  13  17
ENDBRANCH   2  11
BRANCH   5  21
ATOM     21  C   UNL A   1     -27.259   2.275  31.663  0.00  0.00    -0.000 A 
ATOM     22  C   UNL A   1     -27.492   2.328  32.719  0.00  0.00    -0.000 A 
ATOM     23  C   UNL A   1     -27.489   3.022  33.596  0.00  0.00    -0.000 A 
ATOM     24  C   UNL A   1     -26.993   4.428  33.292  0.00  0.00    -0.004 A 
ATOM     25  C   UNL A   1     -26.571   4.611  31.964  0.00  0.00    -0.018 A 
ATOM     26  C   UNL A   1     -26.757   3.575  31.077  0.00  0.00    -0.004 A 
BRANCH  25  27
ATOM     27  C   UNL A   1     -26.027   5.936  31.599  0.00  0.00    +0.052 C 
BRANCH  27  28
ATOM     28  C   UNL A   1     -26.901   6.976  31.473  0.00  0.00    -0.021 C 
ATOM     29  C   UNL A   1     -27.145   7.516  30.473  0.00  0.00    -0.004 C 
BRANCH  29  30
ATOM     30  C   UNL A   1     -26.198   7.472  29.319  0.00  0.00    -0.000 C 
ATOM     31  C   UNL A   1     -25.096   6.589  29.502  0.00  0.00    -0.000 C 
ENDBRANCH  29  30
ENDBRANCH  27  28
ENDBRANCH  25  27
ENDBRANCH   5  21
BRANCH   9  32
ATOM     32  C   UNL A   1     -24.121   3.183  27.529  0.00  0.00    +0.419 C 
ATOM     33  F   UNL A   1     -23.372   2.939  26.621  0.00  0.00    -0.166 F 
ATOM     34  F   UNL A   1     -24.850   4.384  27.139  0.00  0.00    -0.166 F 
ATOM     35  F   UNL A   1     -23.435   3.633  28.565  0.00  0.00    -0.166 F 
ENDBRANCH   9  32
TORSDOF 9
