MODEL 3889
MODEL 1
REMARK VINA RESULT:    -7.334      0.000      0.000
REMARK INTER + INTRA:          -9.455
REMARK INTER:                  -8.620
REMARK INTRA:                  -0.835
REMARK UNBOUND:                -0.835
REMARK  Name = No_3889-gen_results/8p0m/2024-11-26-14-13-15/
REMARK  3 active torsions:
REMARK  status: ('A' for Active; 'I' for Inactive)
REMARK    1  A    between atoms: C_2  and  C_17
REMARK    2  A    between atoms: C_6  and  C_28
REMARK    3  A    between atoms: N_7  and  C_8
REMARK                            x       y       z     vdW  Elec       q    Type
REMARK                         _______ _______ _______ _____ _____    ______ ____
ROOT
ATOM      1  C   UNL A   1     -11.027   1.924  35.997  0.00  0.00    +0.163 A 
ATOM      2  C   UNL A   1     -10.955   1.510  35.031  0.00  0.00    +0.091 A 
ATOM      3  C   UNL A   1     -12.342   2.509  36.286  0.00  0.00    +0.088 A 
ATOM      4  C   UNL A   1     -13.279   2.661  35.349  0.00  0.00    +0.021 A 
ATOM      5  C   UNL A   1     -11.640   1.481  34.117  0.00  0.00    +0.011 A 
ATOM      6  C   UNL A   1     -12.931   2.049  34.188  0.00  0.00    +0.044 A 
ATOM      7  N   UNL A   1     -12.542   3.049  37.608  0.00  0.00    -0.269 N 
ATOM      8  C   UNL A   1     -12.271   2.060  38.722  0.00  0.00    +0.184 C 
ATOM      9  C   UNL A   1     -11.914   0.773  38.554  0.00  0.00    +0.048 A 
ATOM     10  C   UNL A   1     -11.950  -0.145  39.549  0.00  0.00    +0.031 A 
ATOM     11  C   UNL A   1     -11.507  -1.521  39.392  0.00  0.00    +0.140 A 
ATOM     12  C   UNL A   1     -10.811  -1.862  38.242  0.00  0.00    +0.033 A 
ATOM     13  C   UNL A   1     -10.688  -0.997  37.232  0.00  0.00    +0.040 A 
ATOM     14  C   UNL A   1     -11.187   0.236  37.352  0.00  0.00    +0.144 A 
ATOM     15  O   UNL A   1     -10.857   1.003  36.445  0.00  0.00    -0.452 OA
ATOM     16 CL   UNL A   1     -12.643   2.583  40.278  0.00  0.00    -0.087 Cl
ATOM     17  F   UNL A   1     -11.639  -2.347  40.419  0.00  0.00    -0.204 F 
ENDROOT
BRANCH   7  18
ATOM     18  C   UNL A   1     -12.909   4.011  37.979  0.00  0.00    +0.053 A 
ATOM     19  C   UNL A   1     -14.335   4.293  38.073  0.00  0.00    +0.015 A 
ATOM     20  C   UNL A   1     -12.196   5.247  37.861  0.00  0.00    +0.015 A 
ATOM     21  C   UNL A   1     -12.726   6.482  37.822  0.00  0.00    +0.001 A 
ATOM     22  C   UNL A   1     -14.958   5.527  38.224  0.00  0.00    +0.001 A 
ATOM     23  C   UNL A   1     -14.132   6.643  38.132  0.00  0.00    +0.000 A 
ENDBRANCH   7  18
BRANCH   2  24
ATOM     24  C   UNL A   1      -9.419   1.321  34.541  0.00  0.00    +0.268 C 
ATOM     25  O   UNL A   1      -8.885   0.350  34.221  0.00  0.00    -0.268 OA
ATOM     26  N   UNL A   1      -8.680   2.474  34.451  0.00  0.00    -0.200 NA
ATOM     27  C   UNL A   1      -7.278   2.483  34.026  0.00  0.00    +0.139 C 
ENDBRANCH   2  24
BRANCH   6  28
ATOM     28  C   UNL A   1     -13.904   2.110  32.976  0.00  0.00    +0.234 C 
ATOM     29  O   UNL A   1     -14.006   2.908  32.223  0.00  0.00    -0.283 OA
ENDBRANCH   6  28
TORSDOF 3
ENDMDL
ENDMDL
