REMARK  Name = No_3889-gen_results/8p0m/2024-11-26-14-13-15/
REMARK  3 active torsions:
REMARK  status: ('A' for Active; 'I' for Inactive)
REMARK    1  A    between atoms: C_2  and  C_17
REMARK    2  A    between atoms: C_6  and  C_28
REMARK    3  A    between atoms: N_7  and  C_8
REMARK                            x       y       z     vdW  Elec       q    Type
REMARK                         _______ _______ _______ _____ _____    ______ ____
ROOT
ATOM      1  C   UNL A   1     -28.016  -0.814  28.878  0.00  0.00    +0.163 A 
ATOM      2  C   UNL A   1     -28.469  -0.785  29.829  0.00  0.00    +0.091 A 
ATOM      3  C   UNL A   1     -28.182   0.428  28.113  0.00  0.00    +0.088 A 
ATOM      4  C   UNL A   1     -28.984   1.415  28.515  0.00  0.00    +0.021 A 
ATOM      5  C   UNL A   1     -29.135  -0.036  30.378  0.00  0.00    +0.011 A 
ATOM      6  C   UNL A   1     -29.453   1.198  29.771  0.00  0.00    +0.044 A 
ATOM      7  N   UNL A   1     -27.545   0.491  26.821  0.00  0.00    -0.269 N 
ATOM      8  C   UNL A   1     -26.056   0.219  26.858  0.00  0.00    +0.184 C 
ATOM      9  C   UNL A   1     -25.333  -0.025  27.967  0.00  0.00    +0.048 A 
ATOM     10  C   UNL A   1     -23.980   0.011  27.997  0.00  0.00    +0.031 A 
ATOM     11  C   UNL A   1     -23.191  -0.312  29.174  0.00  0.00    +0.140 A 
ATOM     12  C   UNL A   1     -23.831  -0.896  30.257  0.00  0.00    +0.033 A 
ATOM     13  C   UNL A   1     -25.162  -1.013  30.286  0.00  0.00    +0.040 A 
ATOM     14  C   UNL A   1     -25.884  -0.621  29.234  0.00  0.00    +0.144 A 
ATOM     15  O   UNL A   1     -27.072  -0.944  29.290  0.00  0.00    -0.452 OA
ATOM     16 CL   UNL A   1     -25.231   0.438  25.407  0.00  0.00    -0.087 Cl
ATOM     17  F   UNL A   1     -21.874  -0.190  29.104  0.00  0.00    -0.204 F 
ENDROOT
BRANCH   7  18
ATOM     18  C   UNL A   1     -27.900   0.755  25.820  0.00  0.00    +0.053 A 
ATOM     19  C   UNL A   1     -28.420   2.084  25.527  0.00  0.00    +0.015 A 
ATOM     20  C   UNL A   1     -28.455  -0.179  24.888  0.00  0.00    +0.015 A 
ATOM     21  C   UNL A   1     -29.329   0.089  23.902  0.00  0.00    +0.001 A 
ATOM     22  C   UNL A   1     -29.174   2.488  24.430  0.00  0.00    +0.001 A 
ATOM     23  C   UNL A   1     -29.608   1.474  23.581  0.00  0.00    +0.000 A 
ENDBRANCH   7  18
BRANCH   2  24
ATOM     24  C   UNL A   1     -28.716  -2.263  30.453  0.00  0.00    +0.268 C 
ATOM     25  O   UNL A   1     -27.939  -3.088  30.666  0.00  0.00    -0.268 OA
ATOM     26  N   UNL A   1     -30.010  -2.543  30.817  0.00  0.00    -0.200 NA
ATOM     27  C   UNL A   1     -30.407  -3.829  31.395  0.00  0.00    +0.139 C 
ENDBRANCH   2  24
BRANCH   6  28
ATOM     28  C   UNL A   1     -30.402   2.248  30.419  0.00  0.00    +0.234 C 
ATOM     29  O   UNL A   1     -30.622   2.399  31.488  0.00  0.00    -0.283 OA
ENDBRANCH   6  28
TORSDOF 3
