MODEL 388
MODEL 1
REMARK VINA RESULT:    -4.809      0.000      0.000
REMARK INTER + INTRA:          -4.809
REMARK INTER:                  -4.809
REMARK INTRA:                   0.000
REMARK UNBOUND:                 0.000
REMARK  Name = No_388-gen_results/8p0m/2024-11-26-14-13-15/
REMARK  0 active torsions:
REMARK  status: ('A' for Active; 'I' for Inactive)
REMARK                            x       y       z     vdW  Elec       q    Type
REMARK                         _______ _______ _______ _____ _____    ______ ____
ROOT
ATOM      1  C   UNL A   1      -8.156 -10.479  18.680  0.00  0.00    +0.041 A 
ATOM      2  C   UNL A   1      -9.130 -10.473  17.964  0.00  0.00    +0.141 A 
ATOM      3  C   UNL A   1     -10.277  -9.769  18.319  0.00  0.00    +0.030 A 
ATOM      4  C   UNL A   1     -10.356  -9.064  19.572  0.00  0.00    +0.003 A 
ATOM      5  C   UNL A   1      -9.193  -9.144  20.348  0.00  0.00    +0.011 A 
ATOM      6  C   UNL A   1      -8.230  -9.799  19.964  0.00  0.00    +0.060 A 
ATOM      7  F   UNL A   1      -9.212 -11.134  16.809  0.00  0.00    -0.204 F 
ATOM      8 CL   UNL A   1      -6.822  -9.871  21.045  0.00  0.00    -0.082 Cl
ENDROOT
TORSDOF 0
ENDMDL
ENDMDL
