REMARK  Name = No_389-gen_results/8p0m/2024-11-26-14-13-15/
REMARK  7 active torsions:
REMARK  status: ('A' for Active; 'I' for Inactive)
REMARK    1  A    between atoms: C_5  and  C_23
REMARK    2  A    between atoms: C_7  and  C_17
REMARK    3  A    between atoms: C_8  and  C_9
REMARK    4  A    between atoms: C_15  and  O_22
REMARK    5  A    between atoms: C_17  and  C_18
REMARK    6  A    between atoms: O_22  and  C_26
REMARK    7  A    between atoms: C_26  and  C_27
REMARK                            x       y       z     vdW  Elec       q    Type
REMARK                         _______ _______ _______ _____ _____    ______ ____
ROOT
ATOM      1  N   UNL A   1     -28.054  -1.050  28.725  0.00  0.00    -0.246 NA
ATOM      2  C   UNL A   1     -27.746  -0.073  29.010  0.00  0.00    +0.077 A 
ATOM      3  C   UNL A   1     -27.556   0.337  30.339  0.00  0.00    +0.018 A 
ATOM      4  C   UNL A   1     -27.071   1.671  30.790  0.00  0.00    +0.008 A 
ATOM      5  C   UNL A   1     -26.654   2.522  29.736  0.00  0.00    +0.080 A 
ATOM      6  C   UNL A   1     -26.730   2.060  28.408  0.00  0.00    +0.004 A 
ATOM      7  C   UNL A   1     -27.189   0.815  28.052  0.00  0.00    +0.004 A 
ATOM      8  C   UNL A   1     -28.678  -1.866  29.768  0.00  0.00    +0.081 A 
ATOM      9  C   UNL A   1     -28.711  -1.512  31.150  0.00  0.00    +0.019 A 
ATOM     10  C   UNL A   1     -28.124  -0.388  31.451  0.00  0.00    +0.003 A 
ENDROOT
BRANCH   8  11
ATOM     11  C   UNL A   1     -29.133  -3.196  29.463  0.00  0.00    +0.021 A 
ATOM     12  C   UNL A   1     -29.112  -4.196  30.535  0.00  0.00    +0.002 A 
ATOM     13  C   UNL A   1     -29.645  -5.463  30.131  0.00  0.00    +0.003 A 
ATOM     14  C   UNL A   1     -30.364  -5.589  28.976  0.00  0.00    +0.037 A 
ATOM     15  C   UNL A   1     -30.636  -4.595  28.123  0.00  0.00    +0.139 A 
ATOM     16  C   UNL A   1     -30.066  -3.390  28.473  0.00  0.00    +0.038 A 
BRANCH  15  17
ATOM     17  O   UNL A   1     -31.332  -4.796  27.016  0.00  0.00    -0.471 OA
BRANCH  17  18
ATOM     18  C   UNL A   1     -32.669  -4.770  27.091  0.00  0.00    +0.232 C 
BRANCH  18  19
ATOM     19  C   UNL A   1     -33.184  -3.695  27.671  0.00  0.00    +0.021 A 
ATOM     20  C   UNL A   1     -33.992  -3.075  27.544  0.00  0.00    -0.001 A 
ATOM     21  C   UNL A   1     -34.448  -1.960  28.059  0.00  0.00    -0.000 A 
ATOM     22  C   UNL A   1     -33.781  -1.443  29.251  0.00  0.00    -0.000 A 
ATOM     23  C   UNL A   1     -32.690  -2.195  29.638  0.00  0.00    -0.000 A 
ATOM     24  C   UNL A   1     -32.317  -3.266  28.884  0.00  0.00    -0.001 A 
ENDBRANCH  18  19
ENDBRANCH  17  18
ENDBRANCH  15  17
ENDBRANCH   8  11
BRANCH   5  25
ATOM     25  C   UNL A   1     -26.044   3.826  30.035  0.00  0.00    +0.388 C 
ATOM     26  O   UNL A   1     -25.498   4.024  31.018  0.00  0.00    -0.241 OA
ATOM     27  O   UNL A   1     -26.070   4.723  29.088  0.00  0.00    -0.241 OA
ENDBRANCH   5  25
BRANCH   7  28
ATOM     28  C   UNL A   1     -27.215   0.504  26.615  0.00  0.00    +0.131 C 
BRANCH  28  29
ATOM     29  C   UNL A   1     -28.271   1.021  25.834  0.00  0.00    +0.402 C 
ATOM     30  F   UNL A   1     -28.160   0.585  24.726  0.00  0.00    -0.170 F 
ATOM     31  F   UNL A   1     -29.455   0.756  26.334  0.00  0.00    -0.170 F 
ATOM     32  F   UNL A   1     -28.125   2.351  25.606  0.00  0.00    -0.170 F 
ENDBRANCH  28  29
ENDBRANCH   7  28
TORSDOF 7
