REMARK  Name = No_3890-gen_results/8p0m/2024-11-26-14-13-15/
REMARK  1 active torsions:
REMARK  status: ('A' for Active; 'I' for Inactive)
REMARK    1  A    between atoms: N_4  and  C_12
REMARK                            x       y       z     vdW  Elec       q    Type
REMARK                         _______ _______ _______ _____ _____    ______ ____
ROOT
ATOM      1  O   UNL A   1     -28.123  -1.335  28.487  0.00  0.00    -0.274 OA
ATOM      2  C   UNL A   1     -27.481  -0.404  28.709  0.00  0.00    +0.240 C 
ATOM      3  C   UNL A   1     -26.380  -0.087  27.939  0.00  0.00    +0.113 C 
ATOM      4  N   UNL A   1     -27.423   0.175  30.055  0.00  0.00    -0.204 N 
ATOM      5  C   UNL A   1     -25.848   1.005  27.994  0.00  0.00    -0.009 A 
ATOM      6  C   UNL A   1     -24.725   1.490  27.170  0.00  0.00    -0.004 A 
ATOM      7  C   UNL A   1     -23.760   2.380  27.612  0.00  0.00    -0.000 A 
ATOM      8  C   UNL A   1     -24.026   2.946  28.841  0.00  0.00    +0.000 A 
ATOM      9  C   UNL A   1     -24.985   2.546  29.726  0.00  0.00    +0.004 A 
ATOM     10  C   UNL A   1     -25.793   1.500  29.300  0.00  0.00    +0.051 A 
ATOM     11  C   UNL A   1     -26.721   1.084  30.296  0.00  0.00    +0.258 C 
ATOM     12  O   UNL A   1     -26.758   1.674  31.477  0.00  0.00    -0.269 OA
ENDROOT
BRANCH   4  13
ATOM     13  C   UNL A   1     -28.497  -0.458  30.934  0.00  0.00    +0.062 A 
ATOM     14  C   UNL A   1     -28.528  -1.246  31.799  0.00  0.00    +0.015 A 
ATOM     15  C   UNL A   1     -29.535  -1.722  32.617  0.00  0.00    +0.002 A 
ATOM     16  C   UNL A   1     -30.796  -1.212  32.336  0.00  0.00    +0.011 A 
ATOM     17  C   UNL A   1     -29.874   0.172  30.642  0.00  0.00    +0.027 A 
ATOM     18  C   UNL A   1     -30.913  -0.236  31.382  0.00  0.00    +0.059 A 
ATOM     19 CL   UNL A   1     -32.459   0.462  31.079  0.00  0.00    -0.082 Cl
ENDBRANCH   4  13
TORSDOF 1
