MODEL 3891
MODEL 1
REMARK VINA RESULT:    -5.268      0.000      0.000
REMARK INTER + INTRA:          -5.268
REMARK INTER:                  -5.268
REMARK INTRA:                   0.000
REMARK UNBOUND:                 0.000
REMARK  Name = No_3891-gen_results/8p0m/2024-11-26-14-13-15/
REMARK  0 active torsions:
REMARK  status: ('A' for Active; 'I' for Inactive)
REMARK                            x       y       z     vdW  Elec       q    Type
REMARK                         _______ _______ _______ _____ _____    ______ ____
ROOT
ATOM      1  C   UNL A   1     -24.069  -2.977  29.256  0.00  0.00    +0.081 A 
ATOM      2  C   UNL A   1     -25.135  -2.516  29.593  0.00  0.00    +0.018 A 
ATOM      3  C   UNL A   1     -25.302  -1.216  30.029  0.00  0.00    +0.003 A 
ATOM      4  C   UNL A   1     -24.245  -0.405  29.879  0.00  0.00    +0.021 A 
ATOM      5  C   UNL A   1     -24.072  -4.399  28.776  0.00  0.00    +0.019 A 
ATOM      6  C   UNL A   1     -25.153  -5.195  29.056  0.00  0.00    +0.002 A 
ATOM      7  C   UNL A   1     -26.284  -4.733  29.649  0.00  0.00    +0.000 A 
ATOM      8  C   UNL A   1     -26.350  -3.376  29.934  0.00  0.00    +0.002 A 
ATOM      9  C   UNL A   1     -23.192  -0.892  29.187  0.00  0.00    +0.099 A 
ATOM     10  N   UNL A   1     -23.090  -2.179  28.840  0.00  0.00    -0.244 NA
ENDROOT
TORSDOF 0
ENDMDL
ENDMDL
