MODEL 3892
MODEL 1
REMARK VINA RESULT:    -7.919      0.000      0.000
REMARK INTER + INTRA:         -11.813
REMARK INTER:                 -10.697
REMARK INTRA:                  -1.116
REMARK UNBOUND:                -1.116
REMARK  Name = No_3892-gen_results/8p0m/2024-11-26-14-13-15/
REMARK  6 active torsions:
REMARK  status: ('A' for Active; 'I' for Inactive)
REMARK    1  A    between atoms: C_2  and  C_4
REMARK    2  A    between atoms: N_3  and  C_5
REMARK    3  A    between atoms: C_5  and  C_14
REMARK    4  A    between atoms: N_6  and  C_7
REMARK    5  A    between atoms: C_14  and  C_15
REMARK    6  A    between atoms: C_14  and  C_21
REMARK                            x       y       z     vdW  Elec       q    Type
REMARK                         _______ _______ _______ _____ _____    ______ ____
ROOT
ATOM      1  C   UNL A   1     -25.885   1.505  28.199  0.00  0.00    +0.124 C 
ENDROOT
BRANCH   1   4
ATOM      2  O   UNL A   1     -25.104   0.474  30.575  0.00  0.00    -0.263 OA
ATOM      3  C   UNL A   1     -26.045   0.023  30.099  0.00  0.00    +0.319 C 
ATOM      4  N   UNL A   1     -26.505   0.453  28.925  0.00  0.00    -0.197 NA
BRANCH   3   5
ATOM      5  C   UNL A   1     -26.768  -1.091  30.778  0.00  0.00    +0.308 C 
ATOM      6  N   UNL A   1     -26.953  -2.101  30.215  0.00  0.00    -0.250 N 
ATOM      7  O   UNL A   1     -27.405  -0.666  31.801  0.00  0.00    -0.265 OA
ATOM      8  C   UNL A   1     -28.242  -2.816  30.689  0.00  0.00    +0.120 C 
BRANCH   6   9
ATOM      9  C   UNL A   1     -26.043  -2.963  29.836  0.00  0.00    +0.054 A 
ATOM     10  C   UNL A   1     -26.318  -4.329  29.735  0.00  0.00    +0.015 A 
ATOM     11  C   UNL A   1     -25.368  -5.227  29.343  0.00  0.00    +0.001 A 
ATOM     12  C   UNL A   1     -24.495  -5.056  28.782  0.00  0.00    +0.000 A 
ATOM     13  C   UNL A   1     -23.978  -3.640  28.680  0.00  0.00    +0.001 A 
ATOM     14  C   UNL A   1     -24.988  -2.716  28.884  0.00  0.00    +0.015 A 
ENDBRANCH   6   9
ENDBRANCH   3   5
ENDBRANCH   1   4
BRANCH   1  15
ATOM     15  C   UNL A   1     -25.535   1.156  27.016  0.00  0.00    +0.066 C 
BRANCH  15  16
ATOM     16  C   UNL A   1     -24.204   0.672  26.759  0.00  0.00    -0.017 A 
ATOM     17  C   UNL A   1     -23.332   0.079  27.728  0.00  0.00    -0.004 A 
ATOM     18  C   UNL A   1     -22.529   0.897  28.241  0.00  0.00    -0.000 A 
ATOM     19  C   UNL A   1     -21.975   1.986  27.383  0.00  0.00    -0.000 A 
ATOM     20  C   UNL A   1     -22.703   2.246  26.231  0.00  0.00    -0.000 A 
ATOM     21  C   UNL A   1     -23.832   1.564  25.959  0.00  0.00    -0.004 A 
ENDBRANCH  15  16
BRANCH  15  22
ATOM     22  C   UNL A   1     -26.449   1.217  25.832  0.00  0.00    -0.017 A 
ATOM     23  C   UNL A   1     -26.774   0.336  25.174  0.00  0.00    -0.004 A 
ATOM     24  C   UNL A   1     -27.662   0.354  23.978  0.00  0.00    -0.000 A 
ATOM     25  C   UNL A   1     -28.243   1.633  23.742  0.00  0.00    -0.000 A 
ATOM     26  C   UNL A   1     -27.889   2.749  24.588  0.00  0.00    -0.000 A 
ATOM     27  C   UNL A   1     -27.057   2.538  25.676  0.00  0.00    -0.004 A 
ENDBRANCH  15  22
ENDBRANCH   1  15
TORSDOF 6
ENDMDL
ENDMDL
