REMARK  Name = No_3892-gen_results/8p0m/2024-11-26-14-13-15/
REMARK  6 active torsions:
REMARK  status: ('A' for Active; 'I' for Inactive)
REMARK    1  A    between atoms: C_2  and  C_4
REMARK    2  A    between atoms: N_3  and  C_5
REMARK    3  A    between atoms: C_5  and  C_14
REMARK    4  A    between atoms: N_6  and  C_7
REMARK    5  A    between atoms: C_14  and  C_15
REMARK    6  A    between atoms: C_14  and  C_21
REMARK                            x       y       z     vdW  Elec       q    Type
REMARK                         _______ _______ _______ _____ _____    ______ ____
ROOT
ATOM      1  C   UNL A   1     -26.482  -0.283  30.363  0.00  0.00    +0.124 C 
ENDROOT
BRANCH   1   4
ATOM      2  O   UNL A   1     -28.123  -1.335  28.487  0.00  0.00    -0.263 OA
ATOM      3  C   UNL A   1     -28.521  -0.436  29.078  0.00  0.00    +0.319 C 
ATOM      4  N   UNL A   1     -27.786   0.161  30.015  0.00  0.00    -0.197 NA
BRANCH   3   5
ATOM      5  C   UNL A   1     -29.877   0.113  28.785  0.00  0.00    +0.308 C 
ATOM      6  N   UNL A   1     -30.068   1.267  28.836  0.00  0.00    -0.250 N 
ATOM      7  O   UNL A   1     -30.764  -0.806  28.845  0.00  0.00    -0.265 OA
ATOM      8  C   UNL A   1     -31.526   1.609  29.228  0.00  0.00    +0.120 C 
BRANCH   6   9
ATOM      9  C   UNL A   1     -29.561   2.179  28.044  0.00  0.00    +0.054 A 
ATOM     10  C   UNL A   1     -29.734   3.544  28.287  0.00  0.00    +0.015 A 
ATOM     11  C   UNL A   1     -29.208   4.493  27.459  0.00  0.00    +0.001 A 
ATOM     12  C   UNL A   1     -28.398   4.408  26.794  0.00  0.00    +0.000 A 
ATOM     13  C   UNL A   1     -27.956   3.024  26.380  0.00  0.00    +0.001 A 
ATOM     14  C   UNL A   1     -28.318   2.075  27.321  0.00  0.00    +0.015 A 
ENDBRANCH   6   9
ENDBRANCH   3   5
ENDBRANCH   1   4
BRANCH   1  15
ATOM     15  C   UNL A   1     -25.615   0.661  30.355  0.00  0.00    +0.066 C 
BRANCH  15  16
ATOM     16  C   UNL A   1     -24.323   0.463  29.752  0.00  0.00    -0.017 A 
ATOM     17  C   UNL A   1     -23.345   1.484  29.525  0.00  0.00    -0.004 A 
ATOM     18  C   UNL A   1     -23.391   1.968  28.367  0.00  0.00    -0.000 A 
ATOM     19  C   UNL A   1     -23.728   1.063  27.228  0.00  0.00    -0.000 A 
ATOM     20  C   UNL A   1     -24.358  -0.119  27.591  0.00  0.00    -0.000 A 
ATOM     21  C   UNL A   1     -24.650  -0.378  28.880  0.00  0.00    -0.004 A 
ENDBRANCH  15  16
BRANCH  15  22
ATOM     22  C   UNL A   1     -25.858   2.012  30.953  0.00  0.00    -0.017 A 
ATOM     23  C   UNL A   1     -25.447   2.401  31.950  0.00  0.00    -0.004 A 
ATOM     24  C   UNL A   1     -25.678   3.726  32.590  0.00  0.00    -0.000 A 
ATOM     25  C   UNL A   1     -26.413   4.619  31.760  0.00  0.00    -0.000 A 
ATOM     26  C   UNL A   1     -26.900   4.169  30.476  0.00  0.00    -0.000 A 
ATOM     27  C   UNL A   1     -26.566   2.900  30.031  0.00  0.00    -0.004 A 
ENDBRANCH  15  22
ENDBRANCH   1  15
TORSDOF 6
