MODEL 3893
MODEL 1
REMARK VINA RESULT:    -6.687      0.000      0.000
REMARK INTER + INTRA:          -9.403
REMARK INTER:                  -8.641
REMARK INTRA:                  -0.762
REMARK UNBOUND:                -0.762
REMARK  Name = No_3893-gen_results/8p0m/2024-11-26-14-13-15/
REMARK  5 active torsions:
REMARK  status: ('A' for Active; 'I' for Inactive)
REMARK    1  A    between atoms: C_1  and  C_2
REMARK    2  A    between atoms: C_1  and  C_8
REMARK    3  A    between atoms: C_5  and  C_11
REMARK    4  A    between atoms: C_15  and  C_17
REMARK    5  A    between atoms: C_17  and  C_18
REMARK                            x       y       z     vdW  Elec       q    Type
REMARK                         _______ _______ _______ _____ _____    ______ ____
ROOT
ATOM      1  C   UNL A   1     -26.787   0.314  24.774  0.00  0.00    +0.063 A 
ATOM      2  C   UNL A   1     -27.343  -0.647  24.197  0.00  0.00    +0.015 A 
ATOM      3  N   UNL A   1     -27.130   1.632  24.132  0.00  0.00    -0.248 NA
ATOM      4  C   UNL A   1     -28.418   2.126  24.211  0.00  0.00    +0.095 A 
ATOM      5  C   UNL A   1     -29.222   1.237  23.421  0.00  0.00    +0.001 A 
ATOM      6  C   UNL A   1     -29.066  -0.214  23.677  0.00  0.00    -0.001 A 
ENDROOT
BRANCH   1   7
ATOM      7  C   UNL A   1     -25.284   0.285  24.830  0.00  0.00    +0.072 C 
BRANCH   7   8
ATOM      8  C   UNL A   1     -24.849   0.355  25.956  0.00  0.00    -0.016 A 
ATOM      9  C   UNL A   1     -23.936   1.341  26.313  0.00  0.00    -0.004 A 
ATOM     10  C   UNL A   1     -23.320   1.525  27.659  0.00  0.00    +0.004 A 
ATOM     11  C   UNL A   1     -23.843   0.704  28.701  0.00  0.00    +0.057 A 
ATOM     12  C   UNL A   1     -24.812  -0.249  28.329  0.00  0.00    +0.004 A 
ATOM     13  C   UNL A   1     -25.289  -0.402  27.085  0.00  0.00    -0.004 A 
BRANCH  11  14
ATOM     14  C   UNL A   1     -23.274   0.890  30.013  0.00  0.00    +0.284 C 
ATOM     15  N   UNL A   1     -22.748  -0.084  30.617  0.00  0.00    -0.084 NA
ATOM     16  O   UNL A   1     -23.457   1.958  30.707  0.00  0.00    -0.267 OA
ENDBRANCH  11  14
ENDBRANCH   7   8
ENDBRANCH   1   7
BRANCH   5  17
ATOM     17  C   UNL A   1     -30.738   1.466  23.636  0.00  0.00    +0.054 C 
BRANCH  17  18
ATOM     18  C   UNL A   1     -31.519   1.650  22.627  0.00  0.00    -0.018 A 
ATOM     19  C   UNL A   1     -31.350   2.642  21.839  0.00  0.00    -0.004 A 
ATOM     20  C   UNL A   1     -32.213   2.834  20.649  0.00  0.00    -0.000 A 
ATOM     21  C   UNL A   1     -33.103   1.834  20.401  0.00  0.00    -0.000 A 
ATOM     22  C   UNL A   1     -33.229   0.772  21.210  0.00  0.00    -0.000 A 
ATOM     23  C   UNL A   1     -32.452   0.665  22.318  0.00  0.00    -0.004 A 
ENDBRANCH  17  18
ENDBRANCH   5  17
TORSDOF 5
ENDMDL
ENDMDL
