REMARK  Name = No_3893-gen_results/8p0m/2024-11-26-14-13-15/
REMARK  5 active torsions:
REMARK  status: ('A' for Active; 'I' for Inactive)
REMARK    1  A    between atoms: C_1  and  C_2
REMARK    2  A    between atoms: C_1  and  C_8
REMARK    3  A    between atoms: C_5  and  C_11
REMARK    4  A    between atoms: C_15  and  C_17
REMARK    5  A    between atoms: C_17  and  C_18
REMARK                            x       y       z     vdW  Elec       q    Type
REMARK                         _______ _______ _______ _____ _____    ______ ____
ROOT
ATOM      1  C   UNL A   1     -29.210  -0.026  29.343  0.00  0.00    +0.063 A 
ATOM      2  C   UNL A   1     -29.483  -0.093  30.563  0.00  0.00    +0.015 A 
ATOM      3  N   UNL A   1     -30.352  -0.500  28.483  0.00  0.00    -0.248 NA
ATOM      4  C   UNL A   1     -31.523   0.231  28.422  0.00  0.00    +0.095 A 
ATOM      5  C   UNL A   1     -32.116   0.119  29.724  0.00  0.00    +0.001 A 
ATOM      6  C   UNL A   1     -31.239   0.393  30.887  0.00  0.00    -0.001 A 
ENDROOT
BRANCH   1   7
ATOM      7  C   UNL A   1     -28.016  -0.814  28.878  0.00  0.00    +0.072 C 
BRANCH   7   8
ATOM      8  C   UNL A   1     -27.064  -0.119  28.608  0.00  0.00    -0.016 A 
ATOM      9  C   UNL A   1     -25.792  -0.430  29.076  0.00  0.00    -0.004 A 
ATOM     10  C   UNL A   1     -24.546   0.349  28.823  0.00  0.00    +0.004 A 
ATOM     11  C   UNL A   1     -24.659   1.420  27.888  0.00  0.00    +0.057 A 
ATOM     12  C   UNL A   1     -25.947   1.681  27.379  0.00  0.00    +0.004 A 
ATOM     13  C   UNL A   1     -27.044   0.974  27.687  0.00  0.00    -0.004 A 
BRANCH  11  14
ATOM     14  C   UNL A   1     -23.456   2.165  27.615  0.00  0.00    +0.284 C 
ATOM     15  N   UNL A   1     -23.478   3.121  26.792  0.00  0.00    -0.084 NA
ATOM     16  O   UNL A   1     -22.293   1.780  28.008  0.00  0.00    -0.267 OA
ENDBRANCH  11  14
ENDBRANCH   7   8
ENDBRANCH   1   7
BRANCH   5  17
ATOM     17  C   UNL A   1     -33.283   1.117  29.927  0.00  0.00    +0.054 C 
BRANCH  17  18
ATOM     18  C   UNL A   1     -33.047   2.376  30.069  0.00  0.00    -0.018 A 
ATOM     19  C   UNL A   1     -32.036   2.921  29.508  0.00  0.00    -0.004 A 
ATOM     20  C   UNL A   1     -31.783   4.377  29.626  0.00  0.00    -0.000 A 
ATOM     21  C   UNL A   1     -32.751   5.091  30.264  0.00  0.00    -0.000 A 
ATOM     22  C   UNL A   1     -33.834   4.509  30.799  0.00  0.00    -0.000 A 
ATOM     23  C   UNL A   1     -33.996   3.164  30.712  0.00  0.00    -0.004 A 
ENDBRANCH  17  18
ENDBRANCH   5  17
TORSDOF 5
