REMARK  Name = No_3894-gen_results/8p0m/2024-11-26-14-13-15/
REMARK  2 active torsions:
REMARK  status: ('A' for Active; 'I' for Inactive)
REMARK    1  A    between atoms: C_11  and  C_12
REMARK    2  A    between atoms: C_13  and  C_14
REMARK                            x       y       z     vdW  Elec       q    Type
REMARK                         _______ _______ _______ _____ _____    ______ ____
ROOT
ATOM      1 CL   UNL A   1     -28.149  -0.820  28.908  0.00  0.00    -0.082 Cl
ATOM      2  C   UNL A   1     -28.532  -0.047  29.773  0.00  0.00    +0.058 A 
ATOM      3  C   UNL A   1     -27.602   0.785  30.319  0.00  0.00    +0.011 A 
ATOM      4  C   UNL A   1     -27.926   1.809  31.369  0.00  0.00    +0.001 A 
ATOM      5  C   UNL A   1     -29.282   1.830  31.744  0.00  0.00    +0.000 A 
ATOM      6  C   UNL A   1     -30.164   1.002  31.242  0.00  0.00    +0.001 A 
ATOM      7  C   UNL A   1     -29.816   0.049  30.295  0.00  0.00    +0.011 A 
ATOM      8  C   UNL A   1     -29.530   2.869  32.791  0.00  0.00    +0.000 A 
ATOM      9  C   UNL A   1     -28.741   3.590  33.172  0.00  0.00    +0.000 A 
ATOM     10  C   UNL A   1     -27.262   3.509  32.694  0.00  0.00    +0.000 A 
ATOM     11  C   UNL A   1     -26.900   2.626  31.814  0.00  0.00    +0.000 A 
ENDROOT
BRANCH  11  12
ATOM     12  C   UNL A   1     -25.490   2.542  31.408  0.00  0.00    +0.008 C 
ATOM     13  C   UNL A   1     -24.865   3.598  30.923  0.00  0.00    +0.098 C 
BRANCH  13  14
ATOM     14  C   UNL A   1     -25.284   4.469  30.518  0.00  0.00    +0.413 C 
ATOM     15  N   UNL A   1     -25.289   5.489  30.861  0.00  0.00    +0.197 NA
ATOM     16  N   UNL A   1     -25.637   4.289  29.130  0.00  0.00    -0.023 NA
ATOM     17  C   UNL A   1     -26.075   5.430  28.526  0.00  0.00    +0.306 C 
ENDBRANCH  13  14
ENDBRANCH  11  12
TORSDOF 2
