MODEL 3894
MODEL 1
REMARK VINA RESULT:    -6.610      0.000      0.000
REMARK INTER + INTRA:          -7.230
REMARK INTER:                  -7.383
REMARK INTRA:                   0.153
REMARK UNBOUND:                 0.153
REMARK  Name = No_3894-gen_results/8p0m/2024-11-26-14-13-15/
REMARK  2 active torsions:
REMARK  status: ('A' for Active; 'I' for Inactive)
REMARK    1  A    between atoms: C_11  and  C_12
REMARK    2  A    between atoms: C_13  and  C_14
REMARK                            x       y       z     vdW  Elec       q    Type
REMARK                         _______ _______ _______ _____ _____    ______ ____
ROOT
ATOM      1 CL   UNL A   1     -23.899  -4.942  28.205  0.00  0.00    -0.082 Cl
ATOM      2  C   UNL A   1     -24.521  -4.158  28.905  0.00  0.00    +0.058 A 
ATOM      3  C   UNL A   1     -23.897  -2.995  29.242  0.00  0.00    +0.011 A 
ATOM      4  C   UNL A   1     -24.543  -1.922  30.070  0.00  0.00    +0.001 A 
ATOM      5  C   UNL A   1     -25.855  -2.227  30.474  0.00  0.00    +0.000 A 
ATOM      6  C   UNL A   1     -26.436  -3.363  30.178  0.00  0.00    +0.001 A 
ATOM      7  C   UNL A   1     -25.792  -4.343  29.435  0.00  0.00    +0.011 A 
ATOM      8  C   UNL A   1     -26.433  -1.118  31.294  0.00  0.00    +0.000 A 
ATOM      9  C   UNL A   1     -25.906  -0.134  31.496  0.00  0.00    +0.000 A 
ATOM     10  C   UNL A   1     -24.454   0.131  31.000  0.00  0.00    +0.000 A 
ATOM     11  C   UNL A   1     -23.819  -0.765  30.308  0.00  0.00    +0.000 A 
ENDROOT
BRANCH  11  12
ATOM     12  C   UNL A   1     -22.435  -0.509  29.885  0.00  0.00    +0.008 C 
ATOM     13  C   UNL A   1     -22.175   0.346  28.914  0.00  0.00    +0.098 C 
BRANCH  13  14
ATOM     14  C   UNL A   1     -22.828   0.708  28.178  0.00  0.00    +0.413 C 
ATOM     15  N   UNL A   1     -23.503   0.206  27.508  0.00  0.00    +0.197 NA
ATOM     16  N   UNL A   1     -23.057   2.126  28.328  0.00  0.00    -0.023 NA
ATOM     17  C   UNL A   1     -23.993   2.621  27.468  0.00  0.00    +0.306 C 
ENDBRANCH  13  14
ENDBRANCH  11  12
TORSDOF 2
ENDMDL
ENDMDL
