MODEL 3895
MODEL 1
REMARK VINA RESULT:    -5.077      0.000      0.000
REMARK INTER + INTRA:          -5.804
REMARK INTER:                  -5.670
REMARK INTRA:                  -0.134
REMARK UNBOUND:                -0.134
REMARK  Name = No_3895-gen_results/8p0m/2024-11-26-14-13-15/
REMARK  2 active torsions:
REMARK  status: ('A' for Active; 'I' for Inactive)
REMARK    1  A    between atoms: C_2  and  C_7
REMARK    2  A    between atoms: N_8  and  C_10
REMARK                            x       y       z     vdW  Elec       q    Type
REMARK                         _______ _______ _______ _____ _____    ______ ____
ROOT
ATOM      1  C   UNL A   1     -23.858  -3.516  28.568  0.00  0.00    +0.005 A 
ATOM      2  C   UNL A   1     -24.600  -2.638  28.941  0.00  0.00    +0.055 A 
ATOM      3  C   UNL A   1     -25.808  -2.934  29.563  0.00  0.00    +0.005 A 
ATOM      4  C   UNL A   1     -26.235  -4.298  29.741  0.00  0.00    +0.000 A 
ATOM      5  C   UNL A   1     -25.327  -5.250  29.260  0.00  0.00    +0.000 A 
ATOM      6  C   UNL A   1     -24.205  -4.917  28.664  0.00  0.00    +0.000 A 
ENDROOT
BRANCH   2   7
ATOM      7  C   UNL A   1     -24.336  -1.179  28.814  0.00  0.00    +0.265 C 
ATOM      8  N   UNL A   1     -23.638  -0.537  29.548  0.00  0.00    -0.202 NA
ATOM      9  O   UNL A   1     -24.779  -0.590  27.756  0.00  0.00    -0.268 OA
BRANCH   8  10
ATOM     10  C   UNL A   1     -23.159  -0.995  30.864  0.00  0.00    +0.116 C 
ATOM     11  C   UNL A   1     -23.985  -0.548  31.936  0.00  0.00    +0.025 C 
ENDBRANCH   8  10
ENDBRANCH   2   7
TORSDOF 2
ENDMDL
ENDMDL
