MODEL 3896
MODEL 1
REMARK VINA RESULT:    -6.264      0.000      0.000
REMARK INTER + INTRA:          -7.302
REMARK INTER:                  -6.996
REMARK INTRA:                  -0.305
REMARK UNBOUND:                -0.305
REMARK  Name = No_3896-gen_results/8p0m/2024-11-26-14-13-15/
REMARK  2 active torsions:
REMARK  status: ('A' for Active; 'I' for Inactive)
REMARK    1  A    between atoms: C_9  and  C_10
REMARK    2  A    between atoms: C_10  and  N_12
REMARK                            x       y       z     vdW  Elec       q    Type
REMARK                         _______ _______ _______ _____ _____    ______ ____
ROOT
ATOM      1  C   UNL A   1     -26.987  -2.952  30.322  0.00  0.00    +0.016 A 
ATOM      2  C   UNL A   1     -26.979  -3.983  30.104  0.00  0.00    +0.058 A 
ATOM      3  C   UNL A   1     -25.691  -2.220  30.050  0.00  0.00    +0.052 A 
ATOM      4  C   UNL A   1     -25.395  -0.853  30.395  0.00  0.00    +0.265 C 
ATOM      5  C   UNL A   1     -26.020  -4.823  29.375  0.00  0.00    +0.011 A 
ATOM      6  C   UNL A   1     -24.821  -4.217  29.066  0.00  0.00    -0.003 A 
ATOM      7  C   UNL A   1     -24.619  -2.892  29.359  0.00  0.00    -0.016 A 
ATOM      8  N   UNL A   1     -24.185  -0.383  30.224  0.00  0.00    -0.201 NA
ATOM      9  C   UNL A   1     -23.200  -0.946  29.461  0.00  0.00    +0.124 C 
ATOM     10  C   UNL A   1     -23.386  -2.356  29.019  0.00  0.00    +0.050 C 
ATOM     11  O   UNL A   1     -26.154  -0.166  31.084  0.00  0.00    -0.268 OA
ATOM     12 CL   UNL A   1     -28.537  -4.875  30.408  0.00  0.00    -0.082 Cl
ENDROOT
BRANCH   9  13
ATOM     13  C   UNL A   1     -21.896  -0.398  29.290  0.00  0.00    +0.152 C 
BRANCH  13  14
ATOM     14  N   UNL A   1     -21.547   0.345  28.251  0.00  0.00    -0.217 NA
ATOM     15  C   UNL A   1     -22.104   1.437  27.805  0.00  0.00    +0.361 C 
ATOM     16  F   UNL A   1     -22.628   2.226  28.381  0.00  0.00    -0.151 F 
ATOM     17  F   UNL A   1     -22.550   1.307  26.607  0.00  0.00    -0.151 F 
ENDBRANCH  13  14
ENDBRANCH   9  13
TORSDOF 2
ENDMDL
ENDMDL
