REMARK  Name = No_3896-gen_results/8p0m/2024-11-26-14-13-15/
REMARK  2 active torsions:
REMARK  status: ('A' for Active; 'I' for Inactive)
REMARK    1  A    between atoms: C_9  and  C_10
REMARK    2  A    between atoms: C_10  and  N_12
REMARK                            x       y       z     vdW  Elec       q    Type
REMARK                         _______ _______ _______ _____ _____    ______ ____
ROOT
ATOM      1  C   UNL A   1     -28.016  -0.814  28.878  0.00  0.00    +0.016 A 
ATOM      2  C   UNL A   1     -28.469  -0.785  29.829  0.00  0.00    +0.058 A 
ATOM      3  C   UNL A   1     -26.504  -0.778  28.877  0.00  0.00    +0.052 A 
ATOM      4  C   UNL A   1     -25.654  -0.660  27.719  0.00  0.00    +0.265 C 
ATOM      5  C   UNL A   1     -27.918  -0.937  31.182  0.00  0.00    +0.011 A 
ATOM      6  C   UNL A   1     -26.542  -0.940  31.261  0.00  0.00    -0.003 A 
ATOM      7  C   UNL A   1     -25.783  -0.893  30.120  0.00  0.00    -0.016 A 
ATOM      8  N   UNL A   1     -24.363  -0.503  27.869  0.00  0.00    -0.201 NA
ATOM      9  C   UNL A   1     -23.648  -0.738  29.011  0.00  0.00    +0.124 C 
ATOM     10  C   UNL A   1     -24.405  -0.897  30.283  0.00  0.00    +0.050 C 
ATOM     11  O   UNL A   1     -26.102  -0.442  26.591  0.00  0.00    -0.268 OA
ATOM     12 CL   UNL A   1     -30.289  -0.848  29.849  0.00  0.00    -0.082 Cl
ENDROOT
BRANCH   9  13
ATOM     13  C   UNL A   1     -22.239  -0.566  29.132  0.00  0.00    +0.152 C 
BRANCH  13  14
ATOM     14  N   UNL A   1     -21.596   0.513  28.712  0.00  0.00    -0.217 NA
ATOM     15  C   UNL A   1     -21.639   1.082  27.539  0.00  0.00    +0.361 C 
ATOM     16  F   UNL A   1     -22.489   1.131  26.829  0.00  0.00    -0.151 F 
ATOM     17  F   UNL A   1     -20.494   1.093  26.956  0.00  0.00    -0.151 F 
ENDBRANCH  13  14
ENDBRANCH   9  13
TORSDOF 2
