MODEL 3897
MODEL 1
REMARK VINA RESULT:    -6.248      0.000      0.000
REMARK INTER + INTRA:          -8.334
REMARK INTER:                  -7.709
REMARK INTRA:                  -0.626
REMARK UNBOUND:                -0.626
REMARK  Name = No_3897-gen_results/8p0m/2024-11-26-14-13-15/
REMARK  4 active torsions:
REMARK  status: ('A' for Active; 'I' for Inactive)
REMARK    1  A    between atoms: C_1  and  C_2
REMARK    2  A    between atoms: C_1  and  N_8
REMARK    3  A    between atoms: C_5  and  C_17
REMARK    4  A    between atoms: C_9  and  C_10
REMARK                            x       y       z     vdW  Elec       q    Type
REMARK                         _______ _______ _______ _____ _____    ______ ____
ROOT
ATOM      1  C   UNL A   1      -8.047   0.999  37.274  0.00  0.00    +0.142 C 
ENDROOT
BRANCH   1   2
ATOM      2  C   UNL A   1      -8.935   0.317  37.729  0.00  0.00    -0.001 A 
ATOM      3  C   UNL A   1      -9.820  -0.380  36.972  0.00  0.00    -0.002 A 
ATOM      4  C   UNL A   1     -10.911  -1.221  37.514  0.00  0.00    +0.006 A 
ATOM      5  C   UNL A   1     -11.012  -1.313  38.941  0.00  0.00    +0.080 A 
ATOM      6  C   UNL A   1     -10.028  -0.632  39.693  0.00  0.00    +0.006 A 
ATOM      7  C   UNL A   1      -9.044   0.131  39.120  0.00  0.00    -0.002 A 
BRANCH   5   8
ATOM      8  C   UNL A   1     -11.991  -2.117  39.606  0.00  0.00    +0.388 C 
ATOM      9  O   UNL A   1     -12.185  -2.209  40.632  0.00  0.00    -0.241 OA
ATOM     10  O   UNL A   1     -12.586  -3.058  38.710  0.00  0.00    -0.241 OA
ENDBRANCH   5   8
ENDBRANCH   1   2
BRANCH   1  11
ATOM     11  N   UNL A   1      -8.149   1.534  35.994  0.00  0.00    -0.197 NA
ATOM     12  C   UNL A   1      -7.534   1.054  34.849  0.00  0.00    +0.265 C 
ATOM     13  O   UNL A   1      -8.004   1.599  33.766  0.00  0.00    -0.268 OA
BRANCH  12  14
ATOM     14  C   UNL A   1      -6.690   0.131  34.911  0.00  0.00    +0.055 A 
ATOM     15  C   UNL A   1      -7.136  -1.146  34.470  0.00  0.00    +0.005 A 
ATOM     16  C   UNL A   1      -6.239  -2.236  34.545  0.00  0.00    +0.000 A 
ATOM     17  C   UNL A   1      -4.875  -2.021  34.519  0.00  0.00    +0.000 A 
ATOM     18  C   UNL A   1      -4.437  -0.684  34.763  0.00  0.00    +0.000 A 
ATOM     19  C   UNL A   1      -5.321   0.340  34.886  0.00  0.00    +0.005 A 
ENDBRANCH  12  14
ENDBRANCH   1  11
TORSDOF 4
ENDMDL
ENDMDL
