REMARK  Name = No_3898-gen_results/8p0m/2024-11-26-14-13-15/
REMARK  1 active torsions:
REMARK  status: ('A' for Active; 'I' for Inactive)
REMARK    1  A    between atoms: C_3  and  C_8
REMARK                            x       y       z     vdW  Elec       q    Type
REMARK                         _______ _______ _______ _____ _____    ______ ____
ROOT
ATOM      1  C   UNL A   1     -25.668   1.936  28.448  0.00  0.00    +0.037 C 
ATOM      2  C   UNL A   1     -24.830   1.845  27.877  0.00  0.00    +0.145 C 
ATOM      3  C   UNL A   1     -23.675   2.218  27.506  0.00  0.00    +0.038 C 
ATOM      4  C   UNL A   1     -22.642   1.413  27.253  0.00  0.00    +0.006 C 
ATOM      5  C   UNL A   1     -22.360   0.474  28.011  0.00  0.00    +0.033 C 
ATOM      6  C   UNL A   1     -23.461  -0.278  28.670  0.00  0.00    +0.123 C 
ATOM      7  O   UNL A   1     -24.406   0.362  28.542  0.00  0.00    -0.458 OA
ATOM      8  C   UNL A   1     -23.346  -1.498  29.225  0.00  0.00    +0.072 C 
ENDROOT
BRANCH   1  11
ATOM      9  C   UNL A   1     -28.016  -0.814  28.878  0.00  0.00    +0.042 A 
ATOM     10  C   UNL A   1     -27.064  -0.119  28.608  0.00  0.00    +0.003 A 
ATOM     11  C   UNL A   1     -26.876   1.133  28.913  0.00  0.00    +0.003 A 
ATOM     12  C   UNL A   1     -27.901   1.807  29.644  0.00  0.00    +0.003 A 
ATOM     13  C   UNL A   1     -29.046  -0.232  29.718  0.00  0.00    +0.196 A 
ATOM     14  C   UNL A   1     -28.940   1.052  30.060  0.00  0.00    +0.042 A 
ATOM     15  O   UNL A   1     -30.059  -1.063  30.095  0.00  0.00    -0.287 OA
ENDBRANCH   1  11
TORSDOF 1
