MODEL 3899
MODEL 1
REMARK VINA RESULT:    -6.710      0.000      0.000
REMARK INTER + INTRA:          -7.965
REMARK INTER:                  -7.494
REMARK INTRA:                  -0.471
REMARK UNBOUND:                -0.471
REMARK  Name = No_3899-gen_results/8p0m/2024-11-26-14-13-15/
REMARK  2 active torsions:
REMARK  status: ('A' for Active; 'I' for Inactive)
REMARK    1  A    between atoms: C_7  and  C_8
REMARK    2  A    between atoms: C_12  and  N_14
REMARK                            x       y       z     vdW  Elec       q    Type
REMARK                         _______ _______ _______ _____ _____    ______ ____
ROOT
ATOM      1  C   UNL A   1     -23.689  -1.299  28.925  0.00  0.00    +0.004 A 
ATOM      2  C   UNL A   1     -22.466  -1.144  29.277  0.00  0.00    +0.000 A 
ATOM      3  C   UNL A   1     -21.712  -0.017  28.913  0.00  0.00    +0.002 A 
ATOM      4  C   UNL A   1     -22.229   0.895  28.004  0.00  0.00    +0.019 A 
ATOM      5  C   UNL A   1     -23.507   0.667  27.542  0.00  0.00    +0.081 A 
ATOM      6  C   UNL A   1     -24.221  -0.397  27.941  0.00  0.00    +0.019 A 
ENDROOT
BRANCH   1  13
ATOM      7  F   UNL A   1     -26.179  -1.493  30.216  0.00  0.00    -0.204 F 
ATOM      8  C   UNL A   1     -25.666  -2.448  29.845  0.00  0.00    +0.140 A 
ATOM      9  C   UNL A   1     -26.345  -3.534  29.976  0.00  0.00    +0.030 A 
ATOM     10  C   UNL A   1     -25.899  -4.871  29.520  0.00  0.00    +0.002 A 
ATOM     11  C   UNL A   1     -24.610  -4.887  28.879  0.00  0.00    +0.000 A 
ATOM     12  C   UNL A   1     -23.961  -3.682  28.741  0.00  0.00    +0.002 A 
ATOM     13  C   UNL A   1     -24.469  -2.493  29.173  0.00  0.00    +0.028 A 
ENDBRANCH   1  13
BRANCH   5  14
ATOM     14  N   UNL A   1     -23.875   1.718  26.739  0.00  0.00    -0.242 NA
ATOM     15  C   UNL A   1     -23.359   2.218  25.785  0.00  0.00    +0.119 C 
ENDBRANCH   5  14
TORSDOF 2
ENDMDL
ENDMDL
