REMARK  Name = No_3899-gen_results/8p0m/2024-11-26-14-13-15/
REMARK  2 active torsions:
REMARK  status: ('A' for Active; 'I' for Inactive)
REMARK    1  A    between atoms: C_7  and  C_8
REMARK    2  A    between atoms: C_12  and  N_14
REMARK                            x       y       z     vdW  Elec       q    Type
REMARK                         _______ _______ _______ _____ _____    ______ ____
ROOT
ATOM      1  C   UNL A   1     -28.540   1.202  27.245  0.00  0.00    +0.004 A 
ATOM      2  C   UNL A   1     -28.442   2.010  26.254  0.00  0.00    +0.000 A 
ATOM      3  C   UNL A   1     -29.491   2.223  25.346  0.00  0.00    +0.002 A 
ATOM      4  C   UNL A   1     -30.623   1.422  25.399  0.00  0.00    +0.019 A 
ATOM      5  C   UNL A   1     -30.679   0.478  26.402  0.00  0.00    +0.081 A 
ATOM      6  C   UNL A   1     -29.679   0.326  27.283  0.00  0.00    +0.019 A 
ENDROOT
BRANCH   1  13
ATOM      7  F   UNL A   1     -28.073  -1.254  28.532  0.00  0.00    -0.204 F 
ATOM      8  C   UNL A   1     -27.359  -0.379  28.722  0.00  0.00    +0.140 A 
ATOM      9  C   UNL A   1     -26.332  -0.644  29.452  0.00  0.00    +0.030 A 
ATOM     10  C   UNL A   1     -25.256   0.320  29.782  0.00  0.00    +0.002 A 
ATOM     11  C   UNL A   1     -25.424   1.627  29.203  0.00  0.00    +0.000 A 
ATOM     12  C   UNL A   1     -26.526   1.825  28.403  0.00  0.00    +0.002 A 
ATOM     13  C   UNL A   1     -27.451   0.860  28.136  0.00  0.00    +0.028 A 
ENDBRANCH   1  13
BRANCH   5  14
ATOM     14  N   UNL A   1     -31.904  -0.140  26.351  0.00  0.00    -0.242 NA
ATOM     15  C   UNL A   1     -32.458  -0.754  25.490  0.00  0.00    +0.119 C 
ENDBRANCH   5  14
TORSDOF 2
