MODEL 3900
MODEL 1
REMARK VINA RESULT:    -4.825      0.000      0.000
REMARK INTER + INTRA:          -5.151
REMARK INTER:                  -5.107
REMARK INTRA:                  -0.045
REMARK UNBOUND:                -0.045
REMARK  Name = No_3900-gen_results/8p0m/2024-11-26-14-13-15/
REMARK  1 active torsions:
REMARK  status: ('A' for Active; 'I' for Inactive)
REMARK    1  A    between atoms: C_3  and  C_8
REMARK                            x       y       z     vdW  Elec       q    Type
REMARK                         _______ _______ _______ _____ _____    ______ ____
ROOT
ATOM      1  C   UNL A   1     -21.950   0.016  28.960  0.00  0.00    +0.042 A 
ATOM      2  C   UNL A   1     -22.307  -1.076  29.337  0.00  0.00    +0.003 A 
ATOM      3  C   UNL A   1     -23.554  -1.583  28.990  0.00  0.00    +0.002 A 
ATOM      4  C   UNL A   1     -24.479  -0.804  28.208  0.00  0.00    +0.003 A 
ATOM      5  C   UNL A   1     -23.995   0.456  27.835  0.00  0.00    +0.042 A 
ATOM      6  C   UNL A   1     -22.813   0.896  28.203  0.00  0.00    +0.196 A 
ATOM      7  O   UNL A   1     -22.434   2.149  27.830  0.00  0.00    -0.287 OA
ENDROOT
BRANCH   3   8
ATOM      8  C   UNL A   1     -24.106  -2.931  29.387  0.00  0.00    +0.019 C 
ATOM      9  C   UNL A   1     -24.034  -3.996  28.519  0.00  0.00    +0.106 C 
ATOM     10  N   UNL A   1     -24.606  -5.144  28.984  0.00  0.00    -0.127 NA
ENDBRANCH   3   8
TORSDOF 1
ENDMDL
ENDMDL
