MODEL 3901
MODEL 1
REMARK VINA RESULT:    -8.221      0.000      0.000
REMARK INTER + INTRA:          -8.448
REMARK INTER:                  -9.182
REMARK INTRA:                   0.734
REMARK UNBOUND:                 0.734
REMARK  Name = No_3901-gen_results/8p0m/2024-11-26-14-13-15/
REMARK  2 active torsions:
REMARK  status: ('A' for Active; 'I' for Inactive)
REMARK    1  A    between atoms: C_5  and  C_15
REMARK    2  A    between atoms: C_9  and  C_10
REMARK                            x       y       z     vdW  Elec       q    Type
REMARK                         _______ _______ _______ _____ _____    ______ ____
ROOT
ATOM      1  C   UNL A   1     -25.737   2.343  25.856  0.00  0.00    +0.004 A 
ATOM      2  C   UNL A   1     -26.855   2.049  25.502  0.00  0.00    +0.000 A 
ATOM      3  C   UNL A   1     -27.235   0.989  24.848  0.00  0.00    -0.000 A 
ATOM      4  C   UNL A   1     -26.237   0.038  24.474  0.00  0.00    +0.000 A 
ATOM      5  C   UNL A   1     -24.687   1.371  25.614  0.00  0.00    +0.054 A 
ATOM      6  C   UNL A   1     -24.987   0.265  24.933  0.00  0.00    +0.004 A 
ATOM      7  C   UNL A   1     -28.045   2.995  25.828  0.00  0.00    -0.000 A 
ATOM      8  C   UNL A   1     -29.014   3.224  24.855  0.00  0.00    +0.004 A 
ATOM      9  C   UNL A   1     -29.333   2.134  23.988  0.00  0.00    +0.071 A 
ATOM     10  C   UNL A   1     -28.394   0.962  23.933  0.00  0.00    +0.004 A 
ENDROOT
BRANCH   5  11
ATOM     11  C   UNL A   1     -23.352   1.585  26.270  0.00  0.00    +0.250 C 
ATOM     12  N   UNL A   1     -23.109   0.909  27.291  0.00  0.00    -0.260 N 
ATOM     13  C   UNL A   1     -23.876   0.161  27.864  0.00  0.00    +0.172 C 
ATOM     14  C   UNL A   1     -23.343  -0.711  28.978  0.00  0.00    +0.040 C 
ATOM     15  C   UNL A   1     -21.730   0.901  27.833  0.00  0.00    +0.095 C 
ATOM     16  C   UNL A   1     -21.292   0.138  28.816  0.00  0.00    +0.022 C 
ATOM     17  C   UNL A   1     -22.155  -0.663  29.440  0.00  0.00    +0.005 C 
ATOM     18  O   UNL A   1     -22.614   2.412  25.694  0.00  0.00    -0.270 OA
ATOM     19  C   UNL A   1     -24.419  -1.650  29.664  0.00  0.00    +0.013 C 
ATOM     20  C   UNL A   1     -25.772  -1.390  29.406  0.00  0.00    +0.087 C 
ATOM     21  C   UNL A   1     -26.128  -0.597  28.302  0.00  0.00    +0.243 C 
ATOM     22  N   UNL A   1     -25.255   0.118  27.713  0.00  0.00    -0.187 NA
ATOM     23  O   UNL A   1     -27.409  -0.459  28.048  0.00  0.00    -0.273 OA
ENDBRANCH   5  11
BRANCH   9  24
ATOM     24  C   UNL A   1     -30.482   2.135  23.161  0.00  0.00    +0.419 C 
ATOM     25  F   UNL A   1     -30.363   2.735  22.120  0.00  0.00    -0.166 F 
ATOM     26  F   UNL A   1     -30.881   0.825  22.842  0.00  0.00    -0.166 F 
ATOM     27  F   UNL A   1     -31.583   2.665  23.897  0.00  0.00    -0.166 F 
ENDBRANCH   9  24
TORSDOF 2
ENDMDL
ENDMDL
