REMARK  Name = No_3901-gen_results/8p0m/2024-11-26-14-13-15/
REMARK  2 active torsions:
REMARK  status: ('A' for Active; 'I' for Inactive)
REMARK    1  A    between atoms: C_5  and  C_15
REMARK    2  A    between atoms: C_9  and  C_10
REMARK                            x       y       z     vdW  Elec       q    Type
REMARK                         _______ _______ _______ _____ _____    ______ ____
ROOT
ATOM      1  C   UNL A   1     -28.016  -0.814  28.878  0.00  0.00    +0.004 A 
ATOM      2  C   UNL A   1     -27.064  -0.119  28.608  0.00  0.00    +0.000 A 
ATOM      3  C   UNL A   1     -26.876   1.133  28.913  0.00  0.00    -0.000 A 
ATOM      4  C   UNL A   1     -27.901   1.807  29.644  0.00  0.00    +0.000 A 
ATOM      5  C   UNL A   1     -29.046  -0.232  29.718  0.00  0.00    +0.054 A 
ATOM      6  C   UNL A   1     -28.940   1.052  30.060  0.00  0.00    +0.004 A 
ATOM      7  C   UNL A   1     -25.873  -0.713  27.805  0.00  0.00    -0.000 A 
ATOM      8  C   UNL A   1     -25.286   0.051  26.800  0.00  0.00    +0.004 A 
ATOM      9  C   UNL A   1     -25.224   1.463  27.012  0.00  0.00    +0.071 A 
ATOM     10  C   UNL A   1     -26.080   2.066  28.090  0.00  0.00    +0.004 A 
ENDROOT
BRANCH   5  11
ATOM     11  C   UNL A   1     -30.101  -1.141  30.285  0.00  0.00    +0.250 C 
ATOM     12  N   UNL A   1     -31.195  -1.180  29.684  0.00  0.00    -0.260 N 
ATOM     13  C   UNL A   1     -31.529  -0.491  28.741  0.00  0.00    +0.172 C 
ATOM     14  C   UNL A   1     -32.825  -0.810  28.032  0.00  0.00    +0.040 C 
ATOM     15  C   UNL A   1     -32.176  -2.228  30.052  0.00  0.00    +0.095 C 
ATOM     16  C   UNL A   1     -33.308  -2.479  29.423  0.00  0.00    +0.022 C 
ATOM     17  C   UNL A   1     -33.662  -1.700  28.402  0.00  0.00    +0.005 C 
ATOM     18  O   UNL A   1     -29.748  -1.784  31.295  0.00  0.00    -0.270 OA
ATOM     19  C   UNL A   1     -33.175   0.145  26.818  0.00  0.00    +0.013 C 
ATOM     20  C   UNL A   1     -32.448   1.337  26.694  0.00  0.00    +0.087 C 
ATOM     21  C   UNL A   1     -31.228   1.480  27.376  0.00  0.00    +0.243 C 
ATOM     22  N   UNL A   1     -30.918   0.681  28.318  0.00  0.00    -0.187 NA
ATOM     23  O   UNL A   1     -30.540   2.576  27.156  0.00  0.00    -0.273 OA
ENDBRANCH   5  11
BRANCH   9  24
ATOM     24  C   UNL A   1     -24.409   2.312  26.224  0.00  0.00    +0.419 C 
ATOM     25  F   UNL A   1     -23.932   1.796  25.242  0.00  0.00    -0.166 F 
ATOM     26  F   UNL A   1     -25.121   3.445  25.793  0.00  0.00    -0.166 F 
ATOM     27  F   UNL A   1     -23.367   2.844  27.040  0.00  0.00    -0.166 F 
ENDBRANCH   9  24
TORSDOF 2
