MODEL 3902
MODEL 1
REMARK VINA RESULT:    -4.344      0.000      0.000
REMARK INTER + INTRA:          -4.344
REMARK INTER:                  -4.344
REMARK INTRA:                   0.000
REMARK UNBOUND:                 0.000
REMARK  Name = No_3902-gen_results/8p0m/2024-11-26-14-13-15/
REMARK  0 active torsions:
REMARK  status: ('A' for Active; 'I' for Inactive)
REMARK                            x       y       z     vdW  Elec       q    Type
REMARK                         _______ _______ _______ _____ _____    ______ ____
ROOT
ATOM      1  C   UNL A   1     -24.146  -4.844  28.566  0.00  0.00    +0.000 A 
ATOM      2  C   UNL A   1     -24.983  -5.286  29.029  0.00  0.00    +0.000 A 
ATOM      3  C   UNL A   1     -24.077  -3.389  28.751  0.00  0.00    +0.000 A 
ATOM      4  C   UNL A   1     -25.075  -2.687  29.291  0.00  0.00    +0.000 A 
ATOM      5  C   UNL A   1     -26.175  -4.747  29.637  0.00  0.00    +0.000 A 
ATOM      6  C   UNL A   1     -26.103  -3.393  29.777  0.00  0.00    +0.000 A 
ENDROOT
TORSDOF 0
ENDMDL
ENDMDL
