MODEL 3903
MODEL 1
REMARK VINA RESULT:    -4.411      0.000      0.000
REMARK INTER + INTRA:          -4.411
REMARK INTER:                  -4.411
REMARK INTRA:                   0.000
REMARK UNBOUND:                 0.000
REMARK  Name = No_3903-gen_results/8p0m/2024-11-26-14-13-15/
REMARK  0 active torsions:
REMARK  status: ('A' for Active; 'I' for Inactive)
REMARK                            x       y       z     vdW  Elec       q    Type
REMARK                         _______ _______ _______ _____ _____    ______ ____
ROOT
ATOM      1  C   UNL A   1      -9.173  -9.201  20.299  0.00  0.00    +0.030 A 
ATOM      2  C   UNL A   1      -8.345  -9.764  19.972  0.00  0.00    +0.140 A 
ATOM      3  C   UNL A   1     -10.329  -9.117  19.327  0.00  0.00    +0.002 A 
ATOM      4  C   UNL A   1     -10.295  -9.887  18.145  0.00  0.00    +0.000 A 
ATOM      5  C   UNL A   1      -8.073 -10.670  18.833  0.00  0.00    +0.030 A 
ATOM      6  C   UNL A   1      -9.117 -10.624  17.919  0.00  0.00    +0.002 A 
ATOM      7  F   UNL A   1      -7.245  -9.851  20.915  0.00  0.00    -0.204 F 
ENDROOT
TORSDOF 0
ENDMDL
ENDMDL
