MODEL 3904
MODEL 1
REMARK VINA RESULT:    -5.871      0.000      0.000
REMARK INTER + INTRA:          -9.184
REMARK INTER:                  -7.930
REMARK INTRA:                  -1.254
REMARK UNBOUND:                -1.254
REMARK  Name = No_3904-gen_results/8p0m/2024-11-26-14-13-15/
REMARK  6 active torsions:
REMARK  status: ('A' for Active; 'I' for Inactive)
REMARK    1  A    between atoms: C_3  and  C_4
REMARK    2  A    between atoms: C_6  and  C_11
REMARK    3  A    between atoms: C_11  and  N_12
REMARK    4  A    between atoms: N_12  and  C_13
REMARK    5  A    between atoms: C_14  and  C_15
REMARK    6  A    between atoms: C_15  and  C_16
REMARK                            x       y       z     vdW  Elec       q    Type
REMARK                         _______ _______ _______ _____ _____    ______ ____
ROOT
ATOM      1  C   UNL A   1     -25.366  -2.345  30.503  0.00  0.00    +0.036 A 
ATOM      2  C   UNL A   1     -25.121  -1.358  30.779  0.00  0.00    +0.140 A 
ATOM      3  C   UNL A   1     -24.516  -2.885  29.443  0.00  0.00    +0.082 A 
ATOM      4  C   UNL A   1     -24.123  -0.387  30.352  0.00  0.00    +0.027 A 
ATOM      5  C   UNL A   1     -23.308  -0.856  29.342  0.00  0.00    +0.002 A 
ATOM      6  C   UNL A   1     -23.448  -2.120  28.904  0.00  0.00    +0.004 A 
ATOM      7  F   UNL A   1     -25.877  -0.765  31.882  0.00  0.00    -0.204 F 
ENDROOT
BRANCH   3   8
ATOM      8  C   UNL A   1     -24.595  -4.281  28.957  0.00  0.00    +0.388 C 
ATOM      9  O   UNL A   1     -25.514  -4.899  29.416  0.00  0.00    -0.241 OA
ATOM     10  O   UNL A   1     -23.713  -4.737  28.237  0.00  0.00    -0.241 OA
ENDBRANCH   3   8
BRANCH   5  11
ATOM     11  C   UNL A   1     -22.249   0.030  28.768  0.00  0.00    +0.139 C 
BRANCH  11  12
ATOM     12  N   UNL A   1     -22.445   1.138  28.482  0.00  0.00    -0.232 NA
BRANCH  12  13
ATOM     13  C   UNL A   1     -21.936   1.804  27.406  0.00  0.00    +0.076 C 
ATOM     14  C   UNL A   1     -22.744   2.084  26.215  0.00  0.00    -0.004 C 
BRANCH  14  15
ATOM     15  C   UNL A   1     -24.056   1.690  26.206  0.00  0.00    +0.053 C 
BRANCH  15  16
ATOM     16  C   UNL A   1     -24.497   0.644  25.448  0.00  0.00    -0.026 C 
ATOM     17  C   UNL A   1     -25.578  -0.120  25.898  0.00  0.00    -0.030 C 
ATOM     18  C   UNL A   1     -26.060   0.044  27.178  0.00  0.00    +0.030 C 
ENDBRANCH  15  16
ENDBRANCH  14  15
ENDBRANCH  12  13
ENDBRANCH  11  12
ENDBRANCH   5  11
TORSDOF 6
ENDMDL
ENDMDL
