REMARK  Name = No_3904-gen_results/8p0m/2024-11-26-14-13-15/
REMARK  6 active torsions:
REMARK  status: ('A' for Active; 'I' for Inactive)
REMARK    1  A    between atoms: C_3  and  C_4
REMARK    2  A    between atoms: C_6  and  C_11
REMARK    3  A    between atoms: C_11  and  N_12
REMARK    4  A    between atoms: N_12  and  C_13
REMARK    5  A    between atoms: C_14  and  C_15
REMARK    6  A    between atoms: C_15  and  C_16
REMARK                            x       y       z     vdW  Elec       q    Type
REMARK                         _______ _______ _______ _____ _____    ______ ____
ROOT
ATOM      1  C   UNL A   1     -28.016  -0.814  28.878  0.00  0.00    +0.036 A 
ATOM      2  C   UNL A   1     -28.469  -0.785  29.829  0.00  0.00    +0.140 A 
ATOM      3  C   UNL A   1     -27.087   0.290  28.638  0.00  0.00    +0.082 A 
ATOM      4  C   UNL A   1     -28.391   0.104  30.980  0.00  0.00    +0.027 A 
ATOM      5  C   UNL A   1     -27.533   1.167  30.787  0.00  0.00    +0.002 A 
ATOM      6  C   UNL A   1     -26.828   1.256  29.645  0.00  0.00    +0.004 A 
ATOM      7  F   UNL A   1     -29.360  -1.891  30.179  0.00  0.00    -0.204 F 
ENDROOT
BRANCH   3   8
ATOM      8  C   UNL A   1     -26.252   0.411  27.422  0.00  0.00    +0.388 C 
ATOM      9  O   UNL A   1     -25.936   1.538  27.165  0.00  0.00    -0.241 OA
ATOM     10  O   UNL A   1     -26.027  -0.573  26.725  0.00  0.00    -0.241 OA
ENDBRANCH   3   8
BRANCH   5  11
ATOM     11  C   UNL A   1     -27.362   2.191  31.863  0.00  0.00    +0.139 C 
BRANCH  11  12
ATOM     12  N   UNL A   1     -27.290   3.328  31.641  0.00  0.00    -0.232 NA
BRANCH  12  13
ATOM     13  C   UNL A   1     -26.903   4.305  32.511  0.00  0.00    +0.076 C 
ATOM     14  C   UNL A   1     -26.381   5.594  32.046  0.00  0.00    -0.004 C 
BRANCH  14  15
ATOM     15  C   UNL A   1     -26.315   5.826  30.697  0.00  0.00    +0.053 C 
BRANCH  15  16
ATOM     16  C   UNL A   1     -25.862   7.006  30.183  0.00  0.00    -0.026 C 
ATOM     17  C   UNL A   1     -25.154   7.886  31.007  0.00  0.00    -0.030 C 
ATOM     18  C   UNL A   1     -25.091   7.666  32.366  0.00  0.00    +0.030 C 
ENDBRANCH  15  16
ENDBRANCH  14  15
ENDBRANCH  12  13
ENDBRANCH  11  12
ENDBRANCH   5  11
TORSDOF 6
