REMARK  Name = No_3905-gen_results/8p0m/2024-11-26-14-13-15/
REMARK  2 active torsions:
REMARK  status: ('A' for Active; 'I' for Inactive)
REMARK    1  A    between atoms: C_2  and  C_15
REMARK    2  A    between atoms: C_8  and  C_11
REMARK                            x       y       z     vdW  Elec       q    Type
REMARK                         _______ _______ _______ _____ _____    ______ ____
ROOT
ATOM      1  C   UNL A   1     -28.016  -0.814  28.878  0.00  0.00    +0.042 A 
ATOM      2  C   UNL A   1     -27.064  -0.119  28.608  0.00  0.00    +0.057 A 
ATOM      3  C   UNL A   1     -25.765  -0.390  29.036  0.00  0.00    +0.004 A 
ATOM      4  C   UNL A   1     -25.530  -1.530  29.901  0.00  0.00    +0.003 A 
ATOM      5  C   UNL A   1     -26.658  -2.292  30.203  0.00  0.00    +0.056 A 
ATOM      6  C   UNL A   1     -27.855  -1.956  29.763  0.00  0.00    +0.145 A 
ATOM      7  C   UNL A   1     -24.544   0.413  28.738  0.00  0.00    +0.004 A 
ATOM      8  C   UNL A   1     -23.323   0.048  29.050  0.00  0.00    +0.071 A 
ATOM      9  C   UNL A   1     -23.202  -1.237  29.757  0.00  0.00    +0.004 A 
ATOM     10  C   UNL A   1     -24.226  -1.965  30.212  0.00  0.00    -0.000 A 
ATOM     11  O   UNL A   1     -28.974  -2.687  30.083  0.00  0.00    -0.451 OA
ATOM     12  C   UNL A   1     -30.040  -2.127  30.686  0.00  0.00    +0.180 C 
ATOM     13  C   UNL A   1     -30.073  -1.398  31.561  0.00  0.00    +0.044 C 
ATOM     14  C   UNL A   1     -28.872  -1.232  32.379  0.00  0.00    +0.037 A 
ATOM     15  C   UNL A   1     -28.810  -0.162  33.380  0.00  0.00    +0.003 A 
ATOM     16  C   UNL A   1     -27.611   0.017  34.071  0.00  0.00    +0.000 A 
ATOM     17  C   UNL A   1     -26.404  -0.580  33.641  0.00  0.00    +0.003 A 
ATOM     18  C   UNL A   1     -26.447  -1.369  32.533  0.00  0.00    +0.037 A 
ATOM     19  C   UNL A   1     -27.627  -1.707  31.981  0.00  0.00    +0.139 A 
ATOM     20  O   UNL A   1     -27.606  -2.957  31.888  0.00  0.00    -0.470 OA
ATOM     21  C   UNL A   1     -26.513  -3.598  30.524  0.00  0.00    +0.235 C 
ENDROOT
BRANCH   2  22
ATOM     22  C   UNL A   1     -27.374   1.138  27.862  0.00  0.00    +0.249 C 
ATOM     23  N   UNL A   1     -27.654   1.112  26.656  0.00  0.00    -0.276 N 
ATOM     24  C   UNL A   1     -27.741   0.117  25.935  0.00  0.00    +0.094 C 
ATOM     25  C   UNL A   1     -28.100   0.233  24.671  0.00  0.00    +0.022 C 
ATOM     26  C   UNL A   1     -28.073   2.382  26.049  0.00  0.00    +0.094 C 
ATOM     27  C   UNL A   1     -28.500   2.492  24.777  0.00  0.00    +0.022 C 
ATOM     28  C   UNL A   1     -28.438   1.401  23.985  0.00  0.00    +0.004 C 
ATOM     29  O   UNL A   1     -27.245   2.226  28.613  0.00  0.00    -0.270 OA
ENDBRANCH   2  22
BRANCH   8  30
ATOM     30  C   UNL A   1     -22.115   0.775  28.716  0.00  0.00    +0.419 C 
ATOM     31  F   UNL A   1     -21.087   0.122  28.721  0.00  0.00    -0.166 F 
ATOM     32  F   UNL A   1     -21.859   1.829  29.501  0.00  0.00    -0.166 F 
ATOM     33  F   UNL A   1     -22.274   1.318  27.449  0.00  0.00    -0.166 F 
ENDBRANCH   8  30
TORSDOF 2
