MODEL 3905
MODEL 1
REMARK VINA RESULT:    -9.039      0.000      0.000
REMARK INTER + INTRA:         -10.786
REMARK INTER:                 -10.096
REMARK INTRA:                  -0.690
REMARK UNBOUND:                -0.690
REMARK  Name = No_3905-gen_results/8p0m/2024-11-26-14-13-15/
REMARK  2 active torsions:
REMARK  status: ('A' for Active; 'I' for Inactive)
REMARK    1  A    between atoms: C_2  and  C_15
REMARK    2  A    between atoms: C_8  and  C_11
REMARK                            x       y       z     vdW  Elec       q    Type
REMARK                         _______ _______ _______ _____ _____    ______ ____
ROOT
ATOM      1  C   UNL A   1      -9.927   0.581  36.427  0.00  0.00    +0.042 A 
ATOM      2  C   UNL A   1     -10.822   1.016  37.115  0.00  0.00    +0.057 A 
ATOM      3  C   UNL A   1     -11.901   1.739  36.610  0.00  0.00    +0.004 A 
ATOM      4  C   UNL A   1     -11.944   2.049  35.194  0.00  0.00    +0.003 A 
ATOM      5  C   UNL A   1     -10.883   1.546  34.442  0.00  0.00    +0.056 A 
ATOM      6  C   UNL A   1      -9.894   0.878  35.004  0.00  0.00    +0.145 A 
ATOM      7  C   UNL A   1     -13.041   2.298  37.392  0.00  0.00    +0.004 A 
ATOM      8  C   UNL A   1     -14.102   2.857  36.859  0.00  0.00    +0.071 A 
ATOM      9  C   UNL A   1     -14.113   2.932  35.390  0.00  0.00    +0.004 A 
ATOM     10  C   UNL A   1     -13.090   2.608  34.594  0.00  0.00    -0.000 A 
ATOM     11  O   UNL A   1      -8.832   0.407  34.271  0.00  0.00    -0.451 OA
ATOM     12  C   UNL A   1      -7.561   0.741  34.566  0.00  0.00    +0.180 C 
ATOM     13  C   UNL A   1      -7.127   1.760  34.833  0.00  0.00    +0.044 C 
ATOM     14  C   UNL A   1      -7.923   2.955  34.553  0.00  0.00    +0.037 A 
ATOM     15  C   UNL A   1      -7.490   4.259  35.065  0.00  0.00    +0.003 A 
ATOM     16  C   UNL A   1      -8.329   5.355  34.852  0.00  0.00    +0.000 A 
ATOM     17  C   UNL A   1      -9.672   5.199  34.440  0.00  0.00    +0.003 A 
ATOM     18  C   UNL A   1     -10.127   3.934  34.226  0.00  0.00    +0.037 A 
ATOM     19  C   UNL A   1      -9.275   2.892  34.234  0.00  0.00    +0.139 A 
ATOM     20  O   UNL A   1      -9.478   2.287  33.155  0.00  0.00    -0.470 OA
ATOM     21  C   UNL A   1     -11.058   1.303  33.123  0.00  0.00    +0.235 C 
ENDROOT
BRANCH   2  22
ATOM     22  C   UNL A   1     -10.653   0.826  38.588  0.00  0.00    +0.249 C 
ATOM     23  N   UNL A   1     -11.050  -0.204  39.148  0.00  0.00    -0.276 N 
ATOM     24  C   UNL A   1     -11.586  -1.179  38.618  0.00  0.00    +0.094 C 
ATOM     25  C   UNL A   1     -11.914  -2.237  39.334  0.00  0.00    +0.022 C 
ATOM     26  C   UNL A   1     -10.717  -0.351  40.571  0.00  0.00    +0.094 C 
ATOM     27  C   UNL A   1     -10.995  -1.456  41.289  0.00  0.00    +0.022 C 
ATOM     28  C   UNL A   1     -11.713  -2.436  40.701  0.00  0.00    +0.004 C 
ATOM     29  O   UNL A   1     -10.114   1.884  39.183  0.00  0.00    -0.270 OA
ENDBRANCH   2  22
BRANCH   8  30
ATOM     30  C   UNL A   1     -15.252   3.349  37.590  0.00  0.00    +0.419 C 
ATOM     31  F   UNL A   1     -15.474   2.804  38.656  0.00  0.00    -0.166 F 
ATOM     32  F   UNL A   1     -16.411   3.286  36.922  0.00  0.00    -0.166 F 
ATOM     33  F   UNL A   1     -15.065   4.703  37.829  0.00  0.00    -0.166 F 
ENDBRANCH   8  30
TORSDOF 2
ENDMDL
ENDMDL
