MODEL 3906
MODEL 1
REMARK VINA RESULT:    -6.522      0.000      0.000
REMARK INTER + INTRA:          -7.431
REMARK INTER:                  -7.284
REMARK INTRA:                  -0.147
REMARK UNBOUND:                -0.147
REMARK  Name = No_3906-gen_results/8p0m/2024-11-26-14-13-15/
REMARK  2 active torsions:
REMARK  status: ('A' for Active; 'I' for Inactive)
REMARK    1  A    between atoms: C_2  and  C_5
REMARK    2  A    between atoms: C_12  and  C_14
REMARK                            x       y       z     vdW  Elec       q    Type
REMARK                         _______ _______ _______ _____ _____    ______ ____
ROOT
ATOM      1  C   UNL A   1     -28.847 -10.491  32.709  0.00  0.00    +0.007 A 
ATOM      2  C   UNL A   1     -28.115 -11.236  32.571  0.00  0.00    +0.080 A 
ATOM      3  C   UNL A   1     -29.679 -10.163  31.489  0.00  0.00    -0.000 A 
ATOM      4  C   UNL A   1     -29.534 -10.945  30.323  0.00  0.00    -0.003 A 
ATOM      5  C   UNL A   1     -28.576 -11.932  30.345  0.00  0.00    -0.000 A 
ATOM      6  C   UNL A   1     -27.845 -12.174  31.485  0.00  0.00    +0.007 A 
ATOM      7  C   UNL A   1     -30.706  -9.093  31.402  0.00  0.00    +0.001 A 
ATOM      8  C   UNL A   1     -31.067  -8.635  30.139  0.00  0.00    +0.010 A 
ATOM      9  C   UNL A   1     -30.973  -9.513  29.019  0.00  0.00    +0.065 A 
ATOM     10  C   UNL A   1     -30.120 -10.576  29.058  0.00  0.00    -0.012 A 
ATOM     11  C   UNL A   1     -29.865 -11.336  27.829  0.00  0.00    +0.032 C 
ENDROOT
BRANCH   2  12
ATOM     12  C   UNL A   1     -27.268 -11.598  33.813  0.00  0.00    +0.388 C 
ATOM     13  O   UNL A   1     -27.143 -10.708  34.756  0.00  0.00    -0.241 OA
ATOM     14  O   UNL A   1     -26.772 -12.752  33.890  0.00  0.00    -0.241 OA
ENDBRANCH   2  12
BRANCH   9  15
ATOM     15  C   UNL A   1     -31.593  -9.060  27.739  0.00  0.00    +0.100 C 
ATOM     16  N   UNL A   1     -31.618  -8.271  26.779  0.00  0.00    -0.191 NA
ENDBRANCH   9  15
TORSDOF 2
ENDMDL
ENDMDL
