REMARK  Name = No_3906-gen_results/8p0m/2024-11-26-14-13-15/
REMARK  2 active torsions:
REMARK  status: ('A' for Active; 'I' for Inactive)
REMARK    1  A    between atoms: C_2  and  C_5
REMARK    2  A    between atoms: C_12  and  C_14
REMARK                            x       y       z     vdW  Elec       q    Type
REMARK                         _______ _______ _______ _____ _____    ______ ____
ROOT
ATOM      1  C   UNL A   1     -28.016  -0.814  28.878  0.00  0.00    +0.007 A 
ATOM      2  C   UNL A   1     -28.469  -0.785  29.829  0.00  0.00    +0.080 A 
ATOM      3  C   UNL A   1     -26.504  -0.778  28.877  0.00  0.00    -0.000 A 
ATOM      4  C   UNL A   1     -25.810  -0.853  30.103  0.00  0.00    -0.003 A 
ATOM      5  C   UNL A   1     -26.567  -0.885  31.252  0.00  0.00    -0.000 A 
ATOM      6  C   UNL A   1     -27.941  -0.907  31.185  0.00  0.00    +0.007 A 
ATOM      7  C   UNL A   1     -25.639  -0.716  27.671  0.00  0.00    +0.001 A 
ATOM      8  C   UNL A   1     -24.333  -0.262  27.825  0.00  0.00    +0.010 A 
ATOM      9  C   UNL A   1     -23.666  -0.451  29.072  0.00  0.00    +0.065 A 
ATOM     10  C   UNL A   1     -24.392  -0.610  30.214  0.00  0.00    -0.012 A 
ATOM     11  C   UNL A   1     -23.706  -0.578  31.511  0.00  0.00    +0.032 C 
ENDROOT
BRANCH   2  12
ATOM     12  C   UNL A   1     -30.014  -0.841  29.851  0.00  0.00    +0.388 C 
ATOM     13  O   UNL A   1     -30.649  -0.057  30.676  0.00  0.00    -0.241 OA
ATOM     14  O   UNL A   1     -30.603  -1.602  29.040  0.00  0.00    -0.241 OA
ENDBRANCH   2  12
BRANCH   9  15
ATOM     15  C   UNL A   1     -22.201  -0.170  29.114  0.00  0.00    +0.100 C 
ATOM     16  N   UNL A   1     -21.257   0.627  28.976  0.00  0.00    -0.191 NA
ENDBRANCH   9  15
TORSDOF 2
