MODEL 3907
MODEL 1
REMARK VINA RESULT:    -7.209      0.000      0.000
REMARK INTER + INTRA:          -7.669
REMARK INTER:                  -7.631
REMARK INTRA:                  -0.039
REMARK UNBOUND:                -0.039
REMARK  Name = No_3907-gen_results/8p0m/2024-11-26-14-13-15/
REMARK  1 active torsions:
REMARK  status: ('A' for Active; 'I' for Inactive)
REMARK    1  A    between atoms: C_12  and  C_13
REMARK                            x       y       z     vdW  Elec       q    Type
REMARK                         _______ _______ _______ _____ _____    ______ ____
ROOT
ATOM      1  C   UNL A   1     -26.639  -2.728  30.119  0.00  0.00    +0.030 A 
ATOM      2  C   UNL A   1     -25.595  -2.230  29.767  0.00  0.00    +0.082 A 
ATOM      3  C   UNL A   1     -24.541  -2.832  29.296  0.00  0.00    +0.018 A 
ATOM      4  C   UNL A   1     -24.577  -4.255  29.177  0.00  0.00    +0.002 A 
ATOM      5  C   UNL A   1     -26.793  -4.157  29.920  0.00  0.00    +0.059 A 
ATOM      6  C   UNL A   1     -25.754  -4.853  29.459  0.00  0.00    +0.011 A 
ATOM      7 CL   UNL A   1     -28.308  -4.835  30.311  0.00  0.00    -0.082 Cl
ATOM      8  C   UNL A   1     -23.237  -2.093  28.957  0.00  0.00    +0.003 A 
ATOM      9  C   UNL A   1     -22.915  -1.084  29.218  0.00  0.00    +0.018 A 
ATOM     10  C   UNL A   1     -22.017  -0.260  28.830  0.00  0.00    +0.002 A 
ATOM     11  C   UNL A   1     -21.836   0.863  28.280  0.00  0.00    +0.003 A 
ATOM     12  C   UNL A   1     -23.018   1.329  27.545  0.00  0.00    +0.044 A 
ATOM     13  C   UNL A   1     -24.306   0.715  27.843  0.00  0.00    +0.022 A 
ATOM     14  C   UNL A   1     -24.233  -0.327  28.760  0.00  0.00    +0.081 A 
ATOM     15  N   UNL A   1     -25.446  -0.753  29.513  0.00  0.00    -0.245 NA
ENDROOT
BRANCH  12  16
ATOM     16  C   UNL A   1     -23.022   2.354  26.581  0.00  0.00    +0.234 C 
ATOM     17  O   UNL A   1     -23.108   2.144  25.332  0.00  0.00    -0.283 OA
ENDBRANCH  12  16
TORSDOF 1
ENDMDL
ENDMDL
