MODEL 3908
MODEL 1
REMARK VINA RESULT:    -5.221      0.000      0.000
REMARK INTER + INTRA:          -5.738
REMARK INTER:                  -5.527
REMARK INTRA:                  -0.211
REMARK UNBOUND:                -0.211
REMARK  Name = No_3908-gen_results/8p0m/2024-11-26-14-13-15/
REMARK  1 active torsions:
REMARK  status: ('A' for Active; 'I' for Inactive)
REMARK    1  A    between atoms: C_1  and  C_8
REMARK                            x       y       z     vdW  Elec       q    Type
REMARK                         _______ _______ _______ _____ _____    ______ ____
ROOT
ATOM      1  C   UNL A   1     -24.772  -1.153  29.215  0.00  0.00    -0.000 C 
ATOM      2  C   UNL A   1     -24.922  -2.351  29.147  0.00  0.00    -0.046 C 
ATOM      3  C   UNL A   1     -23.936  -3.228  28.697  0.00  0.00    +0.022 C 
ATOM      4  C   UNL A   1     -24.037  -4.695  28.571  0.00  0.00    +0.004 C 
ATOM      5  C   UNL A   1     -25.193  -5.291  29.161  0.00  0.00    +0.001 C 
ATOM      6  C   UNL A   1     -26.189  -4.449  29.666  0.00  0.00    +0.004 C 
ATOM      7  C   UNL A   1     -26.081  -3.101  29.682  0.00  0.00    +0.022 C 
ENDROOT
BRANCH   1   8
ATOM      8  C   UNL A   1     -23.820  -0.503  28.263  0.00  0.00    +0.182 C 
ATOM      9  F   UNL A   1     -22.891   0.173  28.800  0.00  0.00    -0.233 F 
ATOM     10  C   UNL A   1     -24.526   0.308  27.215  0.00  0.00    +0.043 C 
ENDBRANCH   1   8
TORSDOF 1
ENDMDL
ENDMDL
