REMARK  Name = No_3908-gen_results/8p0m/2024-11-26-14-13-15/
REMARK  1 active torsions:
REMARK  status: ('A' for Active; 'I' for Inactive)
REMARK    1  A    between atoms: C_1  and  C_8
REMARK                            x       y       z     vdW  Elec       q    Type
REMARK                         _______ _______ _______ _____ _____    ______ ____
ROOT
ATOM      1  C   UNL A   1     -28.016  -0.814  28.878  0.00  0.00    -0.000 C 
ATOM      2  C   UNL A   1     -27.064  -0.119  28.608  0.00  0.00    -0.046 C 
ATOM      3  C   UNL A   1     -25.765  -0.390  29.036  0.00  0.00    +0.022 C 
ATOM      4  C   UNL A   1     -24.552   0.406  28.765  0.00  0.00    +0.004 C 
ATOM      5  C   UNL A   1     -24.696   1.448  27.799  0.00  0.00    +0.001 C 
ATOM      6  C   UNL A   1     -25.976   1.725  27.308  0.00  0.00    +0.004 C 
ATOM      7  C   UNL A   1     -27.072   1.013  27.654  0.00  0.00    +0.022 C 
ENDROOT
BRANCH   1   8
ATOM      8  C   UNL A   1     -27.985  -1.595  30.152  0.00  0.00    +0.182 C 
ATOM      9  F   UNL A   1     -29.049  -2.227  30.429  0.00  0.00    -0.233 F 
ATOM     10  C   UNL A   1     -27.546  -0.761  31.322  0.00  0.00    +0.043 C 
ENDBRANCH   1   8
TORSDOF 1
