REMARK  Name = No_3909-gen_results/8p0m/2024-11-26-14-13-15/
REMARK  1 active torsions:
REMARK  status: ('A' for Active; 'I' for Inactive)
REMARK    1  A    between atoms: C_7  and  C_18
REMARK                            x       y       z     vdW  Elec       q    Type
REMARK                         _______ _______ _______ _____ _____    ______ ____
ROOT
ATOM      1  C   UNL A   1     -28.016  -0.814  28.878  0.00  0.00    +0.048 A 
ATOM      2  C   UNL A   1     -28.469  -0.785  29.829  0.00  0.00    +0.015 A 
ATOM      3  C   UNL A   1     -28.182   0.428  28.113  0.00  0.00    -0.007 A 
ATOM      4  C   UNL A   1     -28.984   1.415  28.515  0.00  0.00    -0.003 A 
ATOM      5  C   UNL A   1     -29.380   0.138  30.461  0.00  0.00    +0.001 A 
ATOM      6  C   UNL A   1     -29.541   1.274  29.724  0.00  0.00    -0.000 A 
ATOM      7  C   UNL A   1     -27.459   0.493  26.770  0.00  0.00    +0.044 C 
ATOM      8  C   UNL A   1     -26.026   0.384  26.762  0.00  0.00    +0.033 C 
ATOM      9  C   UNL A   1     -25.315   0.049  27.870  0.00  0.00    -0.009 A 
ATOM     10  C   UNL A   1     -23.881   0.056  27.833  0.00  0.00    -0.003 A 
ATOM     11  C   UNL A   1     -23.136  -0.372  29.000  0.00  0.00    -0.001 A 
ATOM     12  C   UNL A   1     -23.808  -1.063  30.010  0.00  0.00    -0.003 A 
ATOM     13  C   UNL A   1     -25.154  -1.157  30.012  0.00  0.00    -0.009 A 
ATOM     14  C   UNL A   1     -25.889  -0.681  29.003  0.00  0.00    +0.043 A 
ATOM     15  N   UNL A   1     -26.651  -1.413  29.556  0.00  0.00    -0.286 N 
ATOM     16  C   UNL A   1     -25.883  -1.633  31.373  0.00  0.00    +0.032 C 
ATOM     17  C   UNL A   1     -26.905  -2.887  29.653  0.00  0.00    +0.117 C 
ENDROOT
BRANCH   7  18
ATOM     18  C   UNL A   1     -28.230   0.657  25.637  0.00  0.00    +0.100 C 
ATOM     19 CL   UNL A   1     -28.093   0.332  24.108  0.00  0.00    -0.113 Cl
ENDBRANCH   7  18
TORSDOF 1
