MODEL 3909
MODEL 1
REMARK VINA RESULT:    -6.850      0.000      0.000
REMARK INTER + INTRA:          -7.345
REMARK INTER:                  -7.250
REMARK INTRA:                  -0.095
REMARK UNBOUND:                -0.095
REMARK  Name = No_3909-gen_results/8p0m/2024-11-26-14-13-15/
REMARK  1 active torsions:
REMARK  status: ('A' for Active; 'I' for Inactive)
REMARK    1  A    between atoms: C_7  and  C_18
REMARK                            x       y       z     vdW  Elec       q    Type
REMARK                         _______ _______ _______ _____ _____    ______ ____
ROOT
ATOM      1  C   UNL A   1     -25.579  -0.668  30.701  0.00  0.00    +0.048 A 
ATOM      2  C   UNL A   1     -26.192  -0.582  31.555  0.00  0.00    +0.015 A 
ATOM      3  C   UNL A   1     -24.144  -0.600  31.002  0.00  0.00    -0.007 A 
ATOM      4  C   UNL A   1     -23.680  -0.275  32.210  0.00  0.00    -0.003 A 
ATOM      5  C   UNL A   1     -25.929  -0.218  32.926  0.00  0.00    +0.001 A 
ATOM      6  C   UNL A   1     -24.592  -0.135  33.180  0.00  0.00    -0.000 A 
ATOM      7  C   UNL A   1     -23.198  -0.825  29.825  0.00  0.00    +0.044 C 
ATOM      8  C   UNL A   1     -23.251  -2.088  29.141  0.00  0.00    +0.033 C 
ATOM      9  C   UNL A   1     -24.220  -3.008  29.384  0.00  0.00    -0.009 A 
ATOM     10  C   UNL A   1     -24.166  -4.294  28.750  0.00  0.00    -0.003 A 
ATOM     11  C   UNL A   1     -25.244  -5.238  28.962  0.00  0.00    -0.001 A 
ATOM     12  C   UNL A   1     -26.441  -4.780  29.516  0.00  0.00    -0.003 A 
ATOM     13  C   UNL A   1     -26.536  -3.538  30.037  0.00  0.00    -0.009 A 
ATOM     14  C   UNL A   1     -25.526  -2.668  29.956  0.00  0.00    +0.043 A 
ATOM     15  N   UNL A   1     -26.453  -1.965  30.215  0.00  0.00    -0.286 N 
ATOM     16  C   UNL A   1     -27.803  -3.203  30.982  0.00  0.00    +0.032 C 
ATOM     17  C   UNL A   1     -27.630  -1.369  29.504  0.00  0.00    +0.117 C 
ENDROOT
BRANCH   7  18
ATOM     18  C   UNL A   1     -22.342   0.203  29.488  0.00  0.00    +0.100 C 
ATOM     19 CL   UNL A   1     -21.921   0.953  28.176  0.00  0.00    -0.113 Cl
ENDBRANCH   7  18
TORSDOF 1
ENDMDL
ENDMDL
