MODEL 390
MODEL 1
REMARK VINA RESULT:    -4.591      0.000      0.000
REMARK INTER + INTRA:          -4.591
REMARK INTER:                  -4.591
REMARK INTRA:                   0.000
REMARK UNBOUND:                 0.000
REMARK  Name = No_390-gen_results/8p0m/2024-11-26-14-13-15/
REMARK  0 active torsions:
REMARK  status: ('A' for Active; 'I' for Inactive)
REMARK                            x       y       z     vdW  Elec       q    Type
REMARK                         _______ _______ _______ _____ _____    ______ ____
ROOT
ATOM      1  C   UNL A   1     -24.011  -4.417  28.627  0.00  0.00    +0.030 A 
ATOM      2  C   UNL A   1     -24.865  -4.983  28.872  0.00  0.00    +0.140 A 
ATOM      3  C   UNL A   1     -24.031  -2.996  29.008  0.00  0.00    +0.002 A 
ATOM      4  C   UNL A   1     -25.027  -2.499  29.523  0.00  0.00    +0.000 A 
ATOM      5  C   UNL A   1     -26.110  -4.642  29.586  0.00  0.00    +0.030 A 
ATOM      6  C   UNL A   1     -26.163  -3.315  29.885  0.00  0.00    +0.002 A 
ATOM      7  F   UNL A   1     -24.852  -6.399  28.569  0.00  0.00    -0.204 F 
ENDROOT
TORSDOF 0
ENDMDL
ENDMDL
