REMARK  Name = No_3911-gen_results/8p0m/2024-11-26-14-13-15/
REMARK  4 active torsions:
REMARK  status: ('A' for Active; 'I' for Inactive)
REMARK    1  A    between atoms: C_2  and  C_7
REMARK    2  A    between atoms: C_4  and  C_18
REMARK    3  A    between atoms: C_7  and  C_8
REMARK    4  A    between atoms: C_12  and  C_14
REMARK                            x       y       z     vdW  Elec       q    Type
REMARK                         _______ _______ _______ _____ _____    ______ ____
ROOT
ATOM      1  C   UNL A   1     -28.016  -0.814  28.878  0.00  0.00    -0.004 A 
ATOM      2  C   UNL A   1     -27.064  -0.119  28.608  0.00  0.00    -0.018 A 
ATOM      3  C   UNL A   1     -26.929   1.171  29.008  0.00  0.00    -0.004 A 
ATOM      4  C   UNL A   1     -27.956   1.741  29.784  0.00  0.00    -0.000 A 
ATOM      5  C   UNL A   1     -29.057  -0.327  29.747  0.00  0.00    -0.000 A 
ATOM      6  C   UNL A   1     -28.983   0.972  30.152  0.00  0.00    -0.000 A 
ENDROOT
BRANCH   4   7
ATOM      7  C   UNL A   1     -27.777   3.172  30.234  0.00  0.00    +0.003 A 
ATOM      8  C   UNL A   1     -28.231   3.798  30.903  0.00  0.00    +0.000 A 
ATOM      9  C   UNL A   1     -28.166   4.958  31.389  0.00  0.00    +0.003 A 
ATOM     10  C   UNL A   1     -27.098   5.784  30.814  0.00  0.00    +0.042 A 
ATOM     11  C   UNL A   1     -26.311   5.167  29.830  0.00  0.00    +0.196 A 
ATOM     12  C   UNL A   1     -26.540   3.800  29.498  0.00  0.00    +0.042 A 
ATOM     13  O   UNL A   1     -25.276   5.817  29.246  0.00  0.00    -0.287 OA
ENDBRANCH   4   7
BRANCH   2  14
ATOM     14  C   UNL A   1     -25.891  -0.626  27.786  0.00  0.00    +0.053 C 
BRANCH  14  15
ATOM     15  C   UNL A   1     -25.463   0.112  26.681  0.00  0.00    -0.018 A 
ATOM     16  C   UNL A   1     -26.285   1.118  26.236  0.00  0.00    -0.004 A 
ATOM     17  C   UNL A   1     -25.630   1.947  25.303  0.00  0.00    -0.000 A 
ATOM     18  C   UNL A   1     -24.428   2.253  25.495  0.00  0.00    +0.004 A 
ATOM     19  C   UNL A   1     -23.488   1.340  26.243  0.00  0.00    +0.071 A 
ATOM     20  C   UNL A   1     -24.093   0.476  27.042  0.00  0.00    -0.000 A 
BRANCH  19  21
ATOM     21  C   UNL A   1     -22.095   1.828  26.476  0.00  0.00    +0.419 C 
ATOM     22  F   UNL A   1     -21.583   2.672  25.890  0.00  0.00    -0.166 F 
ATOM     23  F   UNL A   1     -21.986   2.200  27.890  0.00  0.00    -0.166 F 
ATOM     24  F   UNL A   1     -21.400   0.739  26.626  0.00  0.00    -0.166 F 
ENDBRANCH  19  21
ENDBRANCH  14  15
ENDBRANCH   2  14
TORSDOF 4
