REMARK  Name = No_3915-gen_results/8p0m/2024-11-26-14-13-15/
REMARK  6 active torsions:
REMARK  status: ('A' for Active; 'I' for Inactive)
REMARK    1  A    between atoms: C_1  and  C_2
REMARK    2  A    between atoms: C_1  and  C_8
REMARK    3  A    between atoms: C_5  and  C_10
REMARK    4  A    between atoms: C_8  and  C_9
REMARK    5  A    between atoms: C_9  and  CA_14
REMARK    6  A    between atoms: CA_14  and  C_15
REMARK                            x       y       z     vdW  Elec       q    Type
REMARK                         _______ _______ _______ _____ _____    ______ ____
ROOT
ATOM      1  C   UNL A   1     -27.064  -0.119  28.608  0.00  0.00    -0.022 A 
ATOM      2  C   UNL A   1     -26.929   1.171  29.008  0.00  0.00    -0.004 A 
ATOM      3  C   UNL A   1     -25.770   2.034  28.688  0.00  0.00    +0.004 A 
ATOM      4  C   UNL A   1     -24.714   1.443  27.919  0.00  0.00    +0.071 A 
ATOM      5  C   UNL A   1     -24.859   0.078  27.584  0.00  0.00    +0.004 A 
ATOM      6  C   UNL A   1     -25.965  -0.661  27.916  0.00  0.00    -0.004 A 
ENDROOT
BRANCH   4   7
ATOM      7  C   UNL A   1     -23.530   2.169  27.547  0.00  0.00    +0.419 C 
ATOM      8  F   UNL A   1     -23.475   2.945  26.828  0.00  0.00    -0.166 F 
ATOM      9  F   UNL A   1     -22.511   1.140  27.151  0.00  0.00    -0.166 F 
ATOM     10  F   UNL A   1     -22.858   2.530  28.775  0.00  0.00    -0.166 F 
ENDBRANCH   4   7
BRANCH   1  11
ATOM     11  C   UNL A   1     -28.016  -0.814  28.878  0.00  0.00    +0.026 C 
BRANCH  11  12
ATOM     12  C   UNL A   1     -28.658  -0.602  30.255  0.00  0.00    +0.006 C 
BRANCH  12  13
ATOM     13  C   UNL A   1     -29.678  -1.314  30.582  0.00  0.00    +0.022 C 
BRANCH  13  14
ATOM     14  CA  UNL A   1     -29.906  -2.461  30.862  0.00  0.00    +0.125 C 
ATOM     15  N   UNL A   1     -30.589  -3.298  29.814  0.00  0.00    -0.130 NA
BRANCH  14  16
ATOM     16  C   UNL A   1     -28.869  -3.219  31.283  0.00  0.00    +0.201 C 
ATOM     17  O   UNL A   1     -28.762  -4.441  31.114  0.00  0.00    -0.219 OA
ENDBRANCH  14  16
ENDBRANCH  13  14
ENDBRANCH  12  13
ENDBRANCH  11  12
ENDBRANCH   1  11
TORSDOF 6
