MODEL 3915
MODEL 1
REMARK VINA RESULT:    -5.606      0.000      0.000
REMARK INTER + INTRA:          -8.216
REMARK INTER:                  -7.572
REMARK INTRA:                  -0.643
REMARK UNBOUND:                -0.643
REMARK  Name = No_3915-gen_results/8p0m/2024-11-26-14-13-15/
REMARK  6 active torsions:
REMARK  status: ('A' for Active; 'I' for Inactive)
REMARK    1  A    between atoms: C_1  and  C_2
REMARK    2  A    between atoms: C_1  and  C_8
REMARK    3  A    between atoms: C_5  and  C_10
REMARK    4  A    between atoms: C_8  and  C_9
REMARK    5  A    between atoms: C_9  and  CA_14
REMARK    6  A    between atoms: CA_14  and  C_15
REMARK                            x       y       z     vdW  Elec       q    Type
REMARK                         _______ _______ _______ _____ _____    ______ ____
ROOT
ATOM      1  C   UNL A   1      -9.218   0.127  37.682  0.00  0.00    -0.022 A 
ATOM      2  C   UNL A   1      -9.158   0.173  39.037  0.00  0.00    -0.004 A 
ATOM      3  C   UNL A   1     -10.021  -0.616  39.945  0.00  0.00    +0.004 A 
ATOM      4  C   UNL A   1     -10.998  -1.467  39.333  0.00  0.00    +0.071 A 
ATOM      5  C   UNL A   1     -11.078  -1.433  37.923  0.00  0.00    +0.004 A 
ATOM      6  C   UNL A   1     -10.243  -0.674  37.144  0.00  0.00    -0.004 A 
ENDROOT
BRANCH   4   7
ATOM      7  C   UNL A   1     -11.903  -2.280  40.100  0.00  0.00    +0.419 C 
ATOM      8  F   UNL A   1     -11.641  -2.906  40.914  0.00  0.00    -0.166 F 
ATOM      9  F   UNL A   1     -12.638  -3.140  39.113  0.00  0.00    -0.166 F 
ATOM     10  F   UNL A   1     -13.049  -1.454  40.408  0.00  0.00    -0.166 F 
ENDBRANCH   4   7
BRANCH   1  11
ATOM     11  C   UNL A   1      -8.508   0.779  36.952  0.00  0.00    +0.026 C 
BRANCH  11  12
ATOM     12  C   UNL A   1      -8.482   0.374  35.472  0.00  0.00    +0.006 C 
BRANCH  12  13
ATOM     13  C   UNL A   1      -8.601   1.288  34.575  0.00  0.00    +0.022 C 
BRANCH  13  14
ATOM     14  CA  UNL A   1      -9.466   2.006  34.150  0.00  0.00    +0.125 C 
ATOM     15  N   UNL A   1      -9.090   2.943  33.033  0.00  0.00    -0.130 NA
BRANCH  14  16
ATOM     16  C   UNL A   1     -10.614   1.424  33.737  0.00  0.00    +0.201 C 
ATOM     17  O   UNL A   1     -10.855   1.064  32.577  0.00  0.00    -0.219 OA
ENDBRANCH  14  16
ENDBRANCH  13  14
ENDBRANCH  12  13
ENDBRANCH  11  12
ENDBRANCH   1  11
TORSDOF 6
ENDMDL
ENDMDL
