REMARK  Name = No_3916-gen_results/8p0m/2024-11-26-14-13-15/
REMARK  0 active torsions:
REMARK  status: ('A' for Active; 'I' for Inactive)
REMARK                            x       y       z     vdW  Elec       q    Type
REMARK                         _______ _______ _______ _____ _____    ______ ____
ROOT
ATOM      1  C   UNL A   1     -28.016  -0.814  28.878  0.00  0.00    +0.003 A 
ATOM      2  C   UNL A   1     -27.064  -0.119  28.608  0.00  0.00    +0.000 A 
ATOM      3  C   UNL A   1     -26.972   0.714  27.506  0.00  0.00    +0.003 A 
ATOM      4  C   UNL A   1     -28.105   0.774  26.642  0.00  0.00    +0.042 A 
ATOM      5  C   UNL A   1     -29.201   0.104  27.053  0.00  0.00    +0.196 A 
ATOM      6  C   UNL A   1     -29.210  -0.603  28.185  0.00  0.00    +0.042 A 
ATOM      7  O   UNL A   1     -30.305   0.227  26.260  0.00  0.00    -0.287 OA
ATOM      8  C   UNL A   1     -25.714  -0.220  29.407  0.00  0.00    +0.000 A 
ATOM      9  C   UNL A   1     -24.554   0.054  28.865  0.00  0.00    +0.000 A 
ATOM     10  C   UNL A   1     -23.320  -0.057  29.580  0.00  0.00    +0.000 A 
ATOM     11  C   UNL A   1     -22.081   0.330  28.975  0.00  0.00    +0.000 A 
ATOM     12  C   UNL A   1     -22.015   1.114  27.844  0.00  0.00    +0.000 A 
ATOM     13  C   UNL A   1     -23.224   1.428  27.174  0.00  0.00    +0.000 A 
ATOM     14  C   UNL A   1     -24.483   0.968  27.669  0.00  0.00    +0.000 A 
ATOM     15  C   UNL A   1     -25.734   1.176  26.985  0.00  0.00    +0.000 A 
ENDROOT
TORSDOF 0
