MODEL 3917
MODEL 1
REMARK VINA RESULT:    -6.007      0.000      0.000
REMARK INTER + INTRA:          -6.598
REMARK INTER:                  -6.709
REMARK INTRA:                   0.111
REMARK UNBOUND:                 0.111
REMARK  Name = No_3917-gen_results/8p0m/2024-11-26-14-13-15/
REMARK  2 active torsions:
REMARK  status: ('A' for Active; 'I' for Inactive)
REMARK    1  A    between atoms: C_2  and  C_7
REMARK    2  A    between atoms: N_8  and  C_10
REMARK                            x       y       z     vdW  Elec       q    Type
REMARK                         _______ _______ _______ _____ _____    ______ ____
ROOT
ATOM      1  C   UNL A   1     -25.679  -2.617  29.529  0.00  0.00    +0.016 A 
ATOM      2  C   UNL A   1     -24.552  -2.499  29.107  0.00  0.00    +0.056 A 
ATOM      3  C   UNL A   1     -23.814  -3.609  28.712  0.00  0.00    +0.005 A 
ATOM      4  C   UNL A   1     -24.352  -4.940  28.836  0.00  0.00    +0.001 A 
ATOM      5  C   UNL A   1     -25.653  -4.985  29.355  0.00  0.00    +0.011 A 
ATOM      6  C   UNL A   1     -26.302  -3.907  29.730  0.00  0.00    +0.058 A 
ATOM      7 CL   UNL A   1     -27.833  -4.150  30.449  0.00  0.00    -0.082 Cl
ENDROOT
BRANCH   2   8
ATOM      8  C   UNL A   1     -23.829  -1.210  28.937  0.00  0.00    +0.265 C 
ATOM      9  N   UNL A   1     -23.914  -0.468  28.152  0.00  0.00    -0.205 NA
ATOM     10  O   UNL A   1     -23.066  -0.785  30.020  0.00  0.00    -0.268 OA
BRANCH   9  11
ATOM     11  C   UNL A   1     -23.724   0.604  27.865  0.00  0.00    +0.079 C 
ATOM     12  C   UNL A   1     -22.301   1.098  27.797  0.00  0.00    +0.022 C 
ATOM     13  C   UNL A   1     -24.423   1.720  28.719  0.00  0.00    +0.022 C 
ATOM     14  C   UNL A   1     -24.177   0.981  26.332  0.00  0.00    +0.022 C 
ENDBRANCH   9  11
ENDBRANCH   2   8
TORSDOF 2
ENDMDL
ENDMDL
