REMARK  Name = No_3917-gen_results/8p0m/2024-11-26-14-13-15/
REMARK  2 active torsions:
REMARK  status: ('A' for Active; 'I' for Inactive)
REMARK    1  A    between atoms: C_2  and  C_7
REMARK    2  A    between atoms: N_8  and  C_10
REMARK                            x       y       z     vdW  Elec       q    Type
REMARK                         _______ _______ _______ _____ _____    ______ ____
ROOT
ATOM      1  C   UNL A   1     -28.016  -0.814  28.878  0.00  0.00    +0.016 A 
ATOM      2  C   UNL A   1     -27.064  -0.119  28.608  0.00  0.00    +0.056 A 
ATOM      3  C   UNL A   1     -25.792  -0.430  29.076  0.00  0.00    +0.005 A 
ATOM      4  C   UNL A   1     -25.576  -1.565  29.936  0.00  0.00    +0.001 A 
ATOM      5  C   UNL A   1     -26.735  -2.300  30.217  0.00  0.00    +0.011 A 
ATOM      6  C   UNL A   1     -27.918  -1.954  29.763  0.00  0.00    +0.058 A 
ATOM      7 CL   UNL A   1     -29.243  -2.893  30.295  0.00  0.00    -0.082 Cl
ENDROOT
BRANCH   2   8
ATOM      8  C   UNL A   1     -27.106   1.102  27.759  0.00  0.00    +0.265 C 
ATOM      9  N   UNL A   1     -26.855   2.126  28.008  0.00  0.00    -0.205 NA
ATOM     10  O   UNL A   1     -27.316   0.899  26.399  0.00  0.00    -0.268 OA
BRANCH   9  11
ATOM     11  C   UNL A   1     -26.572   3.137  27.600  0.00  0.00    +0.079 C 
ATOM     12  C   UNL A   1     -25.179   3.658  27.847  0.00  0.00    +0.022 C 
ATOM     13  C   UNL A   1     -27.463   4.362  28.011  0.00  0.00    +0.022 C 
ATOM     14  C   UNL A   1     -26.568   3.224  25.960  0.00  0.00    +0.022 C 
ENDBRANCH   9  11
ENDBRANCH   2   8
TORSDOF 2
