MODEL 3918
MODEL 1
REMARK VINA RESULT:    -9.506      0.000      0.000
REMARK INTER + INTRA:         -14.632
REMARK INTER:                 -13.396
REMARK INTRA:                  -1.236
REMARK UNBOUND:                -1.236
REMARK  Name = No_3918-gen_results/8p0m/2024-11-26-14-13-15/
REMARK  7 active torsions:
REMARK  status: ('A' for Active; 'I' for Inactive)
REMARK    1  A    between atoms: C_2  and  C_7
REMARK    2  A    between atoms: C_3  and  N_12
REMARK    3  A    between atoms: N_9  and  C_11
REMARK    4  A    between atoms: C_11  and  C_21
REMARK    5  A    between atoms: C_13  and  C_14
REMARK    6  A    between atoms: C_25  and  C_27
REMARK    7  A    between atoms: N_29  and  C_30
REMARK                            x       y       z     vdW  Elec       q    Type
REMARK                         _______ _______ _______ _____ _____    ______ ____
ROOT
ATOM      1  C   UNL A   1     -25.561   0.409  25.094  0.00  0.00    +0.249 C 
ATOM      2  O   UNL A   1     -25.249  -0.381  24.376  0.00  0.00    -0.270 OA
ATOM      3  N   UNL A   1     -26.728   1.173  24.988  0.00  0.00    -0.270 N 
ATOM      4  C   UNL A   1     -27.255   2.114  25.772  0.00  0.00    +0.116 C 
ENDROOT
BRANCH   1   6
ATOM      5  C   UNL A   1     -24.833   0.012  27.218  0.00  0.00    +0.021 A 
ATOM      6  C   UNL A   1     -24.586   0.571  26.360  0.00  0.00    +0.055 A 
ATOM      7  C   UNL A   1     -23.907   0.194  28.400  0.00  0.00    +0.074 A 
ATOM      8  C   UNL A   1     -22.892   1.172  28.339  0.00  0.00    +0.017 A 
ATOM      9  C   UNL A   1     -23.630   1.658  26.050  0.00  0.00    +0.005 A 
ATOM     10  C   UNL A   1     -22.765   1.858  27.117  0.00  0.00    +0.002 A 
BRANCH   7  11
ATOM     11  N   UNL A   1     -23.954  -0.526  29.581  0.00  0.00    -0.175 NA
ATOM     12  C   UNL A   1     -25.124  -1.211  29.955  0.00  0.00    +0.269 C 
ATOM     13  O   UNL A   1     -26.100  -0.623  30.400  0.00  0.00    -0.268 OA
BRANCH  12  14
ATOM     14  C   UNL A   1     -25.151  -2.549  29.537  0.00  0.00    +0.055 A 
ATOM     15  C   UNL A   1     -26.193  -3.416  29.996  0.00  0.00    +0.005 A 
ATOM     16  C   UNL A   1     -26.268  -4.773  29.577  0.00  0.00    +0.000 A 
ATOM     17  C   UNL A   1     -25.024  -5.255  28.900  0.00  0.00    +0.000 A 
ATOM     18  C   UNL A   1     -23.991  -4.484  28.594  0.00  0.00    +0.000 A 
ATOM     19  C   UNL A   1     -24.016  -3.148  28.922  0.00  0.00    +0.005 A 
ENDBRANCH  12  14
ENDBRANCH   7  11
ENDBRANCH   1   6
BRANCH   3  20
ATOM     20  C   UNL A   1     -27.491   0.841  23.738  0.00  0.00    +0.120 C 
BRANCH  20  21
ATOM     21  C   UNL A   1     -28.629   0.312  23.716  0.00  0.00    -0.002 A 
ATOM     22  C   UNL A   1     -28.802  -0.878  24.018  0.00  0.00    -0.003 A 
ATOM     23  C   UNL A   1     -30.137  -1.610  23.979  0.00  0.00    -0.000 A 
ATOM     24  C   UNL A   1     -31.178  -0.771  23.550  0.00  0.00    +0.005 A 
ATOM     25  C   UNL A   1     -30.991   0.517  23.222  0.00  0.00    +0.055 A 
ATOM     26  C   UNL A   1     -29.728   1.101  23.310  0.00  0.00    +0.002 A 
BRANCH  25  27
ATOM     27  C   UNL A   1     -32.122   1.347  22.774  0.00  0.00    +0.269 C 
ATOM     28  O   UNL A   1     -33.198   1.153  22.672  0.00  0.00    -0.268 OA
ATOM     29  N   UNL A   1     -31.605   2.558  22.342  0.00  0.00    -0.175 NA
BRANCH  29  30
ATOM     30  C   UNL A   1     -32.536   3.575  21.829  0.00  0.00    +0.074 A 
ATOM     31  C   UNL A   1     -33.164   4.332  22.228  0.00  0.00    +0.017 A 
ATOM     32  C   UNL A   1     -34.012   5.259  21.569  0.00  0.00    +0.001 A 
ATOM     33  C   UNL A   1     -34.022   5.174  20.153  0.00  0.00    +0.000 A 
ATOM     34  C   UNL A   1     -33.252   4.217  19.559  0.00  0.00    +0.001 A 
ATOM     35  C   UNL A   1     -32.423   3.364  20.271  0.00  0.00    +0.017 A 
ENDBRANCH  29  30
ENDBRANCH  25  27
ENDBRANCH  20  21
ENDBRANCH   3  20
TORSDOF 7
ENDMDL
ENDMDL
