REMARK  Name = No_3918-gen_results/8p0m/2024-11-26-14-13-15/
REMARK  7 active torsions:
REMARK  status: ('A' for Active; 'I' for Inactive)
REMARK    1  A    between atoms: C_2  and  C_7
REMARK    2  A    between atoms: C_3  and  N_12
REMARK    3  A    between atoms: N_9  and  C_11
REMARK    4  A    between atoms: C_11  and  C_21
REMARK    5  A    between atoms: C_13  and  C_14
REMARK    6  A    between atoms: C_25  and  C_27
REMARK    7  A    between atoms: N_29  and  C_30
REMARK                            x       y       z     vdW  Elec       q    Type
REMARK                         _______ _______ _______ _____ _____    ______ ____
ROOT
ATOM      1  C   UNL A   1     -30.074  -0.836  29.861  0.00  0.00    +0.249 C 
ATOM      2  O   UNL A   1     -30.561  -0.442  28.942  0.00  0.00    -0.270 OA
ATOM      3  N   UNL A   1     -30.749  -1.403  30.947  0.00  0.00    -0.270 N 
ATOM      4  C   UNL A   1     -30.315  -1.947  32.085  0.00  0.00    +0.116 C 
ENDROOT
BRANCH   1   6
ATOM      5  C   UNL A   1     -28.016  -0.814  28.878  0.00  0.00    +0.021 A 
ATOM      6  C   UNL A   1     -28.469  -0.785  29.829  0.00  0.00    +0.055 A 
ATOM      7  C   UNL A   1     -26.504  -0.778  28.877  0.00  0.00    +0.074 A 
ATOM      8  C   UNL A   1     -25.810  -0.853  30.103  0.00  0.00    +0.017 A 
ATOM      9  C   UNL A   1     -27.991  -0.892  31.226  0.00  0.00    +0.005 A 
ATOM     10  C   UNL A   1     -26.604  -0.868  31.265  0.00  0.00    +0.002 A 
BRANCH   7  11
ATOM     11  N   UNL A   1     -25.700  -0.677  27.755  0.00  0.00    -0.175 NA
ATOM     12  C   UNL A   1     -25.173   0.566  27.361  0.00  0.00    +0.269 C 
ATOM     13  O   UNL A   1     -25.863   1.412  26.811  0.00  0.00    -0.268 OA
BRANCH  12  14
ATOM     14  C   UNL A   1     -23.896   0.825  27.879  0.00  0.00    +0.055 A 
ATOM     15  C   UNL A   1     -23.088   1.851  27.294  0.00  0.00    +0.005 A 
ATOM     16  C   UNL A   1     -21.797   2.160  27.805  0.00  0.00    +0.000 A 
ATOM     17  C   UNL A   1     -21.275   1.133  28.760  0.00  0.00    +0.000 A 
ATOM     18  C   UNL A   1     -21.973   0.098  29.202  0.00  0.00    +0.000 A 
ATOM     19  C   UNL A   1     -23.263  -0.093  28.762  0.00  0.00    +0.005 A 
ENDBRANCH  12  14
ENDBRANCH   7  11
ENDBRANCH   1   6
BRANCH   3  20
ATOM     20  C   UNL A   1     -32.237  -1.359  30.753  0.00  0.00    +0.120 C 
BRANCH  20  21
ATOM     21  C   UNL A   1     -32.994  -0.483  31.238  0.00  0.00    -0.002 A 
ATOM     22  C   UNL A   1     -32.750   0.061  32.325  0.00  0.00    -0.003 A 
ATOM     23  C   UNL A   1     -33.632   1.100  33.006  0.00  0.00    -0.000 A 
ATOM     24  C   UNL A   1     -34.783   1.379  32.252  0.00  0.00    +0.005 A 
ATOM     25  C   UNL A   1     -35.048   0.790  31.076  0.00  0.00    +0.055 A 
ATOM     26  C   UNL A   1     -34.164  -0.138  30.526  0.00  0.00    +0.002 A 
BRANCH  25  27
ATOM     27  C   UNL A   1     -36.275   1.121  30.332  0.00  0.00    +0.269 C 
ATOM     28  O   UNL A   1     -36.857   0.582  29.573  0.00  0.00    -0.268 OA
ATOM     29  N   UNL A   1     -36.631   2.417  30.670  0.00  0.00    -0.175 NA
BRANCH  29  30
ATOM     30  C   UNL A   1     -37.831   2.999  30.049  0.00  0.00    +0.074 A 
ATOM     31  C   UNL A   1     -38.659   2.658  29.479  0.00  0.00    +0.017 A 
ATOM     32  C   UNL A   1     -39.766   3.375  28.955  0.00  0.00    +0.001 A 
ATOM     33  C   UNL A   1     -39.781   4.764  29.242  0.00  0.00    +0.000 A 
ATOM     34  C   UNL A   1     -38.745   5.287  29.959  0.00  0.00    +0.001 A 
ATOM     35  C   UNL A   1     -37.710   4.514  30.464  0.00  0.00    +0.017 A 
ENDBRANCH  29  30
ENDBRANCH  25  27
ENDBRANCH  20  21
ENDBRANCH   3  20
TORSDOF 7
