MODEL 3919
MODEL 1
REMARK VINA RESULT:    -6.497      0.000      0.000
REMARK INTER + INTRA:          -7.255
REMARK INTER:                  -6.877
REMARK INTRA:                  -0.378
REMARK UNBOUND:                -0.378
REMARK  Name = No_3919-gen_results/8p0m/2024-11-26-14-13-15/
REMARK  1 active torsions:
REMARK  status: ('A' for Active; 'I' for Inactive)
REMARK    1  A    between atoms: C_3  and  C_7
REMARK                            x       y       z     vdW  Elec       q    Type
REMARK                         _______ _______ _______ _____ _____    ______ ____
ROOT
ATOM      1  C   UNL A   1     -25.899  -2.562  29.688  0.00  0.00    +0.000 A 
ATOM      2  C   UNL A   1     -26.365  -3.483  29.897  0.00  0.00    +0.000 A 
ATOM      3  C   UNL A   1     -24.652  -2.589  29.026  0.00  0.00    +0.000 A 
ATOM      4  C   UNL A   1     -24.041  -3.774  28.667  0.00  0.00    +0.000 A 
ATOM      5  C   UNL A   1     -24.726  -4.939  28.973  0.00  0.00    +0.000 A 
ATOM      6  C   UNL A   1     -25.958  -4.862  29.587  0.00  0.00    +0.000 A 
ENDROOT
BRANCH   3   7
ATOM      7  C   UNL A   1     -23.891  -1.353  28.649  0.00  0.00    +0.000 A 
ATOM      8  C   UNL A   1     -22.596  -1.263  29.181  0.00  0.00    +0.000 A 
ATOM      9  C   UNL A   1     -24.420  -0.347  27.870  0.00  0.00    +0.000 A 
ATOM     10  C   UNL A   1     -23.610   0.694  27.471  0.00  0.00    +0.000 A 
ATOM     11  C   UNL A   1     -21.831  -0.088  28.953  0.00  0.00    +0.000 A 
ATOM     12  C   UNL A   1     -22.359   0.879  28.033  0.00  0.00    +0.000 A 
ENDBRANCH   3   7
TORSDOF 1
ENDMDL
ENDMDL
