REMARK  Name = No_392-gen_results/8p0m/2024-11-26-14-13-15/
REMARK  7 active torsions:
REMARK  status: ('A' for Active; 'I' for Inactive)
REMARK    1  A    between atoms: C_3  and  C_7
REMARK    2  A    between atoms: C_6  and  O_13
REMARK    3  A    between atoms: O_13  and  C_14
REMARK    4  A    between atoms: C_15  and  C_21
REMARK    5  A    between atoms: C_21  and  N_22
REMARK    6  A    between atoms: N_22  and  C_23
REMARK    7  A    between atoms: N_22  and  C_25
REMARK                            x       y       z     vdW  Elec       q    Type
REMARK                         _______ _______ _______ _____ _____    ______ ____
ROOT
ATOM      1  C   UNL A   1     -29.277  -2.817  31.439  0.00  0.00    +0.146 A 
ATOM      2  C   UNL A   1     -30.665  -2.697  31.639  0.00  0.00    +0.033 A 
ATOM      3  C   UNL A   1     -31.063  -2.840  32.866  0.00  0.00    +0.004 A 
ATOM      4  C   UNL A   1     -30.336  -2.811  33.712  0.00  0.00    +0.042 A 
ATOM      5  C   UNL A   1     -28.917  -2.886  33.733  0.00  0.00    +0.199 A 
ATOM      6  C   UNL A   1     -28.364  -2.880  32.491  0.00  0.00    +0.079 A 
ATOM      7  O   UNL A   1     -28.129  -2.845  34.796  0.00  0.00    -0.286 OA
ENDROOT
BRANCH   1   8
ATOM      8  O   UNL A   1     -28.924  -2.729  30.133  0.00  0.00    -0.454 OA
BRANCH   8  14
ATOM      9  C   UNL A   1     -28.016  -0.814  28.878  0.00  0.00    +0.037 A 
ATOM     10  C   UNL A   1     -27.064  -0.119  28.608  0.00  0.00    +0.003 A 
ATOM     11  C   UNL A   1     -25.765  -0.390  29.036  0.00  0.00    +0.000 A 
ATOM     12  C   UNL A   1     -25.530  -1.530  29.901  0.00  0.00    +0.003 A 
ATOM     13  C   UNL A   1     -26.658  -2.292  30.203  0.00  0.00    +0.037 A 
ATOM     14  C   UNL A   1     -27.855  -1.956  29.763  0.00  0.00    +0.145 A 
BRANCH  11  15
ATOM     15  C   UNL A   1     -24.535   0.413  28.743  0.00  0.00    +0.000 A 
ATOM     16  C   UNL A   1     -24.483   1.243  27.740  0.00  0.00    +0.000 A 
ATOM     17  C   UNL A   1     -23.313   1.855  27.351  0.00  0.00    +0.000 A 
ATOM     18  C   UNL A   1     -22.078   1.619  27.959  0.00  0.00    +0.000 A 
ATOM     19  C   UNL A   1     -23.269   0.095  29.417  0.00  0.00    +0.000 A 
ATOM     20  C   UNL A   1     -22.062   0.748  29.031  0.00  0.00    +0.000 A 
ENDBRANCH  11  15
ENDBRANCH   8  14
ENDBRANCH   1   8
BRANCH   2  21
ATOM     21  C   UNL A   1     -31.527  -2.715  30.434  0.00  0.00    +0.124 C 
BRANCH  21  22
ATOM     22  N   UNL A   1     -31.679  -1.910  29.709  0.00  0.00    -0.264 N 
BRANCH  22  23
ATOM     23  C   UNL A   1     -31.868  -1.998  28.273  0.00  0.00    +0.320 C 
ATOM     24  F   UNL A   1     -31.711  -3.253  27.929  0.00  0.00    -0.196 F 
ATOM     25 CL   UNL A   1     -31.892  -0.877  27.153  0.00  0.00    -0.055 Cl
ENDBRANCH  22  23
BRANCH  22  26
ATOM     26  C   UNL A   1     -31.706  -0.584  30.067  0.00  0.00    +0.065 C 
ATOM     27  C   UNL A   1     -31.776   0.471  29.014  0.00  0.00    +0.017 C 
ENDBRANCH  22  26
ENDBRANCH  21  22
ENDBRANCH   2  21
TORSDOF 7
