MODEL 3920
MODEL 1
REMARK VINA RESULT:    -5.267      0.000      0.000
REMARK INTER + INTRA:          -5.725
REMARK INTER:                  -5.575
REMARK INTRA:                  -0.150
REMARK UNBOUND:                -0.150
REMARK  Name = No_3920-gen_results/8p0m/2024-11-26-14-13-15/
REMARK  1 active torsions:
REMARK  status: ('A' for Active; 'I' for Inactive)
REMARK    1  A    between atoms: C_3  and  C_7
REMARK                            x       y       z     vdW  Elec       q    Type
REMARK                         _______ _______ _______ _____ _____    ______ ____
ROOT
ATOM      1  C   UNL A   1     -26.035  -2.956  29.637  0.00  0.00    +0.015 A 
ATOM      2  C   UNL A   1     -26.244  -3.985  29.726  0.00  0.00    +0.058 A 
ATOM      3  C   UNL A   1     -24.746  -2.672  29.007  0.00  0.00    +0.072 A 
ATOM      4  C   UNL A   1     -23.915  -3.671  28.563  0.00  0.00    +0.004 A 
ATOM      5  C   UNL A   1     -25.574  -5.231  29.354  0.00  0.00    +0.011 A 
ATOM      6  C   UNL A   1     -24.325  -4.967  28.743  0.00  0.00    +0.001 A 
ATOM      7 CL   UNL A   1     -27.894  -4.448  30.411  0.00  0.00    -0.082 Cl
ENDROOT
BRANCH   3   8
ATOM      8  C   UNL A   1     -24.291  -1.274  28.756  0.00  0.00    +0.419 C 
ATOM      9  F   UNL A   1     -24.801  -0.969  27.665  0.00  0.00    -0.166 F 
ATOM     10  F   UNL A   1     -24.706  -0.471  29.729  0.00  0.00    -0.166 F 
ATOM     11  F   UNL A   1     -22.937  -1.214  28.658  0.00  0.00    -0.166 F 
ENDBRANCH   3   8
TORSDOF 1
ENDMDL
ENDMDL
