MODEL 3921
MODEL 1
REMARK VINA RESULT:    -5.923      0.000      0.000
REMARK INTER + INTRA:          -6.907
REMARK INTER:                  -6.616
REMARK INTRA:                  -0.292
REMARK UNBOUND:                -0.292
REMARK  Name = No_3921-gen_results/8p0m/2024-11-26-14-13-15/
REMARK  2 active torsions:
REMARK  status: ('A' for Active; 'I' for Inactive)
REMARK    1  A    between atoms: C_2  and  C_11
REMARK    2  A    between atoms: C_3  and  C_7
REMARK                            x       y       z     vdW  Elec       q    Type
REMARK                         _______ _______ _______ _____ _____    ______ ____
ROOT
ATOM      1  C   UNL A   1     -28.234 -11.811  31.416  0.00  0.00    +0.010 A 
ATOM      2  C   UNL A   1     -28.128 -11.477  32.409  0.00  0.00    +0.080 A 
ATOM      3  C   UNL A   1     -29.154 -11.133  30.586  0.00  0.00    +0.072 A 
ATOM      4  C   UNL A   1     -29.909 -10.072  31.047  0.00  0.00    +0.004 A 
ATOM      5  C   UNL A   1     -28.799 -10.384  33.140  0.00  0.00    +0.007 A 
ATOM      6  C   UNL A   1     -29.691  -9.709  32.382  0.00  0.00    +0.000 A 
ENDROOT
BRANCH   3   7
ATOM      7  C   UNL A   1     -29.372 -11.485  29.143  0.00  0.00    +0.419 C 
ATOM      8  F   UNL A   1     -28.449 -11.798  28.531  0.00  0.00    -0.166 F 
ATOM      9  F   UNL A   1     -30.046 -10.390  28.544  0.00  0.00    -0.166 F 
ATOM     10  F   UNL A   1     -30.388 -12.468  28.932  0.00  0.00    -0.166 F 
ENDBRANCH   3   7
BRANCH   2  11
ATOM     11  C   UNL A   1     -27.107 -12.042  33.507  0.00  0.00    +0.388 C 
ATOM     12  O   UNL A   1     -26.623 -12.918  33.660  0.00  0.00    -0.241 OA
ATOM     13  O   UNL A   1     -27.053 -11.058  34.509  0.00  0.00    -0.241 OA
ENDBRANCH   2  11
TORSDOF 2
ENDMDL
ENDMDL
