MODEL 3922
MODEL 1
REMARK VINA RESULT:    -4.535      0.000      0.000
REMARK INTER + INTRA:          -4.535
REMARK INTER:                  -4.535
REMARK INTRA:                   0.000
REMARK UNBOUND:                 0.000
REMARK  Name = No_3922-gen_results/8p0m/2024-11-26-14-13-15/
REMARK  0 active torsions:
REMARK  status: ('A' for Active; 'I' for Inactive)
REMARK                            x       y       z     vdW  Elec       q    Type
REMARK                         _______ _______ _______ _____ _____    ______ ____
ROOT
ATOM      1  C   UNL A   1     -24.139  -4.628  28.702  0.00  0.00    +0.030 A 
ATOM      2  C   UNL A   1     -24.983  -5.200  28.971  0.00  0.00    +0.002 A 
ATOM      3  C   UNL A   1     -24.176  -3.240  28.960  0.00  0.00    +0.140 A 
ATOM      4  C   UNL A   1     -25.275  -2.632  29.532  0.00  0.00    +0.030 A 
ATOM      5  C   UNL A   1     -26.337  -3.459  29.860  0.00  0.00    +0.002 A 
ATOM      6  C   UNL A   1     -26.242  -4.814  29.624  0.00  0.00    +0.000 A 
ATOM      7  F   UNL A   1     -23.140  -2.438  28.671  0.00  0.00    -0.204 F 
ENDROOT
TORSDOF 0
ENDMDL
ENDMDL
