REMARK  Name = No_3923-gen_results/8p0m/2024-11-26-14-13-15/
REMARK  0 active torsions:
REMARK  status: ('A' for Active; 'I' for Inactive)
REMARK                            x       y       z     vdW  Elec       q    Type
REMARK                         _______ _______ _______ _____ _____    ______ ____
ROOT
ATOM      1  F   UNL A   1     -28.073  -1.254  28.532  0.00  0.00    -0.140 F 
ATOM      2  C   UNL A   1     -27.061  -0.629  28.872  0.00  0.00    +0.561 C 
ATOM      3  F   UNL A   1     -27.249   0.252  29.659  0.00  0.00    -0.140 F 
ATOM      4  F   UNL A   1     -26.481  -0.136  27.717  0.00  0.00    -0.140 F 
ATOM      5  F   UNL A   1     -26.144  -1.546  29.328  0.00  0.00    -0.140 F 
ENDROOT
TORSDOF 0
