MODEL 3924
MODEL 1
REMARK VINA RESULT:    -5.548      0.000      0.000
REMARK INTER + INTRA:          -5.908
REMARK INTER:                  -5.872
REMARK INTRA:                  -0.036
REMARK UNBOUND:                -0.036
REMARK  Name = No_3924-gen_results/8p0m/2024-11-26-14-13-15/
REMARK  1 active torsions:
REMARK  status: ('A' for Active; 'I' for Inactive)
REMARK    1  A    between atoms: CA_8  and  C_9
REMARK                            x       y       z     vdW  Elec       q    Type
REMARK                         _______ _______ _______ _____ _____    ______ ____
ROOT
ATOM      1  N   UNL A   1     -24.371  -0.490  27.982  0.00  0.00    -0.242 NA
ATOM      2  C   UNL A   1     -24.103   0.526  27.822  0.00  0.00    +0.081 A 
ATOM      3  C   UNL A   1     -24.557   1.191  26.734  0.00  0.00    +0.019 A 
ATOM      4  C   UNL A   1     -23.699   1.726  25.696  0.00  0.00    +0.002 A 
ATOM      5  C   UNL A   1     -22.734   2.213  25.884  0.00  0.00    +0.000 A 
ATOM      6  C   UNL A   1     -22.084   1.924  27.239  0.00  0.00    +0.002 A 
ATOM      7  C   UNL A   1     -22.723   1.008  28.040  0.00  0.00    +0.018 A 
ATOM      8  CA  UNL A   1     -23.452  -1.320  28.719  0.00  0.00    +0.123 A 
ATOM      9  C   UNL A   1     -22.098  -0.891  29.065  0.00  0.00    +0.022 A 
ATOM     10  C   UNL A   1     -21.714   0.268  28.562  0.00  0.00    +0.003 A 
ENDROOT
BRANCH   8  11
ATOM     11  C   UNL A   1     -23.836  -2.609  29.253  0.00  0.00    +0.253 C 
ATOM     12  O   UNL A   1     -23.620  -3.556  28.826  0.00  0.00    -0.281 OA
ENDBRANCH   8  11
TORSDOF 1
ENDMDL
ENDMDL
