REMARK  Name = No_3924-gen_results/8p0m/2024-11-26-14-13-15/
REMARK  1 active torsions:
REMARK  status: ('A' for Active; 'I' for Inactive)
REMARK    1  A    between atoms: CA_8  and  C_9
REMARK                            x       y       z     vdW  Elec       q    Type
REMARK                         _______ _______ _______ _____ _____    ______ ____
ROOT
ATOM      1  N   UNL A   1     -28.054  -1.050  28.725  0.00  0.00    -0.242 NA
ATOM      2  C   UNL A   1     -27.746  -0.073  29.010  0.00  0.00    +0.081 A 
ATOM      3  C   UNL A   1     -27.174   0.756  28.107  0.00  0.00    +0.019 A 
ATOM      4  C   UNL A   1     -25.820   1.261  28.215  0.00  0.00    +0.002 A 
ATOM      5  C   UNL A   1     -25.354   1.579  29.155  0.00  0.00    +0.000 A 
ATOM      6  C   UNL A   1     -26.006   1.064  30.441  0.00  0.00    +0.002 A 
ATOM      7  C   UNL A   1     -27.043   0.177  30.286  0.00  0.00    +0.018 A 
ATOM      8  CA  UNL A   1     -28.063  -2.075  29.737  0.00  0.00    +0.123 A 
ATOM      9  C   UNL A   1     -27.477  -1.886  31.063  0.00  0.00    +0.022 A 
ATOM     10  C   UNL A   1     -26.828  -0.752  31.250  0.00  0.00    +0.003 A 
ENDROOT
BRANCH   8  11
ATOM     11  C   UNL A   1     -28.739  -3.341  29.546  0.00  0.00    +0.253 C 
ATOM     12  O   UNL A   1     -29.748  -3.476  29.247  0.00  0.00    -0.281 OA
ENDBRANCH   8  11
TORSDOF 1
