MODEL 3925
MODEL 1
REMARK VINA RESULT:    -5.300      0.000      0.000
REMARK INTER + INTRA:          -5.761
REMARK INTER:                  -5.610
REMARK INTRA:                  -0.151
REMARK UNBOUND:                -0.151
REMARK  Name = No_3925-gen_results/8p0m/2024-11-26-14-13-15/
REMARK  1 active torsions:
REMARK  status: ('A' for Active; 'I' for Inactive)
REMARK    1  A    between atoms: C_4  and  C_7
REMARK                            x       y       z     vdW  Elec       q    Type
REMARK                         _______ _______ _______ _____ _____    ______ ____
ROOT
ATOM      1  C   UNL A   1     -26.612  -4.009  29.833  0.00  0.00    -0.000 A 
ATOM      2  C   UNL A   1     -26.099  -4.905  29.623  0.00  0.00    -0.000 A 
ATOM      3  C   UNL A   1     -25.824  -2.739  29.599  0.00  0.00    -0.000 A 
ATOM      4  C   UNL A   1     -24.550  -2.817  28.999  0.00  0.00    -0.000 A 
ATOM      5  C   UNL A   1     -24.816  -5.256  28.974  0.00  0.00    -0.000 A 
ATOM      6  C   UNL A   1     -24.066  -4.112  28.738  0.00  0.00    -0.000 A 
ENDROOT
BRANCH   4   7
ATOM      7  C   UNL A   1     -23.757  -1.657  28.771  0.00  0.00    -0.005 C 
ATOM      8  C   UNL A   1     -22.666  -1.419  29.370  0.00  0.00    -0.026 C 
ATOM      9  C   UNL A   1     -21.787  -0.286  29.026  0.00  0.00    +0.031 C 
ENDBRANCH   4   7
TORSDOF 1
ENDMDL
ENDMDL
