REMARK  Name = No_3926-gen_results/8p0m/2024-11-26-14-13-15/
REMARK  2 active torsions:
REMARK  status: ('A' for Active; 'I' for Inactive)
REMARK    1  A    between atoms: C_7  and  C_19
REMARK    2  A    between atoms: C_14  and  C_15
REMARK                            x       y       z     vdW  Elec       q    Type
REMARK                         _______ _______ _______ _____ _____    ______ ____
ROOT
ATOM      1  C   UNL A   1     -28.016  -0.814  28.878  0.00  0.00    +0.006 A 
ATOM      2  C   UNL A   1     -27.064  -0.119  28.608  0.00  0.00    +0.004 A 
ATOM      3  C   UNL A   1     -25.765  -0.390  29.036  0.00  0.00    -0.000 A 
ATOM      4  C   UNL A   1     -24.552   0.406  28.765  0.00  0.00    -0.000 A 
ATOM      5  C   UNL A   1     -23.230   0.118  29.258  0.00  0.00    -0.000 A 
ATOM      6  C   UNL A   1     -22.139   0.943  28.922  0.00  0.00    -0.000 A 
ATOM      7  C   UNL A   1     -27.829  -1.929  29.855  0.00  0.00    +0.080 A 
ATOM      8  C   UNL A   1     -26.588  -2.327  30.268  0.00  0.00    +0.007 A 
ATOM      9  C   UNL A   1     -25.456  -1.543  29.915  0.00  0.00    +0.000 A 
ATOM     10  C   UNL A   1     -22.230   1.909  27.872  0.00  0.00    -0.000 A 
ATOM     11  C   UNL A   1     -24.554   1.470  27.762  0.00  0.00    -0.000 A 
ATOM     12  C   UNL A   1     -25.819   1.734  27.141  0.00  0.00    +0.004 A 
ATOM     13  C   UNL A   1     -23.450   2.161  27.319  0.00  0.00    -0.000 A 
ATOM     14  C   UNL A   1     -27.105   1.009  27.587  0.00  0.00    +0.071 A 
ENDROOT
BRANCH  14  15
ATOM     15  C   UNL A   1     -28.347   1.328  26.986  0.00  0.00    +0.419 C 
ATOM     16  F   UNL A   1     -28.171   1.830  26.034  0.00  0.00    -0.166 F 
ATOM     17  F   UNL A   1     -28.914   2.169  27.920  0.00  0.00    -0.166 F 
ATOM     18  F   UNL A   1     -29.095   0.241  26.855  0.00  0.00    -0.166 F 
ENDBRANCH  14  15
BRANCH   7  19
ATOM     19  C   UNL A   1     -29.061  -2.729  30.243  0.00  0.00    +0.388 C 
ATOM     20  O   UNL A   1     -28.956  -3.951  30.324  0.00  0.00    -0.241 OA
ATOM     21  O   UNL A   1     -30.151  -2.164  30.499  0.00  0.00    -0.241 OA
ENDBRANCH   7  19
TORSDOF 2
