MODEL 3927
MODEL 1
REMARK VINA RESULT:    -6.038      0.000      0.000
REMARK INTER + INTRA:         -10.519
REMARK INTER:                  -8.508
REMARK INTRA:                  -2.010
REMARK UNBOUND:                -2.010
REMARK  Name = No_3927-gen_results/8p0m/2024-11-26-14-13-15/
REMARK  7 active torsions:
REMARK  status: ('A' for Active; 'I' for Inactive)
REMARK    1  A    between atoms: C_2  and  C_8
REMARK    2  A    between atoms: C_4  and  N_12
REMARK    3  A    between atoms: C_5  and  O_7
REMARK    4  A    between atoms: O_7  and  C_13
REMARK    5  A    between atoms: N_12  and  C_22
REMARK    6  A    between atoms: C_24  and  C_25
REMARK    7  A    between atoms: C_26  and  C_27
REMARK                            x       y       z     vdW  Elec       q    Type
REMARK                         _______ _______ _______ _____ _____    ______ ____
ROOT
ATOM      1  C   UNL A   1     -26.861   0.613  27.259  0.00  0.00    +0.007 A 
ATOM      2  C   UNL A   1     -26.120   0.010  26.518  0.00  0.00    +0.073 A 
ATOM      3  C   UNL A   1     -25.077  -0.805  26.924  0.00  0.00    +0.022 A 
ATOM      4  C   UNL A   1     -24.888  -0.965  28.328  0.00  0.00    +0.086 A 
ATOM      5  C   UNL A   1     -25.821  -0.401  29.121  0.00  0.00    +0.152 A 
ATOM      6  C   UNL A   1     -26.842   0.297  28.619  0.00  0.00    +0.038 A 
ENDROOT
BRANCH   2   7
ATOM      7  C   UNL A   1     -26.146   0.232  24.969  0.00  0.00    +0.419 C 
ATOM      8  F   UNL A   1     -26.525   1.273  24.666  0.00  0.00    -0.166 F 
ATOM      9  F   UNL A   1     -24.886   0.079  24.452  0.00  0.00    -0.166 F 
ATOM     10  F   UNL A   1     -26.828  -0.780  24.391  0.00  0.00    -0.166 F 
ENDBRANCH   2   7
BRANCH   4  11
ATOM     11  N   UNL A   1     -23.828  -1.748  28.736  0.00  0.00    -0.282 N 
ATOM     12  C   UNL A   1     -24.082  -3.115  28.880  0.00  0.00    +0.117 C 
BRANCH  11  13
ATOM     13  C   UNL A   1     -22.690  -1.252  29.137  0.00  0.00    +0.066 C 
ATOM     14  C   UNL A   1     -22.342   0.039  29.098  0.00  0.00    +0.016 C 
BRANCH  14  15
ATOM     15  C   UNL A   1     -21.419   0.754  28.422  0.00  0.00    +0.001 C 
ATOM     16  C   UNL A   1     -21.591   1.552  27.317  0.00  0.00    +0.000 C 
BRANCH  16  17
ATOM     17  C   UNL A   1     -22.948   1.746  26.850  0.00  0.00    +0.000 C 
ATOM     18  C   UNL A   1     -23.723   2.787  27.368  0.00  0.00    +0.000 C 
ENDBRANCH  16  17
ENDBRANCH  14  15
ENDBRANCH  11  13
ENDBRANCH   4  11
BRANCH   5  19
ATOM     19  O   UNL A   1     -25.670  -0.621  30.457  0.00  0.00    -0.469 OA
BRANCH  19  20
ATOM     20  C   UNL A   1     -26.374  -0.114  31.234  0.00  0.00    +0.241 C 
ATOM     21  C   UNL A   1     -25.683   0.554  32.353  0.00  0.00    +0.051 C 
ATOM     22  C   UNL A   1     -27.362  -1.028  31.935  0.00  0.00    +0.266 C 
ATOM     23  O   UNL A   1     -27.792  -1.978  31.455  0.00  0.00    -0.271 OA
ATOM     24  N   UNL A   1     -27.867  -0.653  33.157  0.00  0.00    -0.275 N 
ATOM     25  C   UNL A   1     -27.326   0.252  34.036  0.00  0.00    +0.094 C 
ATOM     26  C   UNL A   1     -24.608   1.521  31.815  0.00  0.00    +0.004 C 
ATOM     27  C   UNL A   1     -25.500   0.497  33.654  0.00  0.00    +0.026 C 
ATOM     28  C   UNL A   1     -29.004  -1.357  33.746  0.00  0.00    +0.115 C 
ENDBRANCH  19  20
ENDBRANCH   5  19
TORSDOF 7
ENDMDL
ENDMDL
