REMARK  Name = No_3927-gen_results/8p0m/2024-11-26-14-13-15/
REMARK  7 active torsions:
REMARK  status: ('A' for Active; 'I' for Inactive)
REMARK    1  A    between atoms: C_2  and  C_8
REMARK    2  A    between atoms: C_4  and  N_12
REMARK    3  A    between atoms: C_5  and  O_7
REMARK    4  A    between atoms: O_7  and  C_13
REMARK    5  A    between atoms: N_12  and  C_22
REMARK    6  A    between atoms: C_24  and  C_25
REMARK    7  A    between atoms: C_26  and  C_27
REMARK                            x       y       z     vdW  Elec       q    Type
REMARK                         _______ _______ _______ _____ _____    ______ ____
ROOT
ATOM      1  C   UNL A   1     -28.016  -0.814  28.878  0.00  0.00    +0.007 A 
ATOM      2  C   UNL A   1     -27.064  -0.119  28.608  0.00  0.00    +0.073 A 
ATOM      3  C   UNL A   1     -26.972   0.714  27.506  0.00  0.00    +0.022 A 
ATOM      4  C   UNL A   1     -28.105   0.774  26.642  0.00  0.00    +0.086 A 
ATOM      5  C   UNL A   1     -29.201   0.104  27.053  0.00  0.00    +0.152 A 
ATOM      6  C   UNL A   1     -29.210  -0.603  28.185  0.00  0.00    +0.038 A 
ENDROOT
BRANCH   2   7
ATOM      7  C   UNL A   1     -25.719  -0.221  29.401  0.00  0.00    +0.419 C 
ATOM      8  F   UNL A   1     -24.791  -0.224  28.723  0.00  0.00    -0.166 F 
ATOM      9  F   UNL A   1     -25.601   0.836  30.265  0.00  0.00    -0.166 F 
ATOM     10  F   UNL A   1     -25.779  -1.281  30.236  0.00  0.00    -0.166 F 
ENDBRANCH   2   7
BRANCH   4  11
ATOM     11  N   UNL A   1     -28.004   1.575  25.524  0.00  0.00    -0.282 N 
ATOM     12  C   UNL A   1     -27.641   0.940  24.332  0.00  0.00    +0.117 C 
BRANCH  11  13
ATOM     13  C   UNL A   1     -28.070   2.877  25.573  0.00  0.00    +0.066 C 
ATOM     14  C   UNL A   1     -27.544   3.651  26.528  0.00  0.00    +0.016 C 
BRANCH  14  15
ATOM     15  C   UNL A   1     -28.051   4.461  27.481  0.00  0.00    +0.001 C 
ATOM     16  C   UNL A   1     -27.400   5.070  28.526  0.00  0.00    +0.000 C 
BRANCH  16  17
ATOM     17  C   UNL A   1     -25.961   4.918  28.584  0.00  0.00    +0.000 C 
ATOM     18  C   UNL A   1     -25.301   4.148  27.623  0.00  0.00    +0.000 C 
ENDBRANCH  16  17
ENDBRANCH  14  15
ENDBRANCH  11  13
ENDBRANCH   4  11
BRANCH   5  19
ATOM     19  O   UNL A   1     -30.299   0.228  26.257  0.00  0.00    -0.469 OA
BRANCH  19  20
ATOM     20  C   UNL A   1     -31.009  -0.676  26.067  0.00  0.00    +0.241 C 
ATOM     21  C   UNL A   1     -31.511  -0.789  24.684  0.00  0.00    +0.051 C 
ATOM     22  C   UNL A   1     -32.277  -0.715  26.898  0.00  0.00    +0.266 C 
ATOM     23  O   UNL A   1     -32.354  -0.266  27.952  0.00  0.00    -0.271 OA
ATOM     24  N   UNL A   1     -33.361  -1.420  26.431  0.00  0.00    -0.275 N 
ATOM     25  C   UNL A   1     -33.613  -1.791  25.133  0.00  0.00    +0.094 C 
ATOM     26  C   UNL A   1     -30.337  -0.743  23.684  0.00  0.00    +0.004 C 
ATOM     27  C   UNL A   1     -32.606  -0.720  23.959  0.00  0.00    +0.026 C 
ATOM     28  C   UNL A   1     -34.500  -1.706  27.300  0.00  0.00    +0.115 C 
ENDBRANCH  19  20
ENDBRANCH   5  19
TORSDOF 7
