MODEL 3928
MODEL 1
REMARK VINA RESULT:    -8.208      0.000      0.000
REMARK INTER + INTRA:         -10.541
REMARK INTER:                  -9.648
REMARK INTRA:                  -0.893
REMARK UNBOUND:                -0.893
REMARK  Name = No_3928-gen_results/8p0m/2024-11-26-14-13-15/
REMARK  3 active torsions:
REMARK  status: ('A' for Active; 'I' for Inactive)
REMARK    1  A    between atoms: C_1  and  C_2
REMARK    2  A    between atoms: C_15  and  N_16
REMARK    3  A    between atoms: C_18  and  C_19
REMARK                            x       y       z     vdW  Elec       q    Type
REMARK                         _______ _______ _______ _____ _____    ______ ____
ROOT
ATOM      1  C   UNL A   1     -24.977   0.205  26.428  0.00  0.00    +0.071 A 
ATOM      2  C   UNL A   1     -24.678   1.490  26.867  0.00  0.00    +0.004 A 
ATOM      3  C   UNL A   1     -24.210   1.868  28.231  0.00  0.00    +0.004 A 
ATOM      4  C   UNL A   1     -24.223   0.827  29.206  0.00  0.00    +0.052 A 
ATOM      5  C   UNL A   1     -24.587  -0.457  28.754  0.00  0.00    -0.002 A 
ATOM      6  C   UNL A   1     -24.949  -0.746  27.496  0.00  0.00    +0.001 A 
ATOM      7  C   UNL A   1     -23.777   1.171  30.522  0.00  0.00    +0.265 C 
ATOM      8  N   UNL A   1     -23.617   0.318  31.400  0.00  0.00    -0.200 NA
ATOM      9  O   UNL A   1     -23.515   2.404  30.883  0.00  0.00    -0.268 OA
ATOM     10  C   UNL A   1     -23.781  -1.111  31.097  0.00  0.00    +0.136 C 
ATOM     11  C   UNL A   1     -24.390  -1.449  29.862  0.00  0.00    +0.102 C 
ENDROOT
BRANCH  11  12
ATOM     12  N   UNL A   1     -24.601  -2.748  29.604  0.00  0.00    -0.270 NA
ATOM     13  C   UNL A   1     -23.875  -3.750  28.857  0.00  0.00    +0.072 C 
ATOM     14  C   UNL A   1     -25.942  -3.256  29.961  0.00  0.00    +0.058 C 
ATOM     15  C   UNL A   1     -26.106  -4.597  29.525  0.00  0.00    +0.016 C 
ATOM     16  C   UNL A   1     -25.277  -5.425  28.892  0.00  0.00    +0.003 C 
ATOM     17  C   UNL A   1     -24.044  -4.891  28.571  0.00  0.00    +0.017 C 
BRANCH  14  18
ATOM     18  C   UNL A   1     -26.873  -2.580  30.436  0.00  0.00    +0.016 C 
ATOM     19  C   UNL A   1     -28.123  -3.141  30.768  0.00  0.00    +0.001 C 
ENDBRANCH  14  18
ENDBRANCH  11  12
BRANCH   1  20
ATOM     20  C   UNL A   1     -25.343   0.001  25.294  0.00  0.00    +0.419 C 
ATOM     21  F   UNL A   1     -25.732  -1.109  24.898  0.00  0.00    -0.166 F 
ATOM     22  F   UNL A   1     -24.354   0.296  24.292  0.00  0.00    -0.166 F 
ATOM     23  F   UNL A   1     -26.383   0.901  25.023  0.00  0.00    -0.166 F 
ENDBRANCH   1  20
TORSDOF 3
ENDMDL
ENDMDL
