REMARK  Name = No_3928-gen_results/8p0m/2024-11-26-14-13-15/
REMARK  3 active torsions:
REMARK  status: ('A' for Active; 'I' for Inactive)
REMARK    1  A    between atoms: C_1  and  C_2
REMARK    2  A    between atoms: C_15  and  N_16
REMARK    3  A    between atoms: C_18  and  C_19
REMARK                            x       y       z     vdW  Elec       q    Type
REMARK                         _______ _______ _______ _____ _____    ______ ____
ROOT
ATOM      1  C   UNL A   1     -27.064  -0.119  28.608  0.00  0.00    +0.071 A 
ATOM      2  C   UNL A   1     -25.792  -0.430  29.076  0.00  0.00    +0.004 A 
ATOM      3  C   UNL A   1     -24.546   0.349  28.823  0.00  0.00    +0.004 A 
ATOM      4  C   UNL A   1     -24.659   1.420  27.888  0.00  0.00    +0.052 A 
ATOM      5  C   UNL A   1     -25.947   1.681  27.379  0.00  0.00    -0.002 A 
ATOM      6  C   UNL A   1     -27.044   0.974  27.687  0.00  0.00    +0.001 A 
ATOM      7  C   UNL A   1     -23.473   2.179  27.632  0.00  0.00    +0.265 C 
ATOM      8  N   UNL A   1     -23.492   3.208  26.949  0.00  0.00    -0.200 NA
ATOM      9  O   UNL A   1     -22.296   1.835  28.095  0.00  0.00    -0.268 OA
ATOM     10  C   UNL A   1     -24.763   3.757  26.454  0.00  0.00    +0.136 C 
ATOM     11  C   UNL A   1     -25.910   2.928  26.546  0.00  0.00    +0.102 C 
ENDROOT
BRANCH  11  12
ATOM     12  N   UNL A   1     -27.060   3.395  26.040  0.00  0.00    -0.270 NA
ATOM     13  C   UNL A   1     -28.010   4.396  26.471  0.00  0.00    +0.072 C 
ATOM     14  C   UNL A   1     -27.623   2.614  24.919  0.00  0.00    +0.058 C 
ATOM     15  C   UNL A   1     -28.901   3.111  24.550  0.00  0.00    +0.016 C 
ATOM     16  C   UNL A   1     -29.622   4.125  25.023  0.00  0.00    +0.003 C 
ATOM     17  C   UNL A   1     -29.052   4.809  26.079  0.00  0.00    +0.017 C 
BRANCH  14  18
ATOM     18  C   UNL A   1     -27.142   1.567  24.448  0.00  0.00    +0.016 C 
ATOM     19  C   UNL A   1     -27.872   0.716  23.593  0.00  0.00    +0.001 C 
ENDBRANCH  14  18
ENDBRANCH  11  12
BRANCH   1  20
ATOM     20  C   UNL A   1     -28.016  -0.814  28.878  0.00  0.00    +0.419 C 
ATOM     21  F   UNL A   1     -27.923  -2.032  29.100  0.00  0.00    -0.166 F 
ATOM     22  F   UNL A   1     -29.049  -0.816  27.878  0.00  0.00    -0.166 F 
ATOM     23  F   UNL A   1     -28.634  -0.256  30.006  0.00  0.00    -0.166 F 
ENDBRANCH   1  20
TORSDOF 3
