REMARK  Name = No_3929-gen_results/8p0m/2024-11-26-14-13-15/
REMARK  14 active torsions:
REMARK  status: ('A' for Active; 'I' for Inactive)
REMARK    1  A    between atoms: C_1  and  C_2
REMARK    2  A    between atoms: C_1  and  N_8
REMARK    3  A    between atoms: C_5  and  C_12
REMARK    4  A    between atoms: N_8  and  C_9
REMARK    5  A    between atoms: C_9  and  C_10
REMARK    6  A    between atoms: C_10  and  N_11
REMARK    7  A    between atoms: N_11  and  C_14
REMARK    8  A    between atoms: N_11  and  C_34
REMARK    9  A    between atoms: C_14  and  C_16
REMARK   10  A    between atoms: C_14  and  C_18
REMARK   11  A    between atoms: C_19  and  C_20
REMARK   12  A    between atoms: C_20  and  C_21
REMARK   13  A    between atoms: C_23  and  C_25
REMARK   14  A    between atoms: C_25  and  C_29
REMARK                            x       y       z     vdW  Elec       q    Type
REMARK                         _______ _______ _______ _____ _____    ______ ____
ROOT
ATOM      1  C   UNL A   1     -32.301  -3.206  28.930  0.00  0.00    +0.136 C 
ENDROOT
BRANCH   1   2
ATOM      2  C   UNL A   1     -32.605  -2.751  27.689  0.00  0.00    +0.081 A 
ATOM      3  N   UNL A   1     -32.541  -3.542  26.675  0.00  0.00    -0.246 NA
ATOM      4  C   UNL A   1     -32.444  -3.022  25.369  0.00  0.00    +0.099 A 
ATOM      5  C   UNL A   1     -32.082  -1.699  25.230  0.00  0.00    +0.021 A 
ATOM      6  C   UNL A   1     -32.203  -1.345  27.367  0.00  0.00    +0.017 A 
ATOM      7  C   UNL A   1     -31.978  -0.866  26.205  0.00  0.00    +0.003 A 
ENDBRANCH   1   2
BRANCH   1   8
ATOM      8  C   UNL A   1     -33.585  -3.845  29.516  0.00  0.00    -0.005 C 
ATOM      9  C   UNL A   1     -33.505  -4.699  30.378  0.00  0.00    -0.024 C 
BRANCH   9  10
ATOM     10  C   UNL A   1     -32.295  -5.396  30.484  0.00  0.00    +0.052 C 
BRANCH  10  11
ATOM     11  C   UNL A   1     -31.889  -6.086  29.829  0.00  0.00    -0.018 A 
ATOM     12  C   UNL A   1     -31.607  -6.258  28.719  0.00  0.00    -0.008 A 
ATOM     13  C   UNL A   1     -30.928  -7.313  27.948  0.00  0.00    -0.018 A 
ATOM     14  C   UNL A   1     -31.268  -7.339  30.594  0.00  0.00    -0.004 A 
ATOM     15  C   UNL A   1     -30.899  -8.562  29.959  0.00  0.00    -0.001 A 
ATOM     16  C   UNL A   1     -30.675  -8.497  28.650  0.00  0.00    -0.004 A 
BRANCH  13  17
ATOM     17  C   UNL A   1     -30.826  -7.361  26.542  0.00  0.00    +0.052 C 
BRANCH  17  18
ATOM     18  C   UNL A   1     -30.360  -8.463  25.963  0.00  0.00    -0.021 C 
ATOM     19  C   UNL A   1     -30.129  -8.376  24.546  0.00  0.00    -0.005 C 
ENDBRANCH  17  18
ENDBRANCH  13  17
ENDBRANCH  10  11
ENDBRANCH   9  10
ENDBRANCH   1   8
BRANCH   1  20
ATOM     20  N   UNL A   1     -31.612  -2.348  29.762  0.00  0.00    -0.298 N 
BRANCH  20  21
ATOM     21  C   UNL A   1     -32.420  -1.618  30.781  0.00  0.00    +0.062 C 
ATOM     22  C   UNL A   1     -31.759  -0.670  31.579  0.00  0.00    +0.017 C 
ENDBRANCH  20  21
BRANCH  20  23
ATOM     23  C   UNL A   1     -30.375  -2.179  29.745  0.00  0.00    +0.110 C 
BRANCH  23  24
ATOM     24  C   UNL A   1     -29.803  -1.365  30.506  0.00  0.00    +0.111 C 
BRANCH  24  25
ATOM     25  N   UNL A   1     -28.700  -0.644  30.077  0.00  0.00    -0.211 NA
BRANCH  25  26
ATOM     26  C   UNL A   1     -28.016  -0.814  28.878  0.00  0.00    +0.115 C 
BRANCH  26  27
ATOM     27  C   UNL A   1     -27.064  -0.119  28.608  0.00  0.00    -0.005 A 
ATOM     28  C   UNL A   1     -26.929   1.171  29.008  0.00  0.00    -0.003 A 
ATOM     29  C   UNL A   1     -25.770   2.034  28.688  0.00  0.00    +0.005 A 
ATOM     30  C   UNL A   1     -24.714   1.443  27.919  0.00  0.00    +0.059 A 
ATOM     31  C   UNL A   1     -24.859   0.078  27.584  0.00  0.00    +0.005 A 
ATOM     32  C   UNL A   1     -25.965  -0.661  27.916  0.00  0.00    -0.003 A 
BRANCH  30  33
ATOM     33  C   UNL A   1     -23.439   1.938  27.784  0.00  0.00    +0.297 C 
ATOM     34  N   UNL A   1     -22.739   2.052  26.796  0.00  0.00    -0.102 NA
ATOM     35  O   UNL A   1     -22.780   2.329  28.910  0.00  0.00    -0.264 OA
ENDBRANCH  30  33
ENDBRANCH  26  27
ENDBRANCH  25  26
ENDBRANCH  24  25
ENDBRANCH  23  24
ENDBRANCH  20  23
ENDBRANCH   1  20
TORSDOF 14
