MODEL 3929
MODEL 1
REMARK VINA RESULT:    -5.834      0.000      0.000
REMARK INTER + INTRA:         -14.915
REMARK INTER:                 -10.609
REMARK INTRA:                  -4.306
REMARK UNBOUND:                -4.306
REMARK  Name = No_3929-gen_results/8p0m/2024-11-26-14-13-15/
REMARK  14 active torsions:
REMARK  status: ('A' for Active; 'I' for Inactive)
REMARK    1  A    between atoms: C_1  and  C_2
REMARK    2  A    between atoms: C_1  and  N_8
REMARK    3  A    between atoms: C_5  and  C_12
REMARK    4  A    between atoms: N_8  and  C_9
REMARK    5  A    between atoms: C_9  and  C_10
REMARK    6  A    between atoms: C_10  and  N_11
REMARK    7  A    between atoms: N_11  and  C_14
REMARK    8  A    between atoms: N_11  and  C_34
REMARK    9  A    between atoms: C_14  and  C_16
REMARK   10  A    between atoms: C_14  and  C_18
REMARK   11  A    between atoms: C_19  and  C_20
REMARK   12  A    between atoms: C_20  and  C_21
REMARK   13  A    between atoms: C_23  and  C_25
REMARK   14  A    between atoms: C_25  and  C_29
REMARK                            x       y       z     vdW  Elec       q    Type
REMARK                         _______ _______ _______ _____ _____    ______ ____
ROOT
ATOM      1  C   UNL A   1     -29.783 -11.629   9.613  0.00  0.00    +0.136 C 
ENDROOT
BRANCH   1   2
ATOM      2  C   UNL A   1     -29.283 -10.376   9.750  0.00  0.00    +0.081 A 
ATOM      3  N   UNL A   1     -29.836  -9.387   9.137  0.00  0.00    -0.246 NA
ATOM      4  C   UNL A   1     -29.125  -8.190   8.927  0.00  0.00    +0.099 A 
ATOM      5  C   UNL A   1     -27.755  -8.222   9.079  0.00  0.00    +0.021 A 
ATOM      6  C   UNL A   1     -27.795 -10.248   9.853  0.00  0.00    +0.017 A 
ATOM      7  C   UNL A   1     -27.097  -9.223   9.549  0.00  0.00    +0.003 A 
ENDBRANCH   1   2
BRANCH   1   8
ATOM      8  C   UNL A   1     -30.300 -11.765   8.159  0.00  0.00    -0.005 C 
ATOM      9  C   UNL A   1     -29.773 -12.549   7.393  0.00  0.00    -0.024 C 
BRANCH   9  10
ATOM     10  C   UNL A   1     -28.465 -12.955   7.685  0.00  0.00    +0.052 C 
BRANCH  10  11
ATOM     11  C   UNL A   1     -27.604 -12.801   7.133  0.00  0.00    -0.018 A 
ATOM     12  C   UNL A   1     -26.665 -13.332   6.709  0.00  0.00    -0.008 A 
ATOM     13  C   UNL A   1     -25.541 -12.960   5.834  0.00  0.00    -0.018 A 
ATOM     14  C   UNL A   1     -27.574 -11.353   6.467  0.00  0.00    -0.004 A 
ATOM     15  C   UNL A   1     -26.410 -10.759   5.894  0.00  0.00    -0.001 A 
ATOM     16  C   UNL A   1     -25.444 -11.597   5.532  0.00  0.00    -0.004 A 
BRANCH  13  17
ATOM     17  C   UNL A   1     -24.412 -13.763   5.568  0.00  0.00    +0.052 C 
BRANCH  17  18
ATOM     18  C   UNL A   1     -23.858 -14.451   6.561  0.00  0.00    -0.021 C 
ATOM     19  C   UNL A   1     -23.163 -15.652   6.179  0.00  0.00    -0.005 C 
ENDBRANCH  17  18
ENDBRANCH  13  17
ENDBRANCH  10  11
ENDBRANCH   9  10
ENDBRANCH   1   8
BRANCH   1  20
ATOM     20  N   UNL A   1     -30.627 -12.081  10.606  0.00  0.00    -0.298 N 
BRANCH  20  21
ATOM     21  C   UNL A   1     -29.979 -12.631  11.831  0.00  0.00    +0.062 C 
ATOM     22  C   UNL A   1     -30.310 -12.042  13.063  0.00  0.00    +0.017 C 
ENDBRANCH  20  21
BRANCH  20  23
ATOM     23  C   UNL A   1     -31.874 -12.020  10.563  0.00  0.00    +0.110 C 
BRANCH  23  24
ATOM     24  C   UNL A   1     -32.593 -13.045  10.604  0.00  0.00    +0.111 C 
BRANCH  24  25
ATOM     25  N   UNL A   1     -32.596 -13.954   9.558  0.00  0.00    -0.211 NA
BRANCH  25  26
ATOM     26  C   UNL A   1     -32.266 -15.303   9.633  0.00  0.00    +0.115 C 
BRANCH  26  27
ATOM     27  C   UNL A   1     -31.196 -15.698   9.230  0.00  0.00    -0.005 A 
ATOM     28  C   UNL A   1     -30.951 -16.037   7.939  0.00  0.00    -0.003 A 
ATOM     29  C   UNL A   1     -29.648 -16.521   7.429  0.00  0.00    +0.005 A 
ATOM     30  C   UNL A   1     -28.574 -16.610   8.375  0.00  0.00    +0.059 A 
ATOM     31  C   UNL A   1     -28.850 -16.179   9.692  0.00  0.00    +0.005 A 
ATOM     32  C   UNL A   1     -30.086 -15.742  10.093  0.00  0.00    -0.003 A 
BRANCH  30  33
ATOM     33  C   UNL A   1     -27.238 -16.720   8.072  0.00  0.00    +0.297 C 
ATOM     34  N   UNL A   1     -26.687 -16.933   7.009  0.00  0.00    -0.102 NA
ATOM     35  O   UNL A   1     -26.340 -16.641   9.093  0.00  0.00    -0.264 OA
ENDBRANCH  30  33
ENDBRANCH  26  27
ENDBRANCH  25  26
ENDBRANCH  24  25
ENDBRANCH  23  24
ENDBRANCH  20  23
ENDBRANCH   1  20
TORSDOF 14
ENDMDL
ENDMDL
