MODEL 392
MODEL 1
REMARK VINA RESULT:    -6.993      0.000      0.000
REMARK INTER + INTRA:         -11.227
REMARK INTER:                  -9.855
REMARK INTRA:                  -1.372
REMARK UNBOUND:                -1.372
REMARK  Name = No_392-gen_results/8p0m/2024-11-26-14-13-15/
REMARK  7 active torsions:
REMARK  status: ('A' for Active; 'I' for Inactive)
REMARK    1  A    between atoms: C_3  and  C_7
REMARK    2  A    between atoms: C_6  and  O_13
REMARK    3  A    between atoms: O_13  and  C_14
REMARK    4  A    between atoms: C_15  and  C_21
REMARK    5  A    between atoms: C_21  and  N_22
REMARK    6  A    between atoms: N_22  and  C_23
REMARK    7  A    between atoms: N_22  and  C_25
REMARK                            x       y       z     vdW  Elec       q    Type
REMARK                         _______ _______ _______ _____ _____    ______ ____
ROOT
ATOM      1  C   UNL A   1     -24.450   0.699  26.819  0.00  0.00    +0.146 A 
ATOM      2  C   UNL A   1     -23.759   0.764  28.043  0.00  0.00    +0.033 A 
ATOM      3  C   UNL A   1     -22.594   1.335  27.993  0.00  0.00    +0.004 A 
ATOM      4  C   UNL A   1     -22.289   1.938  27.105  0.00  0.00    +0.042 A 
ATOM      5  C   UNL A   1     -22.850   2.044  25.804  0.00  0.00    +0.199 A 
ATOM      6  C   UNL A   1     -24.025   1.371  25.673  0.00  0.00    +0.079 A 
ATOM      7  O   UNL A   1     -22.414   2.792  24.802  0.00  0.00    -0.286 OA
ENDROOT
BRANCH   1   8
ATOM      8  O   UNL A   1     -25.627   0.032  26.913  0.00  0.00    -0.454 OA
BRANCH   8  14
ATOM      9  C   UNL A   1     -26.716  -0.306  24.730  0.00  0.00    +0.037 A 
ATOM     10  C   UNL A   1     -27.654  -0.077  24.002  0.00  0.00    +0.003 A 
ATOM     11  C   UNL A   1     -28.666   0.832  24.310  0.00  0.00    +0.000 A 
ATOM     12  C   UNL A   1     -28.643   1.506  25.593  0.00  0.00    +0.003 A 
ATOM     13  C   UNL A   1     -27.555   1.198  26.410  0.00  0.00    +0.037 A 
ATOM     14  C   UNL A   1     -26.646   0.315  26.043  0.00  0.00    +0.145 A 
BRANCH  11  15
ATOM     15  C   UNL A   1     -29.854   1.176  23.465  0.00  0.00    +0.000 A 
ATOM     16  C   UNL A   1     -30.074   2.395  23.059  0.00  0.00    +0.000 A 
ATOM     17  C   UNL A   1     -31.245   2.762  22.435  0.00  0.00    +0.000 A 
ATOM     18  C   UNL A   1     -32.310   1.886  22.213  0.00  0.00    +0.000 A 
ATOM     19  C   UNL A   1     -30.940   0.203  23.289  0.00  0.00    +0.000 A 
ATOM     20  C   UNL A   1     -32.142   0.577  22.619  0.00  0.00    +0.000 A 
ENDBRANCH  11  15
ENDBRANCH   8  14
ENDBRANCH   1   8
BRANCH   2  21
ATOM     21  C   UNL A   1     -24.281  -0.058  29.160  0.00  0.00    +0.124 C 
BRANCH  21  22
ATOM     22  N   UNL A   1     -23.759  -0.847  29.709  0.00  0.00    -0.264 N 
BRANCH  22  23
ATOM     23  C   UNL A   1     -23.364  -0.880  31.105  0.00  0.00    +0.320 C 
ATOM     24  F   UNL A   1     -22.054  -0.847  31.148  0.00  0.00    -0.196 F 
ATOM     25 CL   UNL A   1     -24.180  -1.252  32.412  0.00  0.00    -0.055 Cl
ENDBRANCH  22  23
BRANCH  22  26
ATOM     26  C   UNL A   1     -23.352  -2.019  29.119  0.00  0.00    +0.065 C 
ATOM     27  C   UNL A   1     -24.265  -3.199  29.097  0.00  0.00    +0.017 C 
ENDBRANCH  22  26
ENDBRANCH  21  22
ENDBRANCH   2  21
TORSDOF 7
ENDMDL
ENDMDL
