REMARK  Name = No_393-gen_results/8p0m/2024-11-26-14-13-15/
REMARK  2 active torsions:
REMARK  status: ('A' for Active; 'I' for Inactive)
REMARK    1  A    between atoms: C_1  and  C_2
REMARK    2  A    between atoms: C_5  and  C_11
REMARK                            x       y       z     vdW  Elec       q    Type
REMARK                         _______ _______ _______ _____ _____    ______ ____
ROOT
ATOM      1  C   UNL A   1     -27.064  -0.119  28.608  0.00  0.00    +0.071 A 
ATOM      2  C   UNL A   1     -25.792  -0.430  29.076  0.00  0.00    +0.004 A 
ATOM      3  C   UNL A   1     -24.546   0.349  28.823  0.00  0.00    +0.004 A 
ATOM      4  C   UNL A   1     -24.659   1.420  27.888  0.00  0.00    +0.071 A 
ATOM      5  C   UNL A   1     -25.947   1.681  27.379  0.00  0.00    +0.004 A 
ATOM      6  C   UNL A   1     -27.044   0.974  27.687  0.00  0.00    +0.004 A 
ENDROOT
BRANCH   1   7
ATOM      7  C   UNL A   1     -28.016  -0.814  28.878  0.00  0.00    +0.419 C 
ATOM      8  F   UNL A   1     -28.995  -0.603  28.173  0.00  0.00    -0.166 F 
ATOM      9  F   UNL A   1     -27.771  -2.168  28.981  0.00  0.00    -0.166 F 
ATOM     10  F   UNL A   1     -28.367  -0.490  30.211  0.00  0.00    -0.166 F 
ENDBRANCH   1   7
BRANCH   4  11
ATOM     11  C   UNL A   1     -23.469   2.177  27.628  0.00  0.00    +0.419 C 
ATOM     12  F   UNL A   1     -23.662   3.309  27.189  0.00  0.00    -0.166 F 
ATOM     13  F   UNL A   1     -22.644   2.336  28.691  0.00  0.00    -0.166 F 
ATOM     14  F   UNL A   1     -22.657   1.518  26.721  0.00  0.00    -0.166 F 
ENDBRANCH   4  11
TORSDOF 2
