REMARK  Name = No_3930-gen_results/8p0m/2024-11-26-14-13-15/
REMARK  2 active torsions:
REMARK  status: ('A' for Active; 'I' for Inactive)
REMARK    1  A    between atoms: C_4  and  C_6
REMARK    2  A    between atoms: C_6  and  C_8
REMARK                            x       y       z     vdW  Elec       q    Type
REMARK                         _______ _______ _______ _____ _____    ______ ____
ROOT
ATOM      1  C   UNL A   1     -24.401  -1.097  30.096  0.00  0.00    +0.038 C 
ATOM      2  C   UNL A   1     -23.834  -2.162  29.183  0.00  0.00    +0.009 C 
ATOM      3  C   UNL A   1     -24.003  -1.560  31.653  0.00  0.00    +0.009 C 
ENDROOT
BRANCH   1   7
ATOM      4  C   UNL A   1     -28.016  -0.814  28.878  0.00  0.00    +0.011 A 
ATOM      5  C   UNL A   1     -28.469  -0.785  29.829  0.00  0.00    +0.058 A 
ATOM      6  C   UNL A   1     -26.546  -0.876  28.850  0.00  0.00    -0.003 A 
ATOM      7  C   UNL A   1     -25.804  -1.032  30.057  0.00  0.00    -0.019 A 
ATOM      8  C   UNL A   1     -27.944  -0.987  31.207  0.00  0.00    +0.011 A 
ATOM      9  C   UNL A   1     -26.561  -1.075  31.227  0.00  0.00    -0.003 A 
ATOM     10 CL   UNL A   1     -30.315  -0.693  29.868  0.00  0.00    -0.082 Cl
ENDBRANCH   1   7
BRANCH   1  11
ATOM     11  C   UNL A   1     -23.734   0.141  29.938  0.00  0.00    -0.019 A 
ATOM     12  C   UNL A   1     -22.407   0.181  29.400  0.00  0.00    -0.004 A 
ATOM     13  C   UNL A   1     -21.760   1.393  29.125  0.00  0.00    -0.000 A 
ATOM     14  C   UNL A   1     -24.296   1.397  30.372  0.00  0.00    -0.004 A 
ATOM     15  C   UNL A   1     -23.705   2.619  30.004  0.00  0.00    -0.000 A 
ATOM     16  C   UNL A   1     -22.434   2.602  29.417  0.00  0.00    -0.000 A 
ENDBRANCH   1  11
TORSDOF 2
