MODEL 3930
MODEL 1
REMARK VINA RESULT:    -7.377      0.000      0.000
REMARK INTER + INTRA:          -9.052
REMARK INTER:                  -8.239
REMARK INTRA:                  -0.813
REMARK UNBOUND:                -0.813
REMARK  Name = No_3930-gen_results/8p0m/2024-11-26-14-13-15/
REMARK  2 active torsions:
REMARK  status: ('A' for Active; 'I' for Inactive)
REMARK    1  A    between atoms: C_4  and  C_6
REMARK    2  A    between atoms: C_6  and  C_8
REMARK                            x       y       z     vdW  Elec       q    Type
REMARK                         _______ _______ _______ _____ _____    ______ ____
ROOT
ATOM      1  C   UNL A   1     -24.673  -1.114  29.808  0.00  0.00    +0.038 C 
ATOM      2  C   UNL A   1     -25.862  -0.525  30.535  0.00  0.00    +0.009 C 
ATOM      3  C   UNL A   1     -23.418  -1.137  30.913  0.00  0.00    +0.009 C 
ENDROOT
BRANCH   1   7
ATOM      4  C   UNL A   1     -22.618   1.249  27.612  0.00  0.00    +0.011 A 
ATOM      5  C   UNL A   1     -23.315   1.332  26.826  0.00  0.00    +0.058 A 
ATOM      6  C   UNL A   1     -23.020   0.430  28.767  0.00  0.00    -0.003 A 
ATOM      7  C   UNL A   1     -24.234  -0.316  28.738  0.00  0.00    -0.019 A 
ATOM      8  C   UNL A   1     -24.593   0.629  26.528  0.00  0.00    +0.011 A 
ATOM      9  C   UNL A   1     -25.000  -0.174  27.582  0.00  0.00    -0.003 A 
ATOM     10 CL   UNL A   1     -22.819   2.371  25.380  0.00  0.00    -0.082 Cl
ENDBRANCH   1   7
BRANCH   1  11
ATOM     11  C   UNL A   1     -24.869  -2.482  29.501  0.00  0.00    -0.019 A 
ATOM     12  C   UNL A   1     -23.861  -3.213  28.794  0.00  0.00    -0.004 A 
ATOM     13  C   UNL A   1     -23.971  -4.592  28.572  0.00  0.00    -0.000 A 
ATOM     14  C   UNL A   1     -26.094  -3.185  29.796  0.00  0.00    -0.004 A 
ATOM     15  C   UNL A   1     -26.171  -4.584  29.676  0.00  0.00    -0.000 A 
ATOM     16  C   UNL A   1     -25.126  -5.263  29.038  0.00  0.00    -0.000 A 
ENDBRANCH   1  11
TORSDOF 2
ENDMDL
ENDMDL
