REMARK  Name = No_3931-gen_results/8p0m/2024-11-26-14-13-15/
REMARK  2 active torsions:
REMARK  status: ('A' for Active; 'I' for Inactive)
REMARK    1  A    between atoms: C_5  and  C_11
REMARK    2  A    between atoms: C_8  and  C_14
REMARK                            x       y       z     vdW  Elec       q    Type
REMARK                         _______ _______ _______ _____ _____    ______ ____
ROOT
ATOM      1  C   UNL A   1     -28.016  -0.814  28.878  0.00  0.00    +0.004 A 
ATOM      2  C   UNL A   1     -27.064  -0.119  28.608  0.00  0.00    +0.000 A 
ATOM      3  C   UNL A   1     -25.792  -0.430  29.076  0.00  0.00    +0.000 A 
ATOM      4  C   UNL A   1     -24.546   0.349  28.823  0.00  0.00    +0.005 A 
ATOM      5  C   UNL A   1     -24.659   1.420  27.888  0.00  0.00    +0.057 A 
ATOM      6  C   UNL A   1     -25.947   1.681  27.379  0.00  0.00    +0.005 A 
ATOM      7  C   UNL A   1     -27.044   0.974  27.687  0.00  0.00    +0.000 A 
ATOM      8  C   UNL A   1     -28.024  -1.647  30.126  0.00  0.00    +0.046 A 
ATOM      9  C   UNL A   1     -26.728  -2.085  30.581  0.00  0.00    +0.004 A 
ATOM     10  C   UNL A   1     -25.591  -1.406  30.149  0.00  0.00    +0.000 A 
ENDROOT
BRANCH   8  11
ATOM     11  C   UNL A   1     -29.160  -2.471  30.535  0.00  0.00    +0.218 C 
ATOM     12  N   UNL A   1     -29.142  -3.624  30.902  0.00  0.00    -0.242 NA
ATOM     13  F   UNL A   1     -30.287  -1.877  30.471  0.00  0.00    -0.184 F 
ATOM     14  C   UNL A   1     -28.181  -4.457  30.994  0.00  0.00    +0.154 C 
ENDBRANCH   8  11
BRANCH   5  15
ATOM     15  C   UNL A   1     -23.449   2.167  27.524  0.00  0.00    +0.284 C 
ATOM     16  N   UNL A   1     -22.241   1.619  27.759  0.00  0.00    -0.084 NA
ATOM     17  O   UNL A   1     -23.578   3.391  27.209  0.00  0.00    -0.267 OA
ENDBRANCH   5  15
TORSDOF 2
