MODEL 3931
MODEL 1
REMARK VINA RESULT:    -6.700      0.000      0.000
REMARK INTER + INTRA:          -7.720
REMARK INTER:                  -7.483
REMARK INTRA:                  -0.237
REMARK UNBOUND:                -0.237
REMARK  Name = No_3931-gen_results/8p0m/2024-11-26-14-13-15/
REMARK  2 active torsions:
REMARK  status: ('A' for Active; 'I' for Inactive)
REMARK    1  A    between atoms: C_5  and  C_11
REMARK    2  A    between atoms: C_8  and  C_14
REMARK                            x       y       z     vdW  Elec       q    Type
REMARK                         _______ _______ _______ _____ _____    ______ ____
ROOT
ATOM      1  C   UNL A   1     -30.674  -9.642  29.478  0.00  0.00    +0.004 A 
ATOM      2  C   UNL A   1     -30.023 -10.234  30.307  0.00  0.00    +0.000 A 
ATOM      3  C   UNL A   1     -29.110 -11.216  29.937  0.00  0.00    +0.000 A 
ATOM      4  C   UNL A   1     -28.260 -12.021  30.860  0.00  0.00    +0.005 A 
ATOM      5  C   UNL A   1     -28.284 -11.629  32.232  0.00  0.00    +0.057 A 
ATOM      6  C   UNL A   1     -29.173 -10.591  32.576  0.00  0.00    +0.005 A 
ATOM      7  C   UNL A   1     -29.954  -9.938  31.704  0.00  0.00    +0.000 A 
ATOM      8  C   UNL A   1     -30.979 -10.275  28.152  0.00  0.00    +0.046 A 
ATOM      9  C   UNL A   1     -29.996 -11.217  27.680  0.00  0.00    +0.004 A 
ATOM     10  C   UNL A   1     -29.114 -11.793  28.591  0.00  0.00    +0.000 A 
ENDROOT
BRANCH   8  11
ATOM     11  C   UNL A   1     -31.799  -9.633  27.126  0.00  0.00    +0.218 C 
ATOM     12  N   UNL A   1     -32.871 -10.000  26.701  0.00  0.00    -0.242 NA
ATOM     13  F   UNL A   1     -31.286  -8.575  26.633  0.00  0.00    -0.184 F 
ATOM     14  C   UNL A   1     -33.565 -11.037  26.965  0.00  0.00    +0.154 C 
ENDBRANCH   8  11
BRANCH   5  15
ATOM     15  C   UNL A   1     -27.399 -12.321  33.177  0.00  0.00    +0.284 C 
ATOM     16  N   UNL A   1     -27.513 -12.063  34.494  0.00  0.00    -0.084 NA
ATOM     17  O   UNL A   1     -26.412 -12.965  32.704  0.00  0.00    -0.267 OA
ENDBRANCH   5  15
TORSDOF 2
ENDMDL
ENDMDL
