MODEL 3932
MODEL 1
REMARK VINA RESULT:    -7.252      0.000      0.000
REMARK INTER + INTRA:         -12.657
REMARK INTER:                 -10.644
REMARK INTRA:                  -2.014
REMARK UNBOUND:                -2.014
REMARK  Name = No_3932-gen_results/8p0m/2024-11-26-14-13-15/
REMARK  8 active torsions:
REMARK  status: ('A' for Active; 'I' for Inactive)
REMARK    1  A    between atoms: C_1  and  C_2
REMARK    2  A    between atoms: C_4  and  C_15
REMARK    3  A    between atoms: C_15  and  C_17
REMARK    4  A    between atoms: C_17  and  C_18
REMARK    5  A    between atoms: C_22  and  O_25
REMARK    6  A    between atoms: O_25  and  C_26
REMARK    7  A    between atoms: C_26  and  C_27
REMARK    8  A    between atoms: C_28  and  C_29
REMARK                            x       y       z     vdW  Elec       q    Type
REMARK                         _______ _______ _______ _____ _____    ______ ____
ROOT
ATOM      1  C   UNL A   1     -10.095   1.529  37.596  0.00  0.00    +0.032 C 
ENDROOT
BRANCH   1   4
ATOM      2  C   UNL A   1     -13.044   1.882  35.140  0.00  0.00    +0.071 A 
ATOM      3  C   UNL A   1     -11.663   1.891  35.637  0.00  0.00    +0.000 A 
ATOM      4  C   UNL A   1     -11.378   1.864  37.085  0.00  0.00    -0.011 A 
ATOM      5  C   UNL A   1     -12.317   2.470  37.950  0.00  0.00    +0.054 A 
ATOM      6  C   UNL A   1     -13.587   2.863  37.411  0.00  0.00    +0.010 A 
ATOM      7  C   UNL A   1     -14.507   3.603  38.196  0.00  0.00    +0.001 A 
ATOM      8  C   UNL A   1     -13.856   2.646  35.987  0.00  0.00    +0.005 A 
ATOM      9  C   UNL A   1     -15.663   4.167  37.418  0.00  0.00    +0.000 A 
ATOM     10  C   UNL A   1     -15.156   3.151  35.617  0.00  0.00    -0.000 A 
ATOM     11  C   UNL A   1     -15.997   3.922  36.192  0.00  0.00    -0.000 A 
ATOM     12 CL   UNL A   1     -11.982   2.763  39.539  0.00  0.00    -0.083 Cl
BRANCH   2  13
ATOM     13  C   UNL A   1     -13.119   2.057  34.104  0.00  0.00    +0.419 C 
ATOM     14  F   UNL A   1     -13.026   3.248  33.626  0.00  0.00    -0.166 F 
ATOM     15  F   UNL A   1     -13.895   1.349  33.194  0.00  0.00    -0.166 F 
ATOM     16  F   UNL A   1     -11.786   1.562  33.460  0.00  0.00    -0.166 F 
ENDBRANCH   2  13
ENDBRANCH   1   4
BRANCH   1  17
ATOM     17  C   UNL A   1      -9.900   0.127  37.529  0.00  0.00    +0.027 C 
ATOM     18  C   UNL A   1      -8.988  -0.420  36.590  0.00  0.00    +0.005 C 
BRANCH  17  19
ATOM     19  C   UNL A   1     -10.790  -0.646  38.213  0.00  0.00    -0.019 A 
ATOM     20  C   UNL A   1     -11.278  -1.781  37.560  0.00  0.00    -0.004 A 
ATOM     21  C   UNL A   1     -12.124  -2.672  38.232  0.00  0.00    +0.003 A 
ATOM     22  C   UNL A   1     -12.063  -2.828  39.261  0.00  0.00    +0.037 A 
ATOM     23  C   UNL A   1     -11.513  -1.788  40.249  0.00  0.00    +0.140 A 
ATOM     24  C   UNL A   1     -10.859  -0.752  39.648  0.00  0.00    +0.033 A 
BRANCH  23  25
ATOM     25  O   UNL A   1     -11.668  -1.898  41.571  0.00  0.00    -0.461 OA
BRANCH  25  26
ATOM     26  C   UNL A   1     -10.582  -1.948  42.319  0.00  0.00    +0.281 C 
BRANCH  26  27
ATOM     27  C   UNL A   1      -9.744  -3.022  42.151  0.00  0.00    -0.038 C 
ATOM     28  C   UNL A   1      -9.557  -3.867  43.043  0.00  0.00    -0.040 C 
BRANCH  28  29
ATOM     29  C   UNL A   1     -10.638  -4.251  43.805  0.00  0.00    +0.142 C 
ATOM     30  N   UNL A   1     -10.946  -4.383  44.755  0.00  0.00    -0.258 NA
ATOM     31  C   UNL A   1     -10.129  -4.607  45.751  0.00  0.00    +0.152 C 
ENDBRANCH  28  29
ENDBRANCH  26  27
ENDBRANCH  25  26
ENDBRANCH  23  25
ENDBRANCH  17  19
ENDBRANCH   1  17
TORSDOF 8
ENDMDL
ENDMDL
