REMARK  Name = No_3932-gen_results/8p0m/2024-11-26-14-13-15/
REMARK  8 active torsions:
REMARK  status: ('A' for Active; 'I' for Inactive)
REMARK    1  A    between atoms: C_1  and  C_2
REMARK    2  A    between atoms: C_4  and  C_15
REMARK    3  A    between atoms: C_15  and  C_17
REMARK    4  A    between atoms: C_17  and  C_18
REMARK    5  A    between atoms: C_22  and  O_25
REMARK    6  A    between atoms: O_25  and  C_26
REMARK    7  A    between atoms: C_26  and  C_27
REMARK    8  A    between atoms: C_28  and  C_29
REMARK                            x       y       z     vdW  Elec       q    Type
REMARK                         _______ _______ _______ _____ _____    ______ ____
ROOT
ATOM      1  C   UNL A   1     -27.829   1.649  25.920  0.00  0.00    +0.032 C 
ENDROOT
BRANCH   1   4
ATOM      2  C   UNL A   1     -28.016  -0.814  28.878  0.00  0.00    +0.071 A 
ATOM      3  C   UNL A   1     -28.182   0.428  28.113  0.00  0.00    +0.000 A 
ATOM      4  C   UNL A   1     -27.450   0.643  26.850  0.00  0.00    -0.011 A 
ATOM      5  C   UNL A   1     -26.181   0.036  26.715  0.00  0.00    +0.054 A 
ATOM      6  C   UNL A   1     -25.780  -0.933  27.694  0.00  0.00    +0.010 A 
ATOM      7  C   UNL A   1     -24.466  -1.464  27.689  0.00  0.00    +0.001 A 
ATOM      8  C   UNL A   1     -26.684  -1.239  28.806  0.00  0.00    +0.005 A 
ATOM      9  C   UNL A   1     -24.118  -2.252  28.921  0.00  0.00    +0.000 A 
ATOM     10  C   UNL A   1     -26.092  -2.190  29.715  0.00  0.00    -0.000 A 
ATOM     11  C   UNL A   1     -24.904  -2.633  29.875  0.00  0.00    -0.000 A 
ATOM     12 CL   UNL A   1     -25.147   0.431  25.491  0.00  0.00    -0.083 Cl
BRANCH   2  13
ATOM     13  C   UNL A   1     -28.469  -0.785  29.829  0.00  0.00    +0.419 C 
ATOM     14  F   UNL A   1     -29.697  -0.426  29.965  0.00  0.00    -0.166 F 
ATOM     15  F   UNL A   1     -27.853  -0.474  31.035  0.00  0.00    -0.166 F 
ATOM     16  F   UNL A   1     -28.724  -2.263  30.259  0.00  0.00    -0.166 F 
ENDBRANCH   2  13
ENDBRANCH   1   4
BRANCH   1  17
ATOM     17  C   UNL A   1     -28.579   1.073  24.865  0.00  0.00    +0.027 C 
ATOM     18  C   UNL A   1     -28.080   1.108  23.537  0.00  0.00    +0.005 C 
BRANCH  17  19
ATOM     19  C   UNL A   1     -29.866   0.728  25.148  0.00  0.00    -0.019 A 
ATOM     20  C   UNL A   1     -30.569   0.033  24.161  0.00  0.00    -0.004 A 
ATOM     21  C   UNL A   1     -31.865  -0.435  24.415  0.00  0.00    +0.003 A 
ATOM     22  C   UNL A   1     -32.177  -0.718  25.368  0.00  0.00    +0.037 A 
ATOM     23  C   UNL A   1     -31.557  -0.174  26.665  0.00  0.00    +0.140 A 
ATOM     24  C   UNL A   1     -30.387   0.502  26.472  0.00  0.00    +0.033 A 
BRANCH  23  25
ATOM     25  O   UNL A   1     -32.121  -0.351  27.862  0.00  0.00    -0.461 OA
BRANCH  25  26
ATOM     26  C   UNL A   1     -32.444   0.722  28.559  0.00  0.00    +0.281 C 
BRANCH  26  27
ATOM     27  C   UNL A   1     -33.768   0.899  28.875  0.00  0.00    -0.038 C 
ATOM     28  C   UNL A   1     -34.511  -0.048  29.185  0.00  0.00    -0.040 C 
BRANCH  28  29
ATOM     29  C   UNL A   1     -33.986  -1.048  29.973  0.00  0.00    +0.142 C 
ATOM     30  N   UNL A   1     -34.097  -2.018  30.222  0.00  0.00    -0.258 NA
ATOM     31  C   UNL A   1     -35.227  -2.666  30.104  0.00  0.00    +0.152 C 
ENDBRANCH  28  29
ENDBRANCH  26  27
ENDBRANCH  25  26
ENDBRANCH  23  25
ENDBRANCH  17  19
ENDBRANCH   1  17
TORSDOF 8
