REMARK  Name = No_3933-gen_results/8p0m/2024-11-26-14-13-15/
REMARK  1 active torsions:
REMARK  status: ('A' for Active; 'I' for Inactive)
REMARK    1  A    between atoms: N_1  and  C_7
REMARK                            x       y       z     vdW  Elec       q    Type
REMARK                         _______ _______ _______ _____ _____    ______ ____
ROOT
ATOM      1  N   UNL A   1     -28.054  -1.050  28.725  0.00  0.00    -0.251 N 
ATOM      2  C   UNL A   1     -26.966  -0.472  28.771  0.00  0.00    +0.125 C 
ATOM      3  C   UNL A   1     -26.549   0.388  27.831  0.00  0.00    -0.002 A 
ATOM      4  C   UNL A   1     -26.739   1.390  27.780  0.00  0.00    -0.002 A 
ATOM      5  C   UNL A   1     -28.214   1.776  27.792  0.00  0.00    +0.004 C 
ATOM      6  C   UNL A   1     -29.172   0.999  28.422  0.00  0.00    +0.058 C 
ATOM      7  C   UNL A   1     -29.214  -0.229  28.755  0.00  0.00    +0.253 C 
ATOM      8  C   UNL A   1     -25.439  -0.225  26.949  0.00  0.00    -0.003 A 
ATOM      9  C   UNL A   1     -24.637   0.626  26.180  0.00  0.00    -0.000 A 
ATOM     10  C   UNL A   1     -25.033   2.022  26.140  0.00  0.00    -0.000 A 
ATOM     11  C   UNL A   1     -26.159   2.482  26.840  0.00  0.00    -0.000 A 
ATOM     12  O   UNL A   1     -30.220  -0.678  29.320  0.00  0.00    -0.270 OA
ENDROOT
BRANCH   1  13
ATOM     13  C   UNL A   1     -28.179  -2.119  29.618  0.00  0.00    +0.054 A 
ATOM     14  C   UNL A   1     -29.253  -2.563  30.235  0.00  0.00    +0.015 A 
ATOM     15  C   UNL A   1     -26.971  -3.054  29.834  0.00  0.00    +0.015 A 
ATOM     16  C   UNL A   1     -29.358  -3.796  30.984  0.00  0.00    +0.001 A 
ATOM     17  C   UNL A   1     -28.265  -4.643  31.059  0.00  0.00    +0.000 A 
ATOM     18  C   UNL A   1     -27.084  -4.269  30.427  0.00  0.00    +0.001 A 
ENDBRANCH   1  13
TORSDOF 1
