MODEL 3933
MODEL 1
REMARK VINA RESULT:    -7.797      0.000      0.000
REMARK INTER + INTRA:          -8.465
REMARK INTER:                  -8.253
REMARK INTRA:                  -0.211
REMARK UNBOUND:                -0.211
REMARK  Name = No_3933-gen_results/8p0m/2024-11-26-14-13-15/
REMARK  1 active torsions:
REMARK  status: ('A' for Active; 'I' for Inactive)
REMARK    1  A    between atoms: N_1  and  C_7
REMARK                            x       y       z     vdW  Elec       q    Type
REMARK                         _______ _______ _______ _____ _____    ______ ____
ROOT
ATOM      1  N   UNL A   1     -24.615  -1.222  29.168  0.00  0.00    -0.251 N 
ATOM      2  C   UNL A   1     -24.006  -0.992  28.122  0.00  0.00    +0.125 C 
ATOM      3  C   UNL A   1     -23.842   0.241  27.621  0.00  0.00    -0.002 A 
ATOM      4  C   UNL A   1     -23.101   0.907  27.845  0.00  0.00    -0.002 A 
ATOM      5  C   UNL A   1     -22.956   1.249  29.324  0.00  0.00    +0.004 C 
ATOM      6  C   UNL A   1     -23.302   0.354  30.323  0.00  0.00    +0.058 C 
ATOM      7  C   UNL A   1     -24.079  -0.654  30.356  0.00  0.00    +0.253 C 
ATOM      8  C   UNL A   1     -24.730   0.475  26.379  0.00  0.00    -0.003 A 
ATOM      9  C   UNL A   1     -24.426   1.537  25.520  0.00  0.00    -0.000 A 
ATOM     10  C   UNL A   1     -23.390   2.451  25.966  0.00  0.00    -0.000 A 
ATOM     11  C   UNL A   1     -22.735   2.268  27.193  0.00  0.00    -0.000 A 
ATOM     12  O   UNL A   1     -24.210  -1.294  31.408  0.00  0.00    -0.270 OA
ENDROOT
BRANCH   1  13
ATOM     13  C   UNL A   1     -24.939  -2.568  29.365  0.00  0.00    +0.054 A 
ATOM     14  C   UNL A   1     -26.072  -3.097  29.775  0.00  0.00    +0.015 A 
ATOM     15  C   UNL A   1     -23.940  -3.650  28.904  0.00  0.00    +0.015 A 
ATOM     16  C   UNL A   1     -26.411  -4.503  29.761  0.00  0.00    +0.001 A 
ATOM     17  C   UNL A   1     -25.509  -5.417  29.243  0.00  0.00    +0.000 A 
ATOM     18  C   UNL A   1     -24.286  -4.955  28.770  0.00  0.00    +0.001 A 
ENDBRANCH   1  13
TORSDOF 1
ENDMDL
ENDMDL
