MODEL 3934
MODEL 1
REMARK VINA RESULT:    -5.354      0.000      0.000
REMARK INTER + INTRA:          -6.512
REMARK INTER:                  -6.293
REMARK INTRA:                  -0.219
REMARK UNBOUND:                -0.219
REMARK  Name = No_3934-gen_results/8p0m/2024-11-26-14-13-15/
REMARK  3 active torsions:
REMARK  status: ('A' for Active; 'I' for Inactive)
REMARK    1  A    between atoms: O_1  and  C_2
REMARK    2  A    between atoms: O_1  and  C_11
REMARK    3  A    between atoms: C_7  and  C_8
REMARK                            x       y       z     vdW  Elec       q    Type
REMARK                         _______ _______ _______ _____ _____    ______ ____
ROOT
ATOM      1  C   UNL A   1     -17.450 -22.039   7.975  0.00  0.00    +0.152 A 
ATOM      2  C   UNL A   1     -18.763 -21.905   8.167  0.00  0.00    +0.038 A 
ATOM      3  C   UNL A   1     -19.508 -21.047   7.378  0.00  0.00    +0.010 A 
ATOM      4  C   UNL A   1     -16.918 -21.075   6.940  0.00  0.00    +0.038 A 
ATOM      5  C   UNL A   1     -17.621 -20.168   6.206  0.00  0.00    +0.010 A 
ATOM      6  C   UNL A   1     -18.989 -20.163   6.428  0.00  0.00    +0.080 A 
ENDROOT
BRANCH   6   7
ATOM      7  C   UNL A   1     -19.776 -19.221   5.635  0.00  0.00    +0.388 C 
ATOM      8  O   UNL A   1     -19.792 -18.134   5.822  0.00  0.00    -0.241 OA
ATOM      9  O   UNL A   1     -20.421 -19.832   4.536  0.00  0.00    -0.241 OA
ENDBRANCH   6   7
BRANCH   1  10
ATOM     10  O   UNL A   1     -16.778 -22.907   8.544  0.00  0.00    -0.391 OA
BRANCH  10  11
ATOM     11  C   UNL A   1     -15.814 -22.381   9.287  0.00  0.00    +0.557 C 
ATOM     12  O   UNL A   1     -16.058 -22.188  10.433  0.00  0.00    -0.200 OA
ATOM     13  O   UNL A   1     -14.486 -22.405   9.073  0.00  0.00    -0.200 OA
ENDBRANCH  10  11
ENDBRANCH   1  10
TORSDOF 3
ENDMDL
ENDMDL
