REMARK  Name = No_3934-gen_results/8p0m/2024-11-26-14-13-15/
REMARK  3 active torsions:
REMARK  status: ('A' for Active; 'I' for Inactive)
REMARK    1  A    between atoms: O_1  and  C_2
REMARK    2  A    between atoms: O_1  and  C_11
REMARK    3  A    between atoms: C_7  and  C_8
REMARK                            x       y       z     vdW  Elec       q    Type
REMARK                         _______ _______ _______ _____ _____    ______ ____
ROOT
ATOM      1  C   UNL A   1     -27.064  -0.824  28.869  0.00  0.00    +0.152 A 
ATOM      2  C   UNL A   1     -27.025   0.188  29.736  0.00  0.00    +0.038 A 
ATOM      3  C   UNL A   1     -25.839   0.851  29.996  0.00  0.00    +0.010 A 
ATOM      4  C   UNL A   1     -25.691  -1.202  28.363  0.00  0.00    +0.038 A 
ATOM      5  C   UNL A   1     -24.500  -0.613  28.665  0.00  0.00    +0.010 A 
ATOM      6  C   UNL A   1     -24.580   0.478  29.516  0.00  0.00    +0.080 A 
ENDROOT
BRANCH   6   7
ATOM      7  C   UNL A   1     -23.323   1.150  29.837  0.00  0.00    +0.388 C 
ATOM      8  O   UNL A   1     -22.719   1.696  29.094  0.00  0.00    -0.241 OA
ATOM      9  O   UNL A   1     -23.023   1.124  31.218  0.00  0.00    -0.241 OA
ENDBRANCH   6   7
BRANCH   1  10
ATOM     10  O   UNL A   1     -28.123  -1.335  28.487  0.00  0.00    -0.391 OA
BRANCH  10  11
ATOM     11  C   UNL A   1     -29.046  -1.336  29.440  0.00  0.00    +0.557 C 
ATOM     12  O   UNL A   1     -30.178  -1.429  29.097  0.00  0.00    -0.200 OA
ATOM     13  O   UNL A   1     -28.906  -1.659  30.738  0.00  0.00    -0.200 OA
ENDBRANCH  10  11
ENDBRANCH   1  10
TORSDOF 3
