REMARK  Name = No_3935-gen_results/8p0m/2024-11-26-14-13-15/
REMARK  0 active torsions:
REMARK  status: ('A' for Active; 'I' for Inactive)
REMARK                            x       y       z     vdW  Elec       q    Type
REMARK                         _______ _______ _______ _____ _____    ______ ____
ROOT
ATOM      1  O   UNL A   1     -28.123  -1.335  28.487  0.00  0.00    -0.268 OA
ATOM      2  C   UNL A   1     -27.064  -0.824  28.869  0.00  0.00    +0.265 C 
ATOM      3  C   UNL A   1     -26.402  -0.062  28.622  0.00  0.00    +0.051 A 
ATOM      4  N   UNL A   1     -26.381  -1.799  29.962  0.00  0.00    -0.201 NA
ATOM      5  C   UNL A   1     -26.777   1.057  27.790  0.00  0.00    +0.004 A 
ATOM      6  C   UNL A   1     -25.913   1.979  27.218  0.00  0.00    +0.000 A 
ATOM      7  C   UNL A   1     -24.524   2.031  27.699  0.00  0.00    -0.000 A 
ATOM      8  C   UNL A   1     -24.106   1.048  28.558  0.00  0.00    -0.004 A 
ATOM      9  C   UNL A   1     -24.906   0.067  28.986  0.00  0.00    -0.016 A 
ATOM     10  C   UNL A   1     -25.275  -1.556  30.596  0.00  0.00    +0.120 C 
ATOM     11  C   UNL A   1     -24.395  -0.766  30.032  0.00  0.00    +0.050 C 
ENDROOT
TORSDOF 0
