REMARK  Name = No_3936-gen_results/8p0m/2024-11-26-14-13-15/
REMARK  3 active torsions:
REMARK  status: ('A' for Active; 'I' for Inactive)
REMARK    1  A    between atoms: C_2  and  C_5
REMARK    2  A    between atoms: C_10  and  C_11
REMARK    3  A    between atoms: N_15  and  C_16
REMARK                            x       y       z     vdW  Elec       q    Type
REMARK                         _______ _______ _______ _____ _____    ______ ____
ROOT
ATOM      1  C   UNL A   1     -28.016  -0.814  28.878  0.00  0.00    +0.004 A 
ATOM      2  C   UNL A   1     -28.469  -0.785  29.829  0.00  0.00    +0.054 A 
ATOM      3  C   UNL A   1     -27.136   0.236  28.535  0.00  0.00    +0.000 A 
ATOM      4  C   UNL A   1     -26.335   0.290  27.284  0.00  0.00    +0.000 A 
ATOM      5  C   UNL A   1     -28.206   0.392  30.819  0.00  0.00    +0.004 A 
ATOM      6  C   UNL A   1     -26.682   1.352  29.397  0.00  0.00    +0.000 A 
ATOM      7  C   UNL A   1     -27.395   1.345  30.600  0.00  0.00    +0.000 A 
ATOM      8  C   UNL A   1     -25.206   0.732  27.026  0.00  0.00    +0.003 A 
ATOM      9  C   UNL A   1     -24.712   1.703  28.015  0.00  0.00    +0.042 A 
ATOM     10  C   UNL A   1     -25.427   1.945  29.231  0.00  0.00    +0.003 A 
ENDROOT
BRANCH   2  11
ATOM     11  C   UNL A   1     -29.381  -1.913  30.355  0.00  0.00    +0.253 C 
ATOM     12  O   UNL A   1     -28.997  -3.084  30.475  0.00  0.00    -0.270 OA
ATOM     13  N   UNL A   1     -30.611  -1.645  30.709  0.00  0.00    -0.253 N 
ATOM     14  C   UNL A   1     -31.478  -2.534  31.425  0.00  0.00    +0.120 C 
BRANCH  13  15
ATOM     15  C   UNL A   1     -31.254  -0.371  30.650  0.00  0.00    +0.063 C 
ATOM     16  C   UNL A   1     -32.586  -0.487  30.903  0.00  0.00    -0.010 C 
ATOM     17  C   UNL A   1     -33.470   0.528  30.776  0.00  0.00    +0.032 C 
ENDBRANCH  13  15
ENDBRANCH   2  11
BRANCH   9  18
ATOM     18  C   UNL A   1     -23.415   2.403  27.828  0.00  0.00    +0.234 C 
ATOM     19  O   UNL A   1     -22.926   2.499  26.647  0.00  0.00    -0.283 OA
ENDBRANCH   9  18
TORSDOF 3
