MODEL 3936
MODEL 1
REMARK VINA RESULT:    -6.765      0.000      0.000
REMARK INTER + INTRA:          -8.239
REMARK INTER:                  -7.951
REMARK INTRA:                  -0.288
REMARK UNBOUND:                -0.288
REMARK  Name = No_3936-gen_results/8p0m/2024-11-26-14-13-15/
REMARK  3 active torsions:
REMARK  status: ('A' for Active; 'I' for Inactive)
REMARK    1  A    between atoms: C_2  and  C_5
REMARK    2  A    between atoms: C_10  and  C_11
REMARK    3  A    between atoms: N_15  and  C_16
REMARK                            x       y       z     vdW  Elec       q    Type
REMARK                         _______ _______ _______ _____ _____    ______ ____
ROOT
ATOM      1  C   UNL A   1     -23.229  -1.893  29.004  0.00  0.00    +0.004 A 
ATOM      2  C   UNL A   1     -23.141  -0.873  29.254  0.00  0.00    +0.054 A 
ATOM      3  C   UNL A   1     -24.267  -2.633  29.611  0.00  0.00    +0.000 A 
ATOM      4  C   UNL A   1     -24.595  -4.046  29.287  0.00  0.00    +0.000 A 
ATOM      5  C   UNL A   1     -24.102  -0.203  30.285  0.00  0.00    +0.004 A 
ATOM      6  C   UNL A   1     -25.334  -2.127  30.505  0.00  0.00    +0.000 A 
ATOM      7  C   UNL A   1     -25.084  -0.791  30.836  0.00  0.00    +0.000 A 
ATOM      8  C   UNL A   1     -25.664  -4.673  29.242  0.00  0.00    +0.003 A 
ATOM      9  C   UNL A   1     -26.755  -4.033  29.994  0.00  0.00    +0.042 A 
ATOM     10  C   UNL A   1     -26.596  -2.726  30.555  0.00  0.00    +0.003 A 
ENDROOT
BRANCH   2  11
ATOM     11  C   UNL A   1     -22.105   0.063  28.597  0.00  0.00    +0.253 C 
ATOM     12  O   UNL A   1     -20.885  -0.059  28.773  0.00  0.00    -0.270 OA
ATOM     13  N   UNL A   1     -22.505   1.023  27.804  0.00  0.00    -0.253 N 
ATOM     14  C   UNL A   1     -21.653   1.803  26.955  0.00  0.00    +0.120 C 
BRANCH  13  15
ATOM     15  C   UNL A   1     -23.856   1.340  27.468  0.00  0.00    +0.063 C 
ATOM     16  C   UNL A   1     -24.165   0.889  26.222  0.00  0.00    -0.010 C 
ATOM     17  C   UNL A   1     -25.323   1.168  25.583  0.00  0.00    +0.032 C 
ENDBRANCH  13  15
ENDBRANCH   2  11
BRANCH   9  18
ATOM     18  C   UNL A   1     -28.086  -4.681  30.125  0.00  0.00    +0.234 C 
ATOM     19  O   UNL A   1     -29.141  -3.970  29.968  0.00  0.00    -0.283 OA
ENDBRANCH   9  18
TORSDOF 3
ENDMDL
ENDMDL
