MODEL 3937
MODEL 1
REMARK VINA RESULT:    -5.333      0.000      0.000
REMARK INTER + INTRA:          -6.250
REMARK INTER:                  -5.956
REMARK INTRA:                  -0.294
REMARK UNBOUND:                -0.294
REMARK  Name = No_3937-gen_results/8p0m/2024-11-26-14-13-15/
REMARK  2 active torsions:
REMARK  status: ('A' for Active; 'I' for Inactive)
REMARK    1  A    between atoms: C_3  and  C_4
REMARK    2  A    between atoms: C_4  and  C_8
REMARK                            x       y       z     vdW  Elec       q    Type
REMARK                         _______ _______ _______ _____ _____    ______ ____
ROOT
ATOM      1  C   UNL A   1     -23.859  -3.686  28.661  0.00  0.00    -0.004 A 
ATOM      2  C   UNL A   1     -24.204  -4.682  28.646  0.00  0.00    -0.000 A 
ATOM      3  C   UNL A   1     -24.796  -2.671  29.166  0.00  0.00    -0.018 A 
ATOM      4  C   UNL A   1     -25.409  -5.313  29.236  0.00  0.00    -0.000 A 
ATOM      5  C   UNL A   1     -26.344  -4.418  29.742  0.00  0.00    -0.000 A 
ATOM      6  C   UNL A   1     -26.080  -3.065  29.758  0.00  0.00    -0.004 A 
ENDROOT
BRANCH   3   7
ATOM      7  C   UNL A   1     -24.621  -1.226  29.152  0.00  0.00    +0.052 C 
BRANCH   7   8
ATOM      8  C   UNL A   1     -23.463  -0.673  28.594  0.00  0.00    -0.026 C 
ATOM      9  C   UNL A   1     -22.396  -0.392  29.309  0.00  0.00    -0.030 C 
ATOM     10  C   UNL A   1     -21.199  -0.062  28.673  0.00  0.00    +0.030 C 
ENDBRANCH   7   8
ENDBRANCH   3   7
TORSDOF 2
ENDMDL
ENDMDL
