MODEL 3938
MODEL 1
REMARK VINA RESULT:    -5.910      0.000      0.000
REMARK INTER + INTRA:          -8.067
REMARK INTER:                  -7.637
REMARK INTRA:                  -0.430
REMARK UNBOUND:                -0.430
REMARK  Name = No_3938-gen_results/8p0m/2024-11-26-14-13-15/
REMARK  5 active torsions:
REMARK  status: ('A' for Active; 'I' for Inactive)
REMARK    1  A    between atoms: C_1  and  C_8
REMARK    2  A    between atoms: C_5  and  C_10
REMARK    3  A    between atoms: C_8  and  N_9
REMARK    4  A    between atoms: N_9  and  C_15
REMARK    5  A    between atoms: C_16  and  C_17
REMARK                            x       y       z     vdW  Elec       q    Type
REMARK                         _______ _______ _______ _____ _____    ______ ____
ROOT
ATOM      1  C   UNL A   1      -8.591  -0.155  34.678  0.00  0.00    -0.011 C 
ATOM      2  C   UNL A   1      -7.415  -0.418  34.781  0.00  0.00    -0.047 C 
ATOM      3  C   UNL A   1      -6.448   0.375  35.143  0.00  0.00    +0.022 C 
ATOM      4  C   UNL A   1      -5.014   0.012  35.263  0.00  0.00    +0.017 C 
ATOM      5  C   UNL A   1      -4.682  -1.347  34.999  0.00  0.00    +0.112 C 
ATOM      6  C   UNL A   1      -5.706  -2.200  34.675  0.00  0.00    +0.017 C 
ATOM      7  C   UNL A   1      -7.006  -1.831  34.591  0.00  0.00    +0.022 C 
ENDROOT
BRANCH   5   8
ATOM      8  C   UNL A   1      -3.318  -1.823  35.105  0.00  0.00    +0.346 C 
ATOM      9  N   UNL A   1      -2.590  -2.186  35.860  0.00  0.00    -0.054 NA
ATOM     10  N   UNL A   1      -2.610  -1.754  33.782  0.00  0.00    -0.035 NA
ATOM     11  C   UNL A   1      -1.269  -1.920  34.087  0.00  0.00    +0.267 C 
ATOM     12  C   UNL A   1      -1.267  -1.986  35.462  0.00  0.00    +0.339 C 
ENDBRANCH   5   8
BRANCH   1  13
ATOM     13  C   UNL A   1      -8.900   1.223  34.525  0.00  0.00    +0.138 C 
BRANCH  13  14
ATOM     14  N   UNL A   1     -10.090   1.587  34.188  0.00  0.00    -0.232 NA
BRANCH  14  15
ATOM     15  C   UNL A   1     -11.074   1.461  34.972  0.00  0.00    +0.081 C 
ATOM     16  C   UNL A   1     -12.422   1.675  34.492  0.00  0.00    +0.060 C 
BRANCH  16  17
ATOM     17  C   UNL A   1     -12.581   1.390  33.229  0.00  0.00    +0.333 C 
ATOM     18  O   UNL A   1     -13.623   1.911  32.562  0.00  0.00    -0.179 OA
ATOM     19  F   UNL A   1     -13.398   0.712  33.298  0.00  0.00    -0.196 F 
ENDBRANCH  16  17
ENDBRANCH  14  15
ENDBRANCH  13  14
ENDBRANCH   1  13
TORSDOF 5
ENDMDL
ENDMDL
