REMARK  Name = No_3938-gen_results/8p0m/2024-11-26-14-13-15/
REMARK  5 active torsions:
REMARK  status: ('A' for Active; 'I' for Inactive)
REMARK    1  A    between atoms: C_1  and  C_8
REMARK    2  A    between atoms: C_5  and  C_10
REMARK    3  A    between atoms: C_8  and  N_9
REMARK    4  A    between atoms: N_9  and  C_15
REMARK    5  A    between atoms: C_16  and  C_17
REMARK                            x       y       z     vdW  Elec       q    Type
REMARK                         _______ _______ _______ _____ _____    ______ ____
ROOT
ATOM      1  C   UNL A   1     -28.016  -0.814  28.878  0.00  0.00    -0.011 C 
ATOM      2  C   UNL A   1     -27.064  -0.119  28.608  0.00  0.00    -0.047 C 
ATOM      3  C   UNL A   1     -26.876   1.133  28.913  0.00  0.00    +0.022 C 
ATOM      4  C   UNL A   1     -25.688   1.952  28.567  0.00  0.00    +0.017 C 
ATOM      5  C   UNL A   1     -24.639   1.283  27.875  0.00  0.00    +0.112 C 
ATOM      6  C   UNL A   1     -24.807  -0.051  27.604  0.00  0.00    +0.017 C 
ATOM      7  C   UNL A   1     -25.902  -0.767  27.951  0.00  0.00    +0.022 C 
ENDROOT
BRANCH   5   8
ATOM      8  C   UNL A   1     -23.421   1.974  27.504  0.00  0.00    +0.346 C 
ATOM      9  N   UNL A   1     -23.032   2.686  26.747  0.00  0.00    -0.054 NA
ATOM     10  N   UNL A   1     -22.270   1.560  28.377  0.00  0.00    -0.035 NA
ATOM     11  C   UNL A   1     -21.142   2.030  27.725  0.00  0.00    +0.267 C 
ATOM     12  C   UNL A   1     -21.653   2.570  26.566  0.00  0.00    +0.339 C 
ENDBRANCH   5   8
BRANCH   1  13
ATOM     13  C   UNL A   1     -29.216  -0.118  29.181  0.00  0.00    +0.138 C 
BRANCH  13  14
ATOM     14  N   UNL A   1     -30.161  -0.708  29.831  0.00  0.00    -0.232 NA
BRANCH  14  15
ATOM     15  C   UNL A   1     -29.923  -1.614  30.680  0.00  0.00    +0.081 C 
ATOM     16  C   UNL A   1     -28.789  -2.495  30.509  0.00  0.00    +0.060 C 
BRANCH  16  17
ATOM     17  C   UNL A   1     -27.789  -1.947  29.875  0.00  0.00    +0.333 C 
ATOM     18  O   UNL A   1     -26.589  -2.548  29.892  0.00  0.00    -0.179 OA
ATOM     19  F   UNL A   1     -27.235  -1.569  30.701  0.00  0.00    -0.196 F 
ENDBRANCH  16  17
ENDBRANCH  14  15
ENDBRANCH  13  14
ENDBRANCH   1  13
TORSDOF 5
