REMARK  Name = No_3939-gen_results/8p0m/2024-11-26-14-13-15/
REMARK  7 active torsions:
REMARK  status: ('A' for Active; 'I' for Inactive)
REMARK    1  A    between atoms: C_2  and  C_3
REMARK    2  A    between atoms: N_4  and  C_10
REMARK    3  A    between atoms: N_4  and  C_11
REMARK    4  A    between atoms: C_5  and  C_17
REMARK    5  A    between atoms: C_21  and  P_23
REMARK    6  A    between atoms: C_27  and  C_28
REMARK    7  A    between atoms: C_29  and  C_30
REMARK                            x       y       z     vdW  Elec       q    Type
REMARK                         _______ _______ _______ _____ _____    ______ ____
ROOT
ATOM      1  O   UNL A   1     -28.123  -1.335  28.487  0.00  0.00    -0.269 OA
ATOM      2  C   UNL A   1     -27.481  -0.404  28.709  0.00  0.00    +0.257 C 
ATOM      3  N   UNL A   1     -27.666   0.447  29.899  0.00  0.00    -0.233 N 
ENDROOT
BRANCH   2   4
ATOM      4  C   UNL A   1     -26.380  -0.087  27.939  0.00  0.00    +0.054 A 
ATOM      5  C   UNL A   1     -26.409   0.857  26.880  0.00  0.00    +0.004 A 
ATOM      6  C   UNL A   1     -25.082  -0.697  28.170  0.00  0.00    +0.004 A 
ATOM      7  C   UNL A   1     -25.284   1.049  26.047  0.00  0.00    +0.000 A 
ATOM      8  C   UNL A   1     -23.916  -0.344  27.444  0.00  0.00    +0.000 A 
ATOM      9  C   UNL A   1     -24.062   0.529  26.371  0.00  0.00    +0.000 A 
BRANCH   5  10
ATOM     10  C   UNL A   1     -27.659   1.519  26.505  0.00  0.00    +0.000 A 
ATOM     11  C   UNL A   1     -27.860   2.188  25.499  0.00  0.00    +0.000 A 
ATOM     12  C   UNL A   1     -28.700   2.240  24.824  0.00  0.00    +0.000 A 
ATOM     13  C   UNL A   1     -29.886   1.622  24.960  0.00  0.00    +0.003 A 
ATOM     14  C   UNL A   1     -30.005   0.914  26.178  0.00  0.00    +0.029 A 
ATOM     15  C   UNL A   1     -28.820   0.735  26.955  0.00  0.00    +0.003 A 
BRANCH  14  16
ATOM     16  P   UNL A   1     -31.562   0.147  26.612  0.00  0.00    +0.140 P 
ATOM     17  O   UNL A   1     -32.547   0.938  26.090  0.00  0.00    -0.456 OA
ATOM     18  O   UNL A   1     -31.473  -1.256  26.056  0.00  0.00    -0.354 OA
ATOM     19  O   UNL A   1     -31.463   0.021  28.152  0.00  0.00    -0.354 OA
ENDBRANCH  14  16
ENDBRANCH   5  10
ENDBRANCH   2   4
BRANCH   3  20
ATOM     20  C   UNL A   1     -26.845   1.525  30.221  0.00  0.00    +0.058 A 
ATOM     21  C   UNL A   1     -27.247   2.621  30.257  0.00  0.00    +0.015 A 
ATOM     22  C   UNL A   1     -26.329   3.716  30.461  0.00  0.00    +0.001 A 
ATOM     23  C   UNL A   1     -24.944   3.391  30.511  0.00  0.00    +0.000 A 
ATOM     24  C   UNL A   1     -24.521   2.108  30.401  0.00  0.00    +0.001 A 
ATOM     25  C   UNL A   1     -25.473   1.110  30.242  0.00  0.00    +0.015 A 
ENDBRANCH   3  20
BRANCH   3  26
ATOM     26  C   UNL A   1     -28.778   0.103  30.787  0.00  0.00    +0.072 C 
ATOM     27  C   UNL A   1     -29.418   1.143  31.335  0.00  0.00    +0.017 C 
BRANCH  27  28
ATOM     28  C   UNL A   1     -30.121   1.202  32.149  0.00  0.00    +0.001 C 
ATOM     29  C   UNL A   1     -30.709   2.383  32.723  0.00  0.00    -0.000 C 
BRANCH  29  30
ATOM     30  C   UNL A   1     -31.625   2.460  33.809  0.00  0.00    -0.005 C 
ATOM     31  C   UNL A   1     -32.074   1.217  34.267  0.00  0.00    -0.026 C 
ATOM     32  C   UNL A   1     -31.629   0.050  33.747  0.00  0.00    +0.031 C 
ENDBRANCH  29  30
ENDBRANCH  27  28
ENDBRANCH   3  26
TORSDOF 7
