MODEL 393
MODEL 1
REMARK VINA RESULT:    -5.892      0.000      0.000
REMARK INTER + INTRA:          -6.961
REMARK INTER:                  -6.581
REMARK INTRA:                  -0.380
REMARK UNBOUND:                -0.380
REMARK  Name = No_393-gen_results/8p0m/2024-11-26-14-13-15/
REMARK  2 active torsions:
REMARK  status: ('A' for Active; 'I' for Inactive)
REMARK    1  A    between atoms: C_1  and  C_2
REMARK    2  A    between atoms: C_5  and  C_11
REMARK                            x       y       z     vdW  Elec       q    Type
REMARK                         _______ _______ _______ _____ _____    ______ ____
ROOT
ATOM      1  C   UNL A   1     -22.928   0.899  27.691  0.00  0.00    +0.071 A 
ATOM      2  C   UNL A   1     -24.148   0.342  27.323  0.00  0.00    +0.004 A 
ATOM      3  C   UNL A   1     -24.765  -0.887  27.901  0.00  0.00    +0.004 A 
ATOM      4  C   UNL A   1     -23.946  -1.631  28.801  0.00  0.00    +0.071 A 
ATOM      5  C   UNL A   1     -22.689  -1.078  29.115  0.00  0.00    +0.004 A 
ATOM      6  C   UNL A   1     -22.209   0.063  28.600  0.00  0.00    +0.004 A 
ENDROOT
BRANCH   1   7
ATOM      7  C   UNL A   1     -22.519   1.908  27.165  0.00  0.00    +0.419 C 
ATOM      8  F   UNL A   1     -21.416   2.259  27.566  0.00  0.00    -0.166 F 
ATOM      9  F   UNL A   1     -22.569   1.939  25.786  0.00  0.00    -0.166 F 
ATOM     10  F   UNL A   1     -23.444   2.925  27.502  0.00  0.00    -0.166 F 
ENDBRANCH   1   7
BRANCH   4  11
ATOM     11  C   UNL A   1     -24.521  -2.819  29.363  0.00  0.00    +0.419 C 
ATOM     12  F   UNL A   1     -24.744  -2.764  30.571  0.00  0.00    -0.166 F 
ATOM     13  F   UNL A   1     -25.686  -3.218  28.797  0.00  0.00    -0.166 F 
ATOM     14  F   UNL A   1     -23.699  -3.911  29.146  0.00  0.00    -0.166 F 
ENDBRANCH   4  11
TORSDOF 2
ENDMDL
ENDMDL
