REMARK  Name = No_394-gen_results/8p0m/2024-11-26-14-13-15/
REMARK  6 active torsions:
REMARK  status: ('A' for Active; 'I' for Inactive)
REMARK    1  A    between atoms: C_2  and  C_3
REMARK    2  A    between atoms: N_4  and  C_6
REMARK    3  A    between atoms: C_9  and  C_16
REMARK    4  A    between atoms: C_16  and  C_17
REMARK    5  A    between atoms: C_16  and  C_23
REMARK    6  A    between atoms: C_24  and  C_25
REMARK                            x       y       z     vdW  Elec       q    Type
REMARK                         _______ _______ _______ _____ _____    ______ ____
ROOT
ATOM      1  C   UNL A   1     -27.666   0.113  30.035  0.00  0.00    +0.055 A 
ATOM      2  C   UNL A   1     -27.840   1.229  30.642  0.00  0.00    +0.001 A 
ATOM      3  C   UNL A   1     -26.344  -0.629  30.328  0.00  0.00    +0.005 A 
ATOM      4  C   UNL A   1     -25.426  -0.085  31.283  0.00  0.00    -0.000 A 
ATOM      5  C   UNL A   1     -26.876   1.782  31.637  0.00  0.00    -0.014 A 
ATOM      6  C   UNL A   1     -25.725   1.132  31.923  0.00  0.00    -0.004 A 
ENDROOT
BRANCH   1   8
ATOM      7  O   UNL A   1     -28.123  -1.335  28.487  0.00  0.00    -0.268 OA
ATOM      8  C   UNL A   1     -28.521  -0.436  29.078  0.00  0.00    +0.269 C 
ATOM      9  N   UNL A   1     -29.742   0.110  28.887  0.00  0.00    -0.175 NA
BRANCH   9  10
ATOM     10  C   UNL A   1     -30.606  -0.335  28.036  0.00  0.00    +0.074 A 
ATOM     11  C   UNL A   1     -31.656  -0.600  27.955  0.00  0.00    +0.017 A 
ATOM     12  C   UNL A   1     -32.469  -1.059  26.800  0.00  0.00    +0.001 A 
ATOM     13  C   UNL A   1     -31.762  -1.087  25.566  0.00  0.00    +0.000 A 
ATOM     14  C   UNL A   1     -30.415  -0.678  25.552  0.00  0.00    +0.001 A 
ATOM     15  C   UNL A   1     -29.799  -0.209  26.624  0.00  0.00    +0.017 A 
ENDBRANCH   9  10
ENDBRANCH   1   8
BRANCH   5  16
ATOM     16  C   UNL A   1     -27.160   3.100  32.280  0.00  0.00    +0.066 C 
BRANCH  16  17
ATOM     17  C   UNL A   1     -27.000   4.159  31.558  0.00  0.00    -0.014 A 
ATOM     18  C   UNL A   1     -26.780   4.377  30.411  0.00  0.00    -0.004 A 
ATOM     19  C   UNL A   1     -26.590   5.654  29.714  0.00  0.00    -0.000 A 
ATOM     20  C   UNL A   1     -26.446   6.759  30.519  0.00  0.00    -0.000 A 
ATOM     21  C   UNL A   1     -26.570   6.663  31.866  0.00  0.00    -0.000 A 
ATOM     22  C   UNL A   1     -26.792   5.450  32.483  0.00  0.00    -0.004 A 
ENDBRANCH  16  17
BRANCH  16  23
ATOM     23  C   UNL A   1     -27.739   2.938  33.632  0.00  0.00    -0.018 C 
ATOM     24  C   UNL A   1     -28.477   3.157  34.391  0.00  0.00    -0.004 C 
BRANCH  24  25
ATOM     25  C   UNL A   1     -28.439   2.879  35.753  0.00  0.00    -0.000 C 
ATOM     26  C   UNL A   1     -27.435   2.040  36.183  0.00  0.00    -0.000 C 
ENDBRANCH  24  25
ENDBRANCH  16  23
ENDBRANCH   5  16
TORSDOF 6
