REMARK  Name = No_3940-gen_results/8p0m/2024-11-26-14-13-15/
REMARK  3 active torsions:
REMARK  status: ('A' for Active; 'I' for Inactive)
REMARK    1  A    between atoms: C_4  and  C_11
REMARK    2  A    between atoms: C_6  and  C_23
REMARK    3  A    between atoms: C_14  and  C_15
REMARK                            x       y       z     vdW  Elec       q    Type
REMARK                         _______ _______ _______ _____ _____    ______ ____
ROOT
ATOM      1  C   UNL A   1     -28.016  -0.814  28.878  0.00  0.00    +0.007 A 
ATOM      2  C   UNL A   1     -27.064  -0.119  28.608  0.00  0.00    +0.000 A 
ATOM      3  C   UNL A   1     -25.792  -0.430  29.076  0.00  0.00    +0.004 A 
ATOM      4  C   UNL A   1     -24.546   0.349  28.823  0.00  0.00    +0.054 A 
ATOM      5  C   UNL A   1     -23.241   0.022  29.332  0.00  0.00    +0.004 A 
ATOM      6  C   UNL A   1     -27.882  -1.899  29.863  0.00  0.00    +0.080 A 
ATOM      7  C   UNL A   1     -26.671  -2.327  30.321  0.00  0.00    +0.007 A 
ATOM      8  C   UNL A   1     -25.543  -1.585  29.932  0.00  0.00    +0.000 A 
ATOM      9  C   UNL A   1     -23.155  -1.282  29.884  0.00  0.00    +0.000 A 
ATOM     10  C   UNL A   1     -24.242  -1.986  30.314  0.00  0.00    +0.000 A 
ENDROOT
BRANCH   4  11
ATOM     11  C   UNL A   1     -24.591   1.592  27.997  0.00  0.00    +0.255 C 
ATOM     12  N   UNL A   1     -24.962   1.501  26.822  0.00  0.00    -0.221 N 
ATOM     13  C   UNL A   1     -24.264   1.192  25.840  0.00  0.00    +0.123 C 
ATOM     14  C   UNL A   1     -26.260   2.039  26.420  0.00  0.00    +0.255 C 
ATOM     15  O   UNL A   1     -24.733   2.651  28.787  0.00  0.00    -0.270 OA
ATOM     16  O   UNL A   1     -25.962   3.390  26.047  0.00  0.00    -0.270 OA
BRANCH  14  17
ATOM     17  C   UNL A   1     -27.177   1.520  26.169  0.00  0.00    +0.054 A 
ATOM     18  C   UNL A   1     -27.358   0.537  25.369  0.00  0.00    +0.004 A 
ATOM     19  C   UNL A   1     -28.574  -0.150  25.057  0.00  0.00    +0.000 A 
ATOM     20  C   UNL A   1     -29.728   0.385  25.540  0.00  0.00    +0.000 A 
ATOM     21  C   UNL A   1     -29.756   1.510  26.297  0.00  0.00    +0.000 A 
ATOM     22  C   UNL A   1     -28.539   2.134  26.653  0.00  0.00    +0.004 A 
ENDBRANCH  14  17
ENDBRANCH   4  11
BRANCH   6  23
ATOM     23  C   UNL A   1     -29.142  -2.681  30.224  0.00  0.00    +0.388 C 
ATOM     24  O   UNL A   1     -29.070  -3.904  30.201  0.00  0.00    -0.241 OA
ATOM     25  O   UNL A   1     -30.174  -2.119  30.554  0.00  0.00    -0.241 OA
ENDBRANCH   6  23
TORSDOF 3
