MODEL 3940
MODEL 1
REMARK VINA RESULT:    -7.949      0.000      0.000
REMARK INTER + INTRA:         -10.017
REMARK INTER:                  -9.343
REMARK INTRA:                  -0.674
REMARK UNBOUND:                -0.674
REMARK  Name = No_3940-gen_results/8p0m/2024-11-26-14-13-15/
REMARK  3 active torsions:
REMARK  status: ('A' for Active; 'I' for Inactive)
REMARK    1  A    between atoms: C_4  and  C_11
REMARK    2  A    between atoms: C_6  and  C_23
REMARK    3  A    between atoms: C_14  and  C_15
REMARK                            x       y       z     vdW  Elec       q    Type
REMARK                         _______ _______ _______ _____ _____    ______ ____
ROOT
ATOM      1  C   UNL A   1     -12.255   1.732  35.443  0.00  0.00    +0.007 A 
ATOM      2  C   UNL A   1     -12.244   1.988  36.624  0.00  0.00    +0.000 A 
ATOM      3  C   UNL A   1     -13.321   2.622  37.233  0.00  0.00    +0.004 A 
ATOM      4  C   UNL A   1     -13.423   2.999  38.672  0.00  0.00    +0.054 A 
ATOM      5  C   UNL A   1     -14.539   3.672  39.280  0.00  0.00    +0.004 A 
ATOM      6  C   UNL A   1     -13.331   2.255  34.585  0.00  0.00    +0.080 A 
ATOM      7  C   UNL A   1     -14.462   2.822  35.093  0.00  0.00    +0.007 A 
ATOM      8  C   UNL A   1     -14.502   3.033  36.481  0.00  0.00    +0.000 A 
ATOM      9  C   UNL A   1     -15.695   3.715  38.458  0.00  0.00    +0.000 A 
ATOM     10  C   UNL A   1     -15.656   3.565  37.102  0.00  0.00    +0.000 A 
ENDROOT
BRANCH   4  11
ATOM     11  C   UNL A   1     -12.300   2.699  39.609  0.00  0.00    +0.255 C 
ATOM     12  N   UNL A   1     -12.318   1.624  40.218  0.00  0.00    -0.221 N 
ATOM     13  C   UNL A   1     -12.917   1.376  41.279  0.00  0.00    +0.123 C 
ATOM     14  C   UNL A   1     -11.366   0.570  39.871  0.00  0.00    +0.255 C 
ATOM     15  O   UNL A   1     -11.219   3.380  39.247  0.00  0.00    -0.270 OA
ATOM     16  O   UNL A   1     -10.242   0.841  40.717  0.00  0.00    -0.270 OA
BRANCH  14  17
ATOM     17  C   UNL A   1     -11.527  -0.362  39.342  0.00  0.00    +0.054 A 
ATOM     18  C   UNL A   1     -12.157  -1.410  39.723  0.00  0.00    +0.004 A 
ATOM     19  C   UNL A   1     -12.375  -2.630  39.008  0.00  0.00    +0.000 A 
ATOM     20  C   UNL A   1     -11.711  -2.785  37.831  0.00  0.00    +0.000 A 
ATOM     21  C   UNL A   1     -10.883  -1.838  37.324  0.00  0.00    +0.000 A 
ATOM     22  C   UNL A   1     -10.735  -0.611  38.010  0.00  0.00    +0.004 A 
ENDBRANCH  14  17
ENDBRANCH   4  11
BRANCH   6  23
ATOM     23  C   UNL A   1     -13.238   1.970  33.088  0.00  0.00    +0.388 C 
ATOM     24  O   UNL A   1     -13.980   2.605  32.349  0.00  0.00    -0.241 OA
ATOM     25  O   UNL A   1     -12.439   1.166  32.636  0.00  0.00    -0.241 OA
ENDBRANCH   6  23
TORSDOF 3
ENDMDL
ENDMDL
