REMARK  Name = No_3941-gen_results/8p0m/2024-11-26-14-13-15/
REMARK  2 active torsions:
REMARK  status: ('A' for Active; 'I' for Inactive)
REMARK    1  A    between atoms: C_1  and  C_3
REMARK    2  A    between atoms: N_5  and  C_6
REMARK                            x       y       z     vdW  Elec       q    Type
REMARK                         _______ _______ _______ _____ _____    ______ ____
ROOT
ATOM      1  C   UNL A   1     -28.182   0.428  28.113  0.00  0.00    +0.269 C 
ATOM      2  O   UNL A   1     -29.184   0.417  27.295  0.00  0.00    -0.268 OA
ATOM      3  N   UNL A   1     -27.146   1.347  27.910  0.00  0.00    -0.176 NA
ENDROOT
BRANCH   3   4
ATOM      4  C   UNL A   1     -25.989   1.355  28.704  0.00  0.00    +0.070 A 
ATOM      5  C   UNL A   1     -24.969   2.217  28.178  0.00  0.00    -0.006 A 
ATOM      6  C   UNL A   1     -23.771   2.307  28.866  0.00  0.00    -0.003 A 
ATOM      7  C   UNL A   1     -23.528   1.457  29.977  0.00  0.00    -0.000 A 
ATOM      8  C   UNL A   1     -24.515   0.644  30.452  0.00  0.00    +0.001 A 
ATOM      9  C   UNL A   1     -25.708   0.558  29.768  0.00  0.00    +0.016 A 
ATOM     10  C   UNL A   1     -25.140   3.074  27.018  0.00  0.00    +0.032 C 
ENDBRANCH   3   4
BRANCH   1  11
ATOM     11  C   UNL A   1     -28.016  -0.814  28.878  0.00  0.00    +0.055 A 
ATOM     12  C   UNL A   1     -28.469  -0.785  29.829  0.00  0.00    +0.005 A 
ATOM     13  C   UNL A   1     -28.307  -1.950  30.847  0.00  0.00    +0.000 A 
ATOM     14  C   UNL A   1     -27.543  -3.040  30.356  0.00  0.00    +0.000 A 
ATOM     15  C   UNL A   1     -26.622  -2.830  29.367  0.00  0.00    +0.000 A 
ATOM     16  C   UNL A   1     -26.826  -1.640  28.591  0.00  0.00    +0.005 A 
ENDBRANCH   1  11
TORSDOF 2
