MODEL 3941
MODEL 1
REMARK VINA RESULT:    -6.285      0.000      0.000
REMARK INTER + INTRA:          -7.668
REMARK INTER:                  -7.020
REMARK INTRA:                  -0.648
REMARK UNBOUND:                -0.648
REMARK  Name = No_3941-gen_results/8p0m/2024-11-26-14-13-15/
REMARK  2 active torsions:
REMARK  status: ('A' for Active; 'I' for Inactive)
REMARK    1  A    between atoms: C_1  and  C_3
REMARK    2  A    between atoms: N_5  and  C_6
REMARK                            x       y       z     vdW  Elec       q    Type
REMARK                         _______ _______ _______ _____ _____    ______ ____
ROOT
ATOM      1  C   UNL A   1     -24.821  -1.087  28.966  0.00  0.00    +0.269 C 
ATOM      2  O   UNL A   1     -24.829  -0.703  27.731  0.00  0.00    -0.268 OA
ATOM      3  N   UNL A   1     -24.379  -0.198  29.953  0.00  0.00    -0.176 NA
ENDROOT
BRANCH   3   4
ATOM      4  C   UNL A   1     -24.260  -0.577  31.299  0.00  0.00    +0.070 A 
ATOM      5  C   UNL A   1     -25.361  -0.118  32.098  0.00  0.00    -0.006 A 
ATOM      6  C   UNL A   1     -25.358  -0.419  33.449  0.00  0.00    -0.003 A 
ATOM      7  C   UNL A   1     -24.223  -1.042  34.032  0.00  0.00    -0.000 A 
ATOM      8  C   UNL A   1     -23.189  -1.464  33.249  0.00  0.00    +0.001 A 
ATOM      9  C   UNL A   1     -23.195  -1.166  31.904  0.00  0.00    +0.016 A 
ATOM     10  C   UNL A   1     -26.526   0.567  31.567  0.00  0.00    +0.032 C 
ENDBRANCH   3   4
BRANCH   1  11
ATOM     11  C   UNL A   1     -24.832  -2.544  29.143  0.00  0.00    +0.055 A 
ATOM     12  C   UNL A   1     -24.112  -3.044  28.559  0.00  0.00    +0.005 A 
ATOM     13  C   UNL A   1     -24.039  -4.597  28.505  0.00  0.00    +0.000 A 
ATOM     14  C   UNL A   1     -24.988  -5.246  29.335  0.00  0.00    +0.000 A 
ATOM     15  C   UNL A   1     -26.148  -4.603  29.668  0.00  0.00    +0.000 A 
ATOM     16  C   UNL A   1     -26.107  -3.174  29.541  0.00  0.00    +0.005 A 
ENDBRANCH   1  11
TORSDOF 2
ENDMDL
ENDMDL
