REMARK  Name = No_3942-gen_results/8p0m/2024-11-26-14-13-15/
REMARK  10 active torsions:
REMARK  status: ('A' for Active; 'I' for Inactive)
REMARK    1  A    between atoms: C_1  and  C_2
REMARK    2  A    between atoms: C_3  and  O_21
REMARK    3  A    between atoms: C_5  and  C_9
REMARK    4  A    between atoms: C_14  and  C_15
REMARK    5  A    between atoms: O_21  and  C_22
REMARK    6  A    between atoms: C_22  and  C_23
REMARK    7  A    between atoms: C_23  and  C_24
REMARK    8  A    between atoms: C_24  and  C_25
REMARK    9  A    between atoms: C_26  and  C_27
REMARK   10  A    between atoms: C_28  and  C_29
REMARK                            x       y       z     vdW  Elec       q    Type
REMARK                         _______ _______ _______ _____ _____    ______ ____
ROOT
ATOM      1  C   UNL A   1     -27.064  -0.119  28.608  0.00  0.00    +0.090 A 
ATOM      2  C   UNL A   1     -27.001   0.691  27.491  0.00  0.00    +0.143 A 
ATOM      3  C   UNL A   1     -25.855   1.482  27.083  0.00  0.00    +0.042 A 
ATOM      4  C   UNL A   1     -24.690   1.453  27.881  0.00  0.00    +0.085 A 
ATOM      5  C   UNL A   1     -24.738   0.601  29.042  0.00  0.00    +0.062 A 
ATOM      6  C   UNL A   1     -25.823  -0.169  29.389  0.00  0.00    +0.019 A 
ATOM      7 CL   UNL A   1     -23.272   0.460  29.981  0.00  0.00    -0.082 Cl
ENDROOT
BRANCH   1   8
ATOM      8  C   UNL A   1     -28.016  -0.814  28.878  0.00  0.00    +0.275 C 
ATOM      9  N   UNL A   1     -27.961  -1.607  30.088  0.00  0.00    -0.134 NA
ATOM     10  O   UNL A   1     -29.189  -0.596  28.504  0.00  0.00    -0.268 OA
ATOM     11  C   UNL A   1     -29.065  -2.466  30.582  0.00  0.00    +0.344 C 
ATOM     12  O   UNL A   1     -29.144  -3.528  29.948  0.00  0.00    -0.264 OA
BRANCH  11  13
ATOM     13  C   UNL A   1     -29.428  -2.087  31.799  0.00  0.00    +0.472 C 
ATOM     14  F   UNL A   1     -28.525  -1.710  32.501  0.00  0.00    -0.162 F 
ATOM     15  F   UNL A   1     -30.339  -1.069  31.703  0.00  0.00    -0.162 F 
ATOM     16  F   UNL A   1     -30.140  -3.154  32.358  0.00  0.00    -0.162 F 
ENDBRANCH  11  13
ENDBRANCH   1   8
BRANCH   4  17
ATOM     17  C   UNL A   1     -23.521   2.211  27.573  0.00  0.00    +0.419 C 
ATOM     18  F   UNL A   1     -23.580   2.857  26.672  0.00  0.00    -0.166 F 
ATOM     19  F   UNL A   1     -23.033   2.936  28.607  0.00  0.00    -0.166 F 
ATOM     20  F   UNL A   1     -22.401   1.341  27.411  0.00  0.00    -0.166 F 
ENDBRANCH   4  17
BRANCH   2  21
ATOM     21  O   UNL A   1     -28.051   0.766  26.721  0.00  0.00    -0.475 OA
BRANCH  21  22
ATOM     22  C   UNL A   1     -28.631   1.903  26.484  0.00  0.00    +0.206 C 
BRANCH  22  23
ATOM     23  C   UNL A   1     -29.052   2.017  25.264  0.00  0.00    +0.052 C 
BRANCH  23  24
ATOM     24  C   UNL A   1     -30.239   1.328  24.969  0.00  0.00    +0.030 C 
BRANCH  24  25
ATOM     25  C   UNL A   1     -30.593   0.420  25.535  0.00  0.00    -0.026 C 
ATOM     26  C   UNL A   1     -31.796  -0.424  25.166  0.00  0.00    -0.004 C 
BRANCH  26  27
ATOM     27  C   UNL A   1     -32.132  -1.625  25.849  0.00  0.00    +0.011 C 
ATOM     28  C   UNL A   1     -31.719  -1.712  27.089  0.00  0.00    +0.078 C 
BRANCH  28  29
ATOM     29  C   UNL A   1     -32.269  -1.105  27.948  0.00  0.00    +0.101 C 
ATOM     30  N   UNL A   1     -33.134  -1.094  28.727  0.00  0.00    -0.191 NA
ENDBRANCH  28  29
ENDBRANCH  26  27
ENDBRANCH  24  25
ENDBRANCH  23  24
ENDBRANCH  22  23
ENDBRANCH  21  22
ENDBRANCH   2  21
TORSDOF 10
