MODEL 3942
MODEL 1
REMARK VINA RESULT:    -5.856      0.000      0.000
REMARK INTER + INTRA:         -11.858
REMARK INTER:                  -9.279
REMARK INTRA:                  -2.578
REMARK UNBOUND:                -2.578
REMARK  Name = No_3942-gen_results/8p0m/2024-11-26-14-13-15/
REMARK  10 active torsions:
REMARK  status: ('A' for Active; 'I' for Inactive)
REMARK    1  A    between atoms: C_1  and  C_2
REMARK    2  A    between atoms: C_3  and  O_21
REMARK    3  A    between atoms: C_5  and  C_9
REMARK    4  A    between atoms: C_14  and  C_15
REMARK    5  A    between atoms: O_21  and  C_22
REMARK    6  A    between atoms: C_22  and  C_23
REMARK    7  A    between atoms: C_23  and  C_24
REMARK    8  A    between atoms: C_24  and  C_25
REMARK    9  A    between atoms: C_26  and  C_27
REMARK   10  A    between atoms: C_28  and  C_29
REMARK                            x       y       z     vdW  Elec       q    Type
REMARK                         _______ _______ _______ _____ _____    ______ ____
ROOT
ATOM      1  C   UNL A   1      -6.877   0.369   8.709  0.00  0.00    +0.090 A 
ATOM      2  C   UNL A   1      -7.188  -0.110   9.966  0.00  0.00    +0.143 A 
ATOM      3  C   UNL A   1      -8.205   0.429  10.850  0.00  0.00    +0.042 A 
ATOM      4  C   UNL A   1      -8.953   1.548  10.422  0.00  0.00    +0.085 A 
ATOM      5  C   UNL A   1      -8.647   2.050   9.106  0.00  0.00    +0.062 A 
ATOM      6  C   UNL A   1      -7.704   1.499   8.271  0.00  0.00    +0.019 A 
ATOM      7 CL   UNL A   1      -9.636   3.361   8.510  0.00  0.00    -0.082 Cl
ENDROOT
BRANCH   1   8
ATOM      8  C   UNL A   1      -6.067  -0.150   7.976  0.00  0.00    +0.275 C 
ATOM      9  N   UNL A   1      -4.673   0.207   8.138  0.00  0.00    -0.134 NA
ATOM     10  O   UNL A   1      -6.213  -1.262   7.422  0.00  0.00    -0.268 OA
ATOM     11  C   UNL A   1      -3.558  -0.379   7.355  0.00  0.00    +0.344 C 
ATOM     12  O   UNL A   1      -3.496   0.094   6.211  0.00  0.00    -0.264 OA
BRANCH  11  13
ATOM     13  C   UNL A   1      -2.680  -0.948   8.169  0.00  0.00    +0.472 C 
ATOM     14  F   UNL A   1      -2.299  -0.247   9.070  0.00  0.00    -0.162 F 
ATOM     15  F   UNL A   1      -3.234  -2.074   8.717  0.00  0.00    -0.162 F 
ATOM     16  F   UNL A   1      -1.633  -1.417   7.367  0.00  0.00    -0.162 F 
ENDBRANCH  11  13
ENDBRANCH   1   8
BRANCH   4  17
ATOM     17  C   UNL A   1      -9.959   2.161  11.227  0.00  0.00    +0.419 C 
ATOM     18  F   UNL A   1     -10.987   2.162  10.809  0.00  0.00    -0.166 F 
ATOM     19  F   UNL A   1     -10.002   1.719  12.506  0.00  0.00    -0.166 F 
ATOM     20  F   UNL A   1      -9.604   3.514  11.510  0.00  0.00    -0.166 F 
ENDBRANCH   4  17
BRANCH   2  21
ATOM     21  O   UNL A   1      -6.523  -1.137  10.419  0.00  0.00    -0.475 OA
BRANCH  21  22
ATOM     22  C   UNL A   1      -5.894  -1.083  11.554  0.00  0.00    +0.206 C 
BRANCH  22  23
ATOM     23  C   UNL A   1      -4.671  -0.672  11.441  0.00  0.00    +0.052 C 
BRANCH  23  24
ATOM     24  C   UNL A   1      -4.329   0.429  12.242  0.00  0.00    +0.030 C 
BRANCH  24  25
ATOM     25  C   UNL A   1      -4.994   1.326  12.391  0.00  0.00    -0.026 C 
ATOM     26  C   UNL A   1      -5.117   2.490  11.430  0.00  0.00    -0.004 C 
BRANCH  26  27
ATOM     27  C   UNL A   1      -6.057   3.542  11.611  0.00  0.00    +0.011 C 
ATOM     28  C   UNL A   1      -6.530   3.683  12.825  0.00  0.00    +0.078 C 
BRANCH  28  29
ATOM     29  C   UNL A   1      -5.862   4.172  13.676  0.00  0.00    +0.101 C 
ATOM     30  N   UNL A   1      -5.848   4.775  14.671  0.00  0.00    -0.191 NA
ENDBRANCH  28  29
ENDBRANCH  26  27
ENDBRANCH  24  25
ENDBRANCH  23  24
ENDBRANCH  22  23
ENDBRANCH  21  22
ENDBRANCH   2  21
TORSDOF 10
ENDMDL
ENDMDL
