REMARK  Name = No_3943-gen_results/8p0m/2024-11-26-14-13-15/
REMARK  1 active torsions:
REMARK  status: ('A' for Active; 'I' for Inactive)
REMARK    1  A    between atoms: C_5  and  C_11
REMARK                            x       y       z     vdW  Elec       q    Type
REMARK                         _______ _______ _______ _____ _____    ______ ____
ROOT
ATOM      1  C   UNL A   1     -28.016  -0.814  28.878  0.00  0.00    +0.021 A 
ATOM      2  C   UNL A   1     -27.064  -0.119  28.608  0.00  0.00    +0.003 A 
ATOM      3  C   UNL A   1     -26.876   1.133  28.913  0.00  0.00    +0.019 A 
ATOM      4  C   UNL A   1     -25.688   1.952  28.567  0.00  0.00    +0.008 A 
ATOM      5  C   UNL A   1     -24.639   1.283  27.875  0.00  0.00    +0.080 A 
ATOM      6  C   UNL A   1     -24.807  -0.051  27.604  0.00  0.00    +0.007 A 
ATOM      7  C   UNL A   1     -25.902  -0.767  27.951  0.00  0.00    +0.000 A 
ATOM      8  C   UNL A   1     -29.212  -0.115  29.122  0.00  0.00    +0.099 A 
ATOM      9  N   UNL A   1     -29.170   1.148  29.411  0.00  0.00    -0.242 NA
ATOM     10  C   UNL A   1     -28.040   1.877  29.190  0.00  0.00    +0.099 A 
ENDROOT
BRANCH   5  11
ATOM     11  C   UNL A   1     -23.358   1.895  27.587  0.00  0.00    +0.388 C 
ATOM     12  O   UNL A   1     -23.219   2.667  26.725  0.00  0.00    -0.241 OA
ATOM     13  O   UNL A   1     -22.315   1.679  28.443  0.00  0.00    -0.241 OA
ENDBRANCH   5  11
TORSDOF 1
