MODEL 3943
MODEL 1
REMARK VINA RESULT:    -5.905      0.000      0.000
REMARK INTER + INTRA:          -6.316
REMARK INTER:                  -6.250
REMARK INTRA:                  -0.066
REMARK UNBOUND:                -0.066
REMARK  Name = No_3943-gen_results/8p0m/2024-11-26-14-13-15/
REMARK  1 active torsions:
REMARK  status: ('A' for Active; 'I' for Inactive)
REMARK    1  A    between atoms: C_5  and  C_11
REMARK                            x       y       z     vdW  Elec       q    Type
REMARK                         _______ _______ _______ _____ _____    ______ ____
ROOT
ATOM      1  C   UNL A   1     -30.587  -9.902  29.671  0.00  0.00    +0.021 A 
ATOM      2  C   UNL A   1     -29.846 -10.425  30.471  0.00  0.00    +0.003 A 
ATOM      3  C   UNL A   1     -28.972 -11.366  30.254  0.00  0.00    +0.019 A 
ATOM      4  C   UNL A   1     -28.075 -11.981  31.264  0.00  0.00    +0.008 A 
ATOM      5  C   UNL A   1     -28.153 -11.451  32.584  0.00  0.00    +0.080 A 
ATOM      6  C   UNL A   1     -29.029 -10.420  32.803  0.00  0.00    +0.007 A 
ATOM      7  C   UNL A   1     -29.821  -9.876  31.849  0.00  0.00    +0.000 A 
ATOM      8  C   UNL A   1     -30.872 -10.675  28.531  0.00  0.00    +0.099 A 
ATOM      9  N   UNL A   1     -30.095 -11.663  28.214  0.00  0.00    -0.242 NA
ATOM     10  C   UNL A   1     -29.196 -12.159  29.111  0.00  0.00    +0.099 A 
ENDROOT
BRANCH   5  11
ATOM     11  C   UNL A   1     -27.253 -11.839  33.651  0.00  0.00    +0.388 C 
ATOM     12  O   UNL A   1     -26.696 -12.862  33.653  0.00  0.00    -0.241 OA
ATOM     13  O   UNL A   1     -26.929 -10.919  34.608  0.00  0.00    -0.241 OA
ENDBRANCH   5  11
TORSDOF 1
ENDMDL
ENDMDL
