MODEL 3944
MODEL 1
REMARK VINA RESULT:    -5.473      0.000      0.000
REMARK INTER + INTRA:          -6.360
REMARK INTER:                  -6.113
REMARK INTRA:                  -0.247
REMARK UNBOUND:                -0.247
REMARK  Name = No_3944-gen_results/8p0m/2024-11-26-14-13-15/
REMARK  2 active torsions:
REMARK  status: ('A' for Active; 'I' for Inactive)
REMARK    1  A    between atoms: C_3  and  C_4
REMARK    2  A    between atoms: C_4  and  C_8
REMARK                            x       y       z     vdW  Elec       q    Type
REMARK                         _______ _______ _______ _____ _____    ______ ____
ROOT
ATOM      1  C   UNL A   1     -26.437  -3.455  29.872  0.00  0.00    -0.000 A 
ATOM      2  C   UNL A   1     -25.571  -2.620  29.745  0.00  0.00    -0.004 A 
ATOM      3  C   UNL A   1     -24.347  -2.937  29.167  0.00  0.00    -0.018 A 
ATOM      4  C   UNL A   1     -26.133  -4.868  29.638  0.00  0.00    -0.000 A 
ATOM      5  C   UNL A   1     -24.993  -5.261  28.982  0.00  0.00    -0.000 A 
ATOM      6  C   UNL A   1     -24.030  -4.280  28.734  0.00  0.00    -0.004 A 
ENDROOT
BRANCH   3   7
ATOM      7  C   UNL A   1     -23.326  -1.980  28.930  0.00  0.00    +0.052 C 
BRANCH   7   8
ATOM      8  C   UNL A   1     -23.552  -0.650  28.807  0.00  0.00    -0.026 C 
ATOM      9  C   UNL A   1     -22.481   0.276  28.709  0.00  0.00    -0.030 C 
ATOM     10  C   UNL A   1     -21.155  -0.109  28.678  0.00  0.00    +0.030 C 
ENDBRANCH   7   8
ENDBRANCH   3   7
TORSDOF 2
ENDMDL
ENDMDL
