MODEL 3945
MODEL 1
REMARK VINA RESULT:    -4.517      0.000      0.000
REMARK INTER + INTRA:          -4.517
REMARK INTER:                  -4.517
REMARK INTRA:                   0.000
REMARK UNBOUND:                 0.000
REMARK  Name = No_3945-gen_results/8p0m/2024-11-26-14-13-15/
REMARK  0 active torsions:
REMARK  status: ('A' for Active; 'I' for Inactive)
REMARK                            x       y       z     vdW  Elec       q    Type
REMARK                         _______ _______ _______ _____ _____    ______ ____
ROOT
ATOM      1  C   UNL A   1     -24.045  -4.237  28.666  0.00  0.00    +0.011 A 
ATOM      2  C   UNL A   1     -24.235  -3.106  29.049  0.00  0.00    +0.058 A 
ATOM      3 CL   UNL A   1     -23.191  -1.997  28.980  0.00  0.00    -0.082 Cl
ATOM      4  C   UNL A   1     -24.931  -5.245  29.099  0.00  0.00    +0.001 A 
ATOM      5  C   UNL A   1     -26.163  -4.888  29.597  0.00  0.00    +0.000 A 
ATOM      6  C   UNL A   1     -26.443  -3.580  29.895  0.00  0.00    +0.001 A 
ATOM      7  C   UNL A   1     -25.456  -2.612  29.624  0.00  0.00    +0.011 A 
ENDROOT
TORSDOF 0
ENDMDL
ENDMDL
