MODEL 3946
MODEL 1
REMARK VINA RESULT:    -6.907      0.000      0.000
REMARK INTER + INTRA:         -10.724
REMARK INTER:                  -9.734
REMARK INTRA:                  -0.991
REMARK UNBOUND:                -0.991
REMARK  Name = No_3946-gen_results/8p0m/2024-11-26-14-13-15/
REMARK  7 active torsions:
REMARK  status: ('A' for Active; 'I' for Inactive)
REMARK    1  A    between atoms: C_1  and  C_2
REMARK    2  A    between atoms: C_1  and  C_5
REMARK    3  A    between atoms: C_2  and  C_4
REMARK    4  A    between atoms: C_4  and  N_6
REMARK    5  A    between atoms: N_6  and  C_8
REMARK    6  A    between atoms: C_12  and  C_17
REMARK    7  A    between atoms: C_17  and  N_18
REMARK                            x       y       z     vdW  Elec       q    Type
REMARK                         _______ _______ _______ _____ _____    ______ ____
ROOT
ATOM      1  C   UNL A   1     -22.994  -0.246  29.631  0.00  0.00    +0.048 A 
ATOM      2  C   UNL A   1     -21.512  -0.302  29.454  0.00  0.00    +0.015 A 
ATOM      3  C   UNL A   1     -20.934   0.289  28.314  0.00  0.00    +0.001 A 
ATOM      4  C   UNL A   1     -21.645   1.203  27.524  0.00  0.00    -0.003 A 
ATOM      5  C   UNL A   1     -23.027   1.380  27.779  0.00  0.00    -0.005 A 
ATOM      6  C   UNL A   1     -23.599   0.715  28.686  0.00  0.00    +0.012 A 
ENDROOT
BRANCH   1   7
ATOM      7  N   UNL A   1     -23.602  -0.838  30.334  0.00  0.00    -0.303 N 
ATOM      8  C   UNL A   1     -23.061  -1.110  31.782  0.00  0.00    +0.112 C 
BRANCH   7   9
ATOM      9  C   UNL A   1     -24.734  -1.420  30.211  0.00  0.00    +0.130 C 
BRANCH   9  10
ATOM     10  C   UNL A   1     -24.985  -2.376  29.131  0.00  0.00    +0.223 C 
ATOM     11  F   UNL A   1     -25.890  -1.976  28.351  0.00  0.00    -0.232 F 
BRANCH  10  12
ATOM     12  C   UNL A   1     -24.526  -3.491  29.044  0.00  0.00    +0.285 C 
ATOM     13  F   UNL A   1     -23.417  -3.836  28.614  0.00  0.00    -0.223 F 
BRANCH  12  14
ATOM     14  C   UNL A   1     -25.420  -4.601  29.291  0.00  0.00    +0.345 C 
ATOM     15  O   UNL A   1     -26.389  -4.521  29.809  0.00  0.00    -0.256 OA
ATOM     16  F   UNL A   1     -25.036  -5.836  28.951  0.00  0.00    -0.161 F 
ENDBRANCH  12  14
ENDBRANCH  10  12
ENDBRANCH   9  10
ENDBRANCH   7   9
ENDBRANCH   1   7
BRANCH   5  17
ATOM     17  C   UNL A   1     -23.709   2.382  26.900  0.00  0.00    +0.100 C 
BRANCH  17  18
ATOM     18  N   UNL A   1     -24.788   1.935  26.110  0.00  0.00    -0.254 NA
ATOM     19  C   UNL A   1     -25.995   2.441  25.969  0.00  0.00    +0.167 C 
ATOM     20  N   UNL A   1     -26.900   1.769  25.198  0.00  0.00    -0.170 NA
ATOM     21  C   UNL A   1     -24.634   0.733  25.413  0.00  0.00    +0.078 C 
ATOM     22  C   UNL A   1     -26.711   0.578  24.673  0.00  0.00    +0.237 C 
ATOM     23  F   UNL A   1     -27.597  -0.009  23.984  0.00  0.00    -0.218 F 
ATOM     24  C   UNL A   1     -25.423   0.066  24.755  0.00  0.00    +0.071 C 
ENDBRANCH  17  18
ENDBRANCH   5  17
TORSDOF 7
ENDMDL
ENDMDL
