REMARK  Name = No_3946-gen_results/8p0m/2024-11-26-14-13-15/
REMARK  7 active torsions:
REMARK  status: ('A' for Active; 'I' for Inactive)
REMARK    1  A    between atoms: C_1  and  C_2
REMARK    2  A    between atoms: C_1  and  C_5
REMARK    3  A    between atoms: C_2  and  C_4
REMARK    4  A    between atoms: C_4  and  N_6
REMARK    5  A    between atoms: N_6  and  C_8
REMARK    6  A    between atoms: C_12  and  C_17
REMARK    7  A    between atoms: C_17  and  N_18
REMARK                            x       y       z     vdW  Elec       q    Type
REMARK                         _______ _______ _______ _____ _____    ______ ____
ROOT
ATOM      1  C   UNL A   1     -25.117   1.434  27.038  0.00  0.00    +0.048 A 
ATOM      2  C   UNL A   1     -24.186   1.855  25.948  0.00  0.00    +0.015 A 
ATOM      3  C   UNL A   1     -22.825   2.058  26.247  0.00  0.00    +0.001 A 
ATOM      4  C   UNL A   1     -22.255   1.565  27.429  0.00  0.00    -0.003 A 
ATOM      5  C   UNL A   1     -23.115   1.023  28.416  0.00  0.00    -0.005 A 
ATOM      6  C   UNL A   1     -24.363   1.003  28.233  0.00  0.00    +0.012 A 
ENDROOT
BRANCH   1   7
ATOM      7  N   UNL A   1     -26.218   1.452  27.014  0.00  0.00    -0.303 N 
ATOM      8  C   UNL A   1     -26.953   1.944  25.718  0.00  0.00    +0.112 C 
BRANCH   7   9
ATOM      9  C   UNL A   1     -27.101   1.156  27.891  0.00  0.00    +0.130 C 
BRANCH   9  10
ATOM     10  C   UNL A   1     -27.064  -0.119  28.608  0.00  0.00    +0.223 C 
ATOM     11  F   UNL A   1     -25.884  -0.525  28.784  0.00  0.00    -0.232 F 
BRANCH  10  12
ATOM     12  C   UNL A   1     -28.016  -0.814  28.878  0.00  0.00    +0.285 C 
ATOM     13  F   UNL A   1     -29.183  -0.714  28.474  0.00  0.00    -0.223 F 
BRANCH  12  14
ATOM     14  C   UNL A   1     -27.855  -1.781  29.942  0.00  0.00    +0.345 C 
ATOM     15  O   UNL A   1     -27.451  -1.551  30.941  0.00  0.00    -0.256 OA
ATOM     16  F   UNL A   1     -28.133  -3.067  29.703  0.00  0.00    -0.161 F 
ENDBRANCH  12  14
ENDBRANCH  10  12
ENDBRANCH   9  10
ENDBRANCH   7   9
ENDBRANCH   1   7
BRANCH   5  17
ATOM     17  C   UNL A   1     -22.426   0.509  29.642  0.00  0.00    +0.100 C 
BRANCH  17  18
ATOM     18  N   UNL A   1     -23.222   0.218  30.769  0.00  0.00    -0.254 NA
ATOM     19  C   UNL A   1     -23.356  -0.909  31.436  0.00  0.00    +0.167 C 
ATOM     20  N   UNL A   1     -24.263  -0.960  32.456  0.00  0.00    -0.170 NA
ATOM     21  C   UNL A   1     -24.077   1.218  31.241  0.00  0.00    +0.078 C 
ATOM     22  C   UNL A   1     -25.117  -0.007  32.759  0.00  0.00    +0.237 C 
ATOM     23  F   UNL A   1     -25.954  -0.118  33.703  0.00  0.00    -0.218 F 
ATOM     24  C   UNL A   1     -24.940   1.208  32.110  0.00  0.00    +0.071 C 
ENDBRANCH  17  18
ENDBRANCH   5  17
TORSDOF 7
