REMARK  Name = No_3947-gen_results/8p0m/2024-11-26-14-13-15/
REMARK  8 active torsions:
REMARK  status: ('A' for Active; 'I' for Inactive)
REMARK    1  A    between atoms: C_2  and  C_5
REMARK    2  A    between atoms: C_6  and  C_12
REMARK    3  A    between atoms: C_12  and  O_13
REMARK    4  A    between atoms: O_13  and  C_15
REMARK    5  A    between atoms: C_16  and  C_17
REMARK    6  A    between atoms: C_21  and  C_23
REMARK    7  A    between atoms: C_23  and  O_25
REMARK    8  A    between atoms: O_25  and  C_26
REMARK                            x       y       z     vdW  Elec       q    Type
REMARK                         _______ _______ _______ _____ _____    ______ ____
ROOT
ATOM      1  C   UNL A   1     -30.451   4.199  31.218  0.00  0.00    +0.168 A 
ATOM      2  C   UNL A   1     -29.954   5.173  31.787  0.00  0.00    +0.038 A 
ATOM      3  C   UNL A   1     -31.499   4.973  30.250  0.00  0.00    +0.136 A 
ATOM      4  N   UNL A   1     -32.184   5.786  30.816  0.00  0.00    -0.239 NA
ATOM      5  C   UNL A   1     -31.609   6.781  31.669  0.00  0.00    +0.099 A 
ATOM      6  C   UNL A   1     -30.432   6.510  32.168  0.00  0.00    +0.024 A 
ENDROOT
BRANCH   2   7
ATOM      7  C   UNL A   1     -28.474   5.094  32.043  0.00  0.00    +0.003 A 
ATOM      8  C   UNL A   1     -27.870   5.571  33.077  0.00  0.00    +0.000 A 
ATOM      9  C   UNL A   1     -26.446   5.335  33.339  0.00  0.00    +0.000 A 
ATOM     10  C   UNL A   1     -25.677   4.586  32.353  0.00  0.00    +0.006 A 
ATOM     11  C   UNL A   1     -26.377   4.116  31.262  0.00  0.00    +0.076 A 
ATOM     12  C   UNL A   1     -27.726   4.329  31.107  0.00  0.00    +0.007 A 
BRANCH  11  13
ATOM     13  C   UNL A   1     -25.626   3.324  30.262  0.00  0.00    +0.346 C 
ATOM     14  O   UNL A   1     -25.144   2.300  30.537  0.00  0.00    -0.244 OA
BRANCH  13  15
ATOM     15  O   UNL A   1     -25.611   3.843  29.049  0.00  0.00    -0.421 OA
BRANCH  15  16
ATOM     16  C   UNL A   1     -25.090   3.080  28.020  0.00  0.00    +0.149 A 
ATOM     17  C   UNL A   1     -25.879   2.448  27.141  0.00  0.00    +0.038 A 
ATOM     18  C   UNL A   1     -25.243   1.602  26.206  0.00  0.00    +0.003 A 
ATOM     19  C   UNL A   1     -23.796   1.483  26.250  0.00  0.00    +0.000 A 
ATOM     20  C   UNL A   1     -23.056   2.162  27.183  0.00  0.00    +0.003 A 
ATOM     21  C   UNL A   1     -23.699   2.936  28.117  0.00  0.00    +0.038 A 
ENDBRANCH  15  16
ENDBRANCH  13  15
ENDBRANCH  11  13
ENDBRANCH   2   7
BRANCH   1  22
ATOM     22  O   UNL A   1     -30.160   3.272  30.767  0.00  0.00    -0.419 OA
BRANCH  22  23
ATOM     23  C   UNL A   1     -30.500   2.359  30.103  0.00  0.00    +0.346 C 
ATOM     24  O   UNL A   1     -31.747   2.212  29.698  0.00  0.00    -0.244 OA
BRANCH  23  29
ATOM     25  C   UNL A   1     -28.016  -0.814  28.878  0.00  0.00    +0.034 A 
ATOM     26  C   UNL A   1     -28.469  -0.785  29.829  0.00  0.00    +0.074 A 
ATOM     27  C   UNL A   1     -28.196   0.348  28.055  0.00  0.00    +0.140 A 
ATOM     28  C   UNL A   1     -29.019   1.350  28.378  0.00  0.00    +0.036 A 
ATOM     29  C   UNL A   1     -29.595   1.286  29.605  0.00  0.00    +0.078 A 
ATOM     30  C   UNL A   1     -29.346   0.209  30.375  0.00  0.00    +0.010 A 
ATOM     31  F   UNL A   1     -27.544   0.351  26.801  0.00  0.00    -0.204 F 
BRANCH  26  32
ATOM     32  C   UNL A   1     -28.317  -1.981  30.856  0.00  0.00    +0.419 C 
ATOM     33  F   UNL A   1     -27.642  -1.725  31.698  0.00  0.00    -0.166 F 
ATOM     34  F   UNL A   1     -27.652  -2.996  30.122  0.00  0.00    -0.166 F 
ATOM     35  F   UNL A   1     -29.481  -2.455  31.301  0.00  0.00    -0.166 F 
ENDBRANCH  26  32
ENDBRANCH  23  29
ENDBRANCH  22  23
ENDBRANCH   1  22
TORSDOF 8
