MODEL 3947
MODEL 1
REMARK VINA RESULT:    -7.590      0.000      0.000
REMARK INTER + INTRA:         -14.166
REMARK INTER:                 -11.140
REMARK INTRA:                  -3.026
REMARK UNBOUND:                -3.026
REMARK  Name = No_3947-gen_results/8p0m/2024-11-26-14-13-15/
REMARK  8 active torsions:
REMARK  status: ('A' for Active; 'I' for Inactive)
REMARK    1  A    between atoms: C_2  and  C_5
REMARK    2  A    between atoms: C_6  and  C_12
REMARK    3  A    between atoms: C_12  and  O_13
REMARK    4  A    between atoms: O_13  and  C_15
REMARK    5  A    between atoms: C_16  and  C_17
REMARK    6  A    between atoms: C_21  and  C_23
REMARK    7  A    between atoms: C_23  and  O_25
REMARK    8  A    between atoms: O_25  and  C_26
REMARK                            x       y       z     vdW  Elec       q    Type
REMARK                         _______ _______ _______ _____ _____    ______ ____
ROOT
ATOM      1  C   UNL A   1     -23.681   0.600  27.826  0.00  0.00    +0.168 A 
ATOM      2  C   UNL A   1     -24.610   1.340  27.495  0.00  0.00    +0.038 A 
ATOM      3  C   UNL A   1     -22.435   1.578  27.473  0.00  0.00    +0.136 A 
ATOM      4  N   UNL A   1     -22.487   2.066  26.373  0.00  0.00    -0.239 NA
ATOM      5  C   UNL A   1     -23.667   2.729  25.908  0.00  0.00    +0.099 A 
ATOM      6  C   UNL A   1     -24.788   2.400  26.492  0.00  0.00    +0.024 A 
ENDROOT
BRANCH   2   7
ATOM      7  C   UNL A   1     -25.822   1.304  28.386  0.00  0.00    +0.003 A 
ATOM      8  C   UNL A   1     -25.870   1.743  29.597  0.00  0.00    +0.000 A 
ATOM      9  C   UNL A   1     -27.119   1.812  30.363  0.00  0.00    +0.000 A 
ATOM     10  C   UNL A   1     -28.337   1.301  29.746  0.00  0.00    +0.006 A 
ATOM     11  C   UNL A   1     -28.216   0.831  28.455  0.00  0.00    +0.076 A 
ATOM     12  C   UNL A   1     -27.022   0.846  27.776  0.00  0.00    +0.007 A 
BRANCH  11  13
ATOM     13  C   UNL A   1     -29.445   0.336  27.794  0.00  0.00    +0.346 C 
ATOM     14  O   UNL A   1     -30.163  -0.409  28.328  0.00  0.00    -0.244 OA
BRANCH  13  15
ATOM     15  O   UNL A   1     -29.675   0.856  26.603  0.00  0.00    -0.421 OA
BRANCH  15  16
ATOM     16  C   UNL A   1     -29.485   0.053  25.494  0.00  0.00    +0.149 A 
ATOM     17  C   UNL A   1     -28.382   0.142  24.739  0.00  0.00    +0.038 A 
ATOM     18  C   UNL A   1     -28.347  -0.641  23.564  0.00  0.00    +0.003 A 
ATOM     19  C   UNL A   1     -29.488  -1.487  23.261  0.00  0.00    +0.000 A 
ATOM     20  C   UNL A   1     -30.584  -1.523  24.083  0.00  0.00    +0.003 A 
ATOM     21  C   UNL A   1     -30.619  -0.713  25.191  0.00  0.00    +0.038 A 
ENDBRANCH  15  16
ENDBRANCH  13  15
ENDBRANCH  11  13
ENDBRANCH   2   7
BRANCH   1  22
ATOM     22  O   UNL A   1     -23.403  -0.070  28.614  0.00  0.00    -0.419 OA
BRANCH  22  23
ATOM     23  C   UNL A   1     -23.141  -1.182  28.904  0.00  0.00    +0.346 C 
ATOM     24  O   UNL A   1     -21.899  -1.584  29.094  0.00  0.00    -0.244 OA
BRANCH  23  29
ATOM     25  C   UNL A   1     -26.134  -4.061  29.606  0.00  0.00    +0.034 A 
ATOM     26  C   UNL A   1     -26.215  -3.067  29.946  0.00  0.00    +0.074 A 
ATOM     27  C   UNL A   1     -24.891  -4.419  28.985  0.00  0.00    +0.140 A 
ATOM     28  C   UNL A   1     -23.939  -3.529  28.692  0.00  0.00    +0.036 A 
ATOM     29  C   UNL A   1     -24.143  -2.261  29.129  0.00  0.00    +0.078 A 
ATOM     30  C   UNL A   1     -25.296  -1.981  29.768  0.00  0.00    +0.010 A 
ATOM     31  F   UNL A   1     -24.743  -5.765  28.579  0.00  0.00    -0.204 F 
BRANCH  26  32
ATOM     32  C   UNL A   1     -27.515  -2.547  30.686  0.00  0.00    +0.419 C 
ATOM     33  F   UNL A   1     -28.212  -2.032  29.994  0.00  0.00    -0.166 F 
ATOM     34  F   UNL A   1     -27.042  -1.547  31.573  0.00  0.00    -0.166 F 
ATOM     35  F   UNL A   1     -28.144  -3.490  31.387  0.00  0.00    -0.166 F 
ENDBRANCH  26  32
ENDBRANCH  23  29
ENDBRANCH  22  23
ENDBRANCH   1  22
TORSDOF 8
ENDMDL
ENDMDL
