MODEL 3948
MODEL 1
REMARK VINA RESULT:    -5.638      0.000      0.000
REMARK INTER + INTRA:         -13.511
REMARK INTER:                 -10.581
REMARK INTRA:                  -2.930
REMARK UNBOUND:                -2.930
REMARK  Name = No_3948-gen_results/8p0m/2024-11-26-14-13-15/
REMARK  15 active torsions:
REMARK  status: ('A' for Active; 'I' for Inactive)
REMARK    1  A    between atoms: C_2  and  C_10
REMARK    2  A    between atoms: C_10  and  O_12
REMARK    3  A    between atoms: O_12  and  C_13
REMARK    4  A    between atoms: C_13  and  C_14
REMARK    5  A    between atoms: C_13  and  C_22
REMARK    6  A    between atoms: C_14  and  O_15
REMARK    7  A    between atoms: O_15  and  C_16
REMARK    8  A    between atoms: C_16  and  C_17
REMARK    9  A    between atoms: C_22  and  C_23
REMARK   10  A    between atoms: C_22  and  O_26
REMARK   11  A    between atoms: C_23  and  C_24
REMARK   12  A    between atoms: O_26  and  C_27
REMARK   13  A    between atoms: C_27  and  C_28
REMARK   14  A    between atoms: C_27  and  C_31
REMARK   15  A    between atoms: C_32  and  C_33
REMARK                            x       y       z     vdW  Elec       q    Type
REMARK                         _______ _______ _______ _____ _____    ______ ____
ROOT
ATOM      1  C   UNL A   1     -10.185   1.331  36.719  0.00  0.00    +0.225 C 
ENDROOT
BRANCH   1   2
ATOM      2  O   UNL A   1     -11.020   0.295  37.101  0.00  0.00    -0.444 OA
BRANCH   2   3
ATOM      3  C   UNL A   1     -10.489  -0.715  37.575  0.00  0.00    +0.342 C 
ATOM      4  O   UNL A   1      -9.927  -1.510  36.934  0.00  0.00    -0.245 OA
BRANCH   3   6
ATOM      5  C   UNL A   1      -9.747  -0.362  39.799  0.00  0.00    +0.017 A 
ATOM      6  C   UNL A   1     -10.388  -0.974  39.230  0.00  0.00    +0.087 A 
ATOM      7  C   UNL A   1      -9.687  -0.642  41.205  0.00  0.00    +0.074 A 
ATOM      8  C   UNL A   1     -10.504  -1.508  41.812  0.00  0.00    +0.203 A 
ATOM      9  C   UNL A   1     -11.371  -1.952  39.673  0.00  0.00    +0.067 A 
ATOM     10  C   UNL A   1     -11.344  -2.207  40.974  0.00  0.00    +0.054 A 
ATOM     11 BR   UNL A   1      -8.418   0.368  42.251  0.00  0.00    -0.046 Br
ATOM     12 CL   UNL A   1     -12.410  -2.783  38.531  0.00  0.00    -0.082 Cl
ATOM     13  O   UNL A   1     -10.427  -1.718  43.121  0.00  0.00    -0.286 OA
ENDBRANCH   3   6
ENDBRANCH   2   3
ENDBRANCH   1   2
BRANCH   1  14
ATOM     14  C   UNL A   1     -10.317   2.510  37.526  0.00  0.00    +0.191 C 
BRANCH  14  15
ATOM     15  O   UNL A   1     -10.598   3.581  36.893  0.00  0.00    -0.320 OA
BRANCH  15  16
ATOM     16  C   UNL A   1      -9.698   4.673  36.901  0.00  0.00    +0.341 C 
ATOM     17  O   UNL A   1      -8.403   4.075  37.066  0.00  0.00    -0.183 OA
BRANCH  16  18
ATOM     18  C   UNL A   1      -9.689   5.386  35.747  0.00  0.00    +0.363 C 
ATOM     19 BR   UNL A   1      -9.656   6.608  35.717  0.00  0.00    -0.004 Br
ATOM     20  F   UNL A   1      -8.668   4.745  35.007  0.00  0.00    -0.187 F 
ATOM     21  F   UNL A   1     -10.811   4.844  35.001  0.00  0.00    -0.187 F 
ENDBRANCH  16  18
ENDBRANCH  15  16
ENDBRANCH  14  15
ENDBRANCH   1  14
BRANCH   1  22
ATOM     22  C   UNL A   1     -10.468   1.588  35.223  0.00  0.00    +0.159 C 
BRANCH  22  23
ATOM     23  C   UNL A   1      -9.642   0.897  34.375  0.00  0.00    +0.051 C 
BRANCH  23  24
ATOM     24  C   UNL A   1      -8.291   0.897  34.819  0.00  0.00    +0.098 C 
ATOM     25 CL   UNL A   1      -7.384  -0.318  34.864  0.00  0.00    -0.114 Cl
ENDBRANCH  23  24
ENDBRANCH  22  23
BRANCH  22  26
ATOM     26  O   UNL A   1     -11.869   1.085  35.013  0.00  0.00    -0.345 OA
BRANCH  26  27
ATOM     27  C   UNL A   1     -12.787   1.905  34.353  0.00  0.00    +0.201 C 
BRANCH  27  28
ATOM     28  C   UNL A   1     -13.232   1.309  33.258  0.00  0.00    +0.340 C 
ATOM     29  F   UNL A   1     -12.282   0.832  32.542  0.00  0.00    -0.198 F 
ATOM     30  O   UNL A   1     -13.866   2.267  32.426  0.00  0.00    -0.181 OA
ENDBRANCH  27  28
BRANCH  27  31
ATOM     31  C   UNL A   1     -13.456   2.892  35.023  0.00  0.00    +0.008 C 
ATOM     32  C   UNL A   1     -13.924   2.580  36.213  0.00  0.00    -0.002 C 
BRANCH  32  33
ATOM     33  C   UNL A   1     -14.623   3.593  36.938  0.00  0.00    -0.005 C 
ATOM     34  C   UNL A   1     -14.336   3.642  38.283  0.00  0.00    -0.026 C 
ATOM     35  C   UNL A   1     -13.581   2.691  38.946  0.00  0.00    +0.031 C 
ENDBRANCH  32  33
ENDBRANCH  27  31
ENDBRANCH  26  27
ENDBRANCH  22  26
ENDBRANCH   1  22
TORSDOF 15
ENDMDL
ENDMDL
