REMARK  Name = No_3949-gen_results/8p0m/2024-11-26-14-13-15/
REMARK  4 active torsions:
REMARK  status: ('A' for Active; 'I' for Inactive)
REMARK    1  A    between atoms: C_2  and  C_14
REMARK    2  A    between atoms: C_4  and  C_6
REMARK    3  A    between atoms: C_8  and  C_24
REMARK    4  A    between atoms: N_16  and  C_17
REMARK                            x       y       z     vdW  Elec       q    Type
REMARK                         _______ _______ _______ _____ _____    ______ ____
ROOT
ATOM      1  C   UNL A   1     -28.016  -0.814  28.878  0.00  0.00    +0.005 A 
ATOM      2  C   UNL A   1     -28.469  -0.785  29.829  0.00  0.00    +0.055 A 
ATOM      3  C   UNL A   1     -26.546  -0.876  28.850  0.00  0.00    +0.000 A 
ATOM      4  C   UNL A   1     -25.804  -1.032  30.057  0.00  0.00    +0.003 A 
ATOM      5  C   UNL A   1     -27.944  -0.987  31.207  0.00  0.00    +0.005 A 
ATOM      6  C   UNL A   1     -26.561  -1.075  31.227  0.00  0.00    +0.000 A 
ENDROOT
BRANCH   4   7
ATOM      7  C   UNL A   1     -24.401  -1.097  30.096  0.00  0.00    +0.041 A 
ATOM      8  C   UNL A   1     -23.734   0.141  29.938  0.00  0.00    +0.084 A 
ATOM      9  C   UNL A   1     -22.407   0.181  29.400  0.00  0.00    +0.027 A 
ATOM     10  C   UNL A   1     -21.778  -1.066  29.152  0.00  0.00    +0.101 A 
ATOM     11  N   UNL A   1     -22.549  -2.142  29.081  0.00  0.00    -0.226 NA
ATOM     12  C   UNL A   1     -23.793  -2.274  29.542  0.00  0.00    +0.170 A 
ATOM     13  N   UNL A   1     -24.353  -3.423  29.514  0.00  0.00    -0.107 NA
BRANCH   8  14
ATOM     14  C   UNL A   1     -24.324   1.428  30.476  0.00  0.00    +0.388 C 
ATOM     15  O   UNL A   1     -24.683   2.335  29.663  0.00  0.00    -0.241 OA
ATOM     16  O   UNL A   1     -24.115   1.749  31.770  0.00  0.00    -0.241 OA
ENDBRANCH   8  14
ENDBRANCH   4   7
BRANCH   2  17
ATOM     17  C   UNL A   1     -30.088  -0.697  29.914  0.00  0.00    +0.269 C 
ATOM     18  O   UNL A   1     -30.514  -0.195  28.977  0.00  0.00    -0.268 OA
ATOM     19  N   UNL A   1     -30.790  -1.139  30.968  0.00  0.00    -0.175 NA
BRANCH  19  20
ATOM     20  C   UNL A   1     -32.222  -1.040  30.960  0.00  0.00    +0.074 A 
ATOM     21  C   UNL A   1     -32.904  -0.306  30.578  0.00  0.00    +0.019 A 
ATOM     22  C   UNL A   1     -34.330  -0.306  30.592  0.00  0.00    +0.031 A 
ATOM     23  C   UNL A   1     -32.739  -2.233  31.686  0.00  0.00    +0.019 A 
ATOM     24  C   UNL A   1     -34.133  -2.311  31.779  0.00  0.00    +0.031 A 
ATOM     25  C   UNL A   1     -34.898  -1.346  31.282  0.00  0.00    +0.140 A 
ATOM     26  F   UNL A   1     -36.209  -1.433  31.401  0.00  0.00    -0.204 F 
ENDBRANCH  19  20
ENDBRANCH   2  17
TORSDOF 4
