MODEL 3949
MODEL 1
REMARK VINA RESULT:    -7.411      0.000      0.000
REMARK INTER + INTRA:          -9.743
REMARK INTER:                  -9.143
REMARK INTRA:                  -0.600
REMARK UNBOUND:                -0.600
REMARK  Name = No_3949-gen_results/8p0m/2024-11-26-14-13-15/
REMARK  4 active torsions:
REMARK  status: ('A' for Active; 'I' for Inactive)
REMARK    1  A    between atoms: C_2  and  C_14
REMARK    2  A    between atoms: C_4  and  C_6
REMARK    3  A    between atoms: C_8  and  C_24
REMARK    4  A    between atoms: N_16  and  C_17
REMARK                            x       y       z     vdW  Elec       q    Type
REMARK                         _______ _______ _______ _____ _____    ______ ____
ROOT
ATOM      1  C   UNL A   1     -27.769   0.897  26.416  0.00  0.00    +0.005 A 
ATOM      2  C   UNL A   1     -27.565   0.467  25.476  0.00  0.00    +0.055 A 
ATOM      3  C   UNL A   1     -26.706   0.803  27.429  0.00  0.00    +0.000 A 
ATOM      4  C   UNL A   1     -25.424   0.280  27.088  0.00  0.00    +0.003 A 
ATOM      5  C   UNL A   1     -26.323  -0.075  24.858  0.00  0.00    +0.005 A 
ATOM      6  C   UNL A   1     -25.284  -0.159  25.772  0.00  0.00    +0.000 A 
ENDROOT
BRANCH   4   7
ATOM      7  C   UNL A   1     -24.370   0.164  28.009  0.00  0.00    +0.041 A 
ATOM      8  C   UNL A   1     -23.255   0.999  27.760  0.00  0.00    +0.084 A 
ATOM      9  C   UNL A   1     -21.952   0.617  28.216  0.00  0.00    +0.027 A 
ATOM     10  C   UNL A   1     -21.868  -0.557  29.007  0.00  0.00    +0.101 A 
ATOM     11  N   UNL A   1     -22.892  -1.399  28.971  0.00  0.00    -0.226 NA
ATOM     12  C   UNL A   1     -24.133  -1.141  28.559  0.00  0.00    +0.170 A 
ATOM     13  N   UNL A   1     -25.041  -2.028  28.714  0.00  0.00    -0.107 NA
BRANCH   8  14
ATOM     14  C   UNL A   1     -23.424   2.380  27.161  0.00  0.00    +0.388 C 
ATOM     15  O   UNL A   1     -24.085   3.258  27.798  0.00  0.00    -0.241 OA
ATOM     16  O   UNL A   1     -23.213   2.546  25.839  0.00  0.00    -0.241 OA
ENDBRANCH   8  14
ENDBRANCH   4   7
BRANCH   2  17
ATOM     17  C   UNL A   1     -28.713   0.527  24.329  0.00  0.00    +0.269 C 
ATOM     18  O   UNL A   1     -28.381  -0.046  23.395  0.00  0.00    -0.268 OA
ATOM     19  N   UNL A   1     -29.867   1.192  24.485  0.00  0.00    -0.175 NA
BRANCH  19  20
ATOM     20  C   UNL A   1     -30.840   1.184  23.430  0.00  0.00    +0.074 A 
ATOM     21  C   UNL A   1     -31.596   0.483  23.134  0.00  0.00    +0.019 A 
ATOM     22  C   UNL A   1     -32.546   0.575  22.075  0.00  0.00    +0.031 A 
ATOM     23  C   UNL A   1     -30.629   2.430  22.642  0.00  0.00    +0.019 A 
ATOM     24  C   UNL A   1     -31.498   2.600  21.558  0.00  0.00    +0.031 A 
ATOM     25  C   UNL A   1     -32.399   1.670  21.264  0.00  0.00    +0.140 A 
ATOM     26  F   UNL A   1     -33.192   1.844  20.224  0.00  0.00    -0.204 F 
ENDBRANCH  19  20
ENDBRANCH   2  17
TORSDOF 4
ENDMDL
ENDMDL
