MODEL 394
MODEL 1
REMARK VINA RESULT:    -7.999      0.000      0.000
REMARK INTER + INTRA:         -12.372
REMARK INTER:                 -10.804
REMARK INTRA:                  -1.568
REMARK UNBOUND:                -1.568
REMARK  Name = No_394-gen_results/8p0m/2024-11-26-14-13-15/
REMARK  6 active torsions:
REMARK  status: ('A' for Active; 'I' for Inactive)
REMARK    1  A    between atoms: C_2  and  C_3
REMARK    2  A    between atoms: N_4  and  C_6
REMARK    3  A    between atoms: C_9  and  C_16
REMARK    4  A    between atoms: C_16  and  C_17
REMARK    5  A    between atoms: C_16  and  C_23
REMARK    6  A    between atoms: C_24  and  C_25
REMARK                            x       y       z     vdW  Elec       q    Type
REMARK                         _______ _______ _______ _____ _____    ______ ____
ROOT
ATOM      1  C   UNL A   1     -24.508   0.408  26.868  0.00  0.00    +0.055 A 
ATOM      2  C   UNL A   1     -24.598  -0.454  27.813  0.00  0.00    +0.001 A 
ATOM      3  C   UNL A   1     -23.389   1.463  27.005  0.00  0.00    +0.005 A 
ATOM      4  C   UNL A   1     -22.490   1.398  28.118  0.00  0.00    -0.000 A 
ATOM      5  C   UNL A   1     -23.651  -0.512  28.965  0.00  0.00    -0.014 A 
ATOM      6  C   UNL A   1     -22.651   0.390  29.087  0.00  0.00    -0.004 A 
ENDROOT
BRANCH   1   8
ATOM      7  O   UNL A   1     -24.904   0.565  24.742  0.00  0.00    -0.268 OA
ATOM      8  C   UNL A   1     -25.380   0.523  25.784  0.00  0.00    +0.269 C 
ATOM      9  N   UNL A   1     -26.711   0.591  26.008  0.00  0.00    -0.175 NA
BRANCH   9  10
ATOM     10  C   UNL A   1     -27.596   0.686  25.071  0.00  0.00    +0.074 A 
ATOM     11  C   UNL A   1     -28.240   0.071  24.450  0.00  0.00    +0.017 A 
ATOM     12  C   UNL A   1     -29.260   0.430  23.432  0.00  0.00    +0.001 A 
ATOM     13  C   UNL A   1     -29.482   1.829  23.300  0.00  0.00    +0.000 A 
ATOM     14  C   UNL A   1     -28.755   2.707  24.126  0.00  0.00    +0.001 A 
ATOM     15  C   UNL A   1     -27.922   2.284  25.061  0.00  0.00    +0.017 A 
ENDBRANCH   9  10
ENDBRANCH   1   8
BRANCH   5  16
ATOM     16  C   UNL A   1     -23.849  -1.544  30.026  0.00  0.00    +0.066 C 
BRANCH  16  17
ATOM     17  C   UNL A   1     -24.076  -1.125  31.226  0.00  0.00    -0.014 A 
ATOM     18  C   UNL A   1     -23.558  -1.269  32.286  0.00  0.00    -0.004 A 
ATOM     19  C   UNL A   1     -23.944  -0.748  33.602  0.00  0.00    -0.000 A 
ATOM     20  C   UNL A   1     -25.189  -0.171  33.675  0.00  0.00    -0.000 A 
ATOM     21  C   UNL A   1     -25.956  -0.021  32.566  0.00  0.00    -0.000 A 
ATOM     22  C   UNL A   1     -25.540  -0.485  31.336  0.00  0.00    -0.004 A 
ENDBRANCH  16  17
BRANCH  16  23
ATOM     23  C   UNL A   1     -23.900  -2.911  29.460  0.00  0.00    -0.018 C 
ATOM     24  C   UNL A   1     -23.868  -3.608  28.634  0.00  0.00    -0.004 C 
BRANCH  24  25
ATOM     25  C   UNL A   1     -24.243  -4.947  28.606  0.00  0.00    -0.000 C 
ATOM     26  C   UNL A   1     -25.356  -5.291  29.340  0.00  0.00    -0.000 C 
ENDBRANCH  24  25
ENDBRANCH  16  23
ENDBRANCH   5  16
TORSDOF 6
ENDMDL
ENDMDL
