REMARK  Name = No_395-gen_results/8p0m/2024-11-26-14-13-15/
REMARK  4 active torsions:
REMARK  status: ('A' for Active; 'I' for Inactive)
REMARK    1  A    between atoms: C_3  and  C_4
REMARK    2  A    between atoms: C_4  and  C_5
REMARK    3  A    between atoms: C_4  and  C_9
REMARK    4  A    between atoms: C_9  and  C_10
REMARK                            x       y       z     vdW  Elec       q    Type
REMARK                         _______ _______ _______ _____ _____    ______ ____
ROOT
ATOM      1  C   UNL A   1     -27.442   0.510  26.795  0.00  0.00    +0.027 C 
ENDROOT
BRANCH   1   4
ATOM      2  C   UNL A   1     -28.016  -0.814  28.878  0.00  0.00    -0.004 A 
ATOM      3  C   UNL A   1     -28.469  -0.785  29.829  0.00  0.00    -0.000 A 
ATOM      4  C   UNL A   1     -28.196   0.348  28.055  0.00  0.00    -0.022 A 
ATOM      5  C   UNL A   1     -29.496   0.109  30.345  0.00  0.00    -0.000 A 
ATOM      6  C   UNL A   1     -29.728   1.187  29.569  0.00  0.00    -0.000 A 
ATOM      7  C   UNL A   1     -29.042   1.367  28.372  0.00  0.00    -0.004 A 
ENDBRANCH   1   4
BRANCH   1   8
ATOM      8  C   UNL A   1     -27.843   1.333  25.806  0.00  0.00    +0.004 C 
ATOM      9  C   UNL A   1     -27.800   2.638  25.957  0.00  0.00    +0.000 C 
ATOM     10  C   UNL A   1     -28.413   0.723  24.662  0.00  0.00    +0.000 C 
ENDBRANCH   1   8
BRANCH   1  11
ATOM     11  C   UNL A   1     -26.128  -0.067  26.626  0.00  0.00    +0.031 C 
BRANCH  11  12
ATOM     12  C   UNL A   1     -25.247  -0.246  27.755  0.00  0.00    -0.022 A 
ATOM     13  C   UNL A   1     -24.704   0.731  28.550  0.00  0.00    -0.004 A 
ATOM     14  C   UNL A   1     -23.828   0.437  29.572  0.00  0.00    -0.000 A 
ATOM     15  C   UNL A   1     -23.539  -0.925  29.884  0.00  0.00    -0.000 A 
ATOM     16  C   UNL A   1     -24.814  -1.522  28.344  0.00  0.00    -0.004 A 
ATOM     17  C   UNL A   1     -24.058  -1.887  29.218  0.00  0.00    -0.000 A 
ENDBRANCH  11  12
ENDBRANCH   1  11
TORSDOF 4
