MODEL 3950
MODEL 1
REMARK VINA RESULT:    -7.332      0.000      0.000
REMARK INTER + INTRA:         -11.352
REMARK INTER:                  -9.476
REMARK INTRA:                  -1.876
REMARK UNBOUND:                -1.876
REMARK  Name = No_3950-gen_results/8p0m/2024-11-26-14-13-15/
REMARK  5 active torsions:
REMARK  status: ('A' for Active; 'I' for Inactive)
REMARK    1  A    between atoms: C_1  and  C_19
REMARK    2  A    between atoms: C_3  and  C_13
REMARK    3  A    between atoms: C_5  and  N_7
REMARK    4  A    between atoms: C_14  and  C_22
REMARK    5  A    between atoms: C_22  and  C_23
REMARK                            x       y       z     vdW  Elec       q    Type
REMARK                         _______ _______ _______ _____ _____    ______ ____
ROOT
ATOM      1  C   UNL A   1     -10.421   1.050  35.069  0.00  0.00    +0.081 A 
ATOM      2  C   UNL A   1     -10.838   0.572  36.099  0.00  0.00    +0.007 A 
ATOM      3  C   UNL A   1     -10.143  -0.361  36.844  0.00  0.00    +0.001 A 
ATOM      4  C   UNL A   1      -8.851  -0.748  36.391  0.00  0.00    +0.015 A 
ATOM      5  C   UNL A   1      -8.360  -0.062  35.333  0.00  0.00    +0.048 A 
ATOM      6  C   UNL A   1      -9.082   0.846  34.704  0.00  0.00    +0.021 A 
ENDROOT
BRANCH   5   7
ATOM      7  N   UNL A   1      -7.082  -0.423  34.921  0.00  0.00    -0.307 N 
ATOM      8  C   UNL A   1      -6.037   0.343  35.106  0.00  0.00    +0.091 C 
ATOM      9  C   UNL A   1      -4.860  -0.138  35.047  0.00  0.00    +0.021 C 
ATOM     10  C   UNL A   1      -6.832  -1.711  34.543  0.00  0.00    +0.091 C 
ATOM     11  C   UNL A   1      -5.557  -2.236  34.399  0.00  0.00    +0.021 C 
ATOM     12  C   UNL A   1      -4.539  -1.413  34.610  0.00  0.00    +0.004 C 
ENDBRANCH   5   7
BRANCH   3  13
ATOM     13  C   UNL A   1     -10.765  -1.088  38.028  0.00  0.00    -0.004 A 
ATOM     14  C   UNL A   1     -10.733  -0.355  39.255  0.00  0.00    -0.018 A 
ATOM     15  C   UNL A   1     -11.505  -0.934  40.281  0.00  0.00    -0.004 A 
ATOM     16  C   UNL A   1     -12.289  -2.087  40.066  0.00  0.00    -0.000 A 
ATOM     17  C   UNL A   1     -12.272  -2.690  38.846  0.00  0.00    -0.000 A 
ATOM     18  C   UNL A   1     -11.554  -2.183  37.814  0.00  0.00    -0.000 A 
BRANCH  14  19
ATOM     19  C   UNL A   1      -9.977   0.841  39.567  0.00  0.00    +0.052 C 
BRANCH  19  20
ATOM     20  C   UNL A   1      -8.597   0.775  39.715  0.00  0.00    -0.026 C 
ATOM     21  C   UNL A   1      -7.818   1.633  38.950  0.00  0.00    -0.030 C 
ATOM     22  C   UNL A   1      -6.422   1.540  38.976  0.00  0.00    +0.030 C 
ENDBRANCH  19  20
ENDBRANCH  14  19
ENDBRANCH   3  13
BRANCH   1  23
ATOM     23  C   UNL A   1     -11.181   2.131  34.350  0.00  0.00    +0.388 C 
ATOM     24  O   UNL A   1     -11.903   1.680  33.402  0.00  0.00    -0.241 OA
ATOM     25  O   UNL A   1     -11.094   3.322  34.570  0.00  0.00    -0.241 OA
ENDBRANCH   1  23
TORSDOF 5
ENDMDL
ENDMDL
