REMARK  Name = No_3950-gen_results/8p0m/2024-11-26-14-13-15/
REMARK  5 active torsions:
REMARK  status: ('A' for Active; 'I' for Inactive)
REMARK    1  A    between atoms: C_1  and  C_19
REMARK    2  A    between atoms: C_3  and  C_13
REMARK    3  A    between atoms: C_5  and  N_7
REMARK    4  A    between atoms: C_14  and  C_22
REMARK    5  A    between atoms: C_22  and  C_23
REMARK                            x       y       z     vdW  Elec       q    Type
REMARK                         _______ _______ _______ _____ _____    ______ ____
ROOT
ATOM      1  C   UNL A   1     -28.016  -0.814  28.878  0.00  0.00    +0.081 A 
ATOM      2  C   UNL A   1     -27.064  -0.119  28.608  0.00  0.00    +0.007 A 
ATOM      3  C   UNL A   1     -27.001   0.691  27.491  0.00  0.00    +0.001 A 
ATOM      4  C   UNL A   1     -28.137   0.736  26.635  0.00  0.00    +0.015 A 
ATOM      5  C   UNL A   1     -29.236   0.076  27.069  0.00  0.00    +0.048 A 
ATOM      6  C   UNL A   1     -29.218  -0.643  28.175  0.00  0.00    +0.021 A 
ENDROOT
BRANCH   5   7
ATOM      7  N   UNL A   1     -30.352   0.156  26.243  0.00  0.00    -0.307 N 
ATOM      8  C   UNL A   1     -30.269   0.123  24.937  0.00  0.00    +0.091 C 
ATOM      9  C   UNL A   1     -31.289  -0.153  24.227  0.00  0.00    +0.021 C 
ATOM     10  C   UNL A   1     -31.600   0.006  26.776  0.00  0.00    +0.091 C 
ATOM     11  C   UNL A   1     -32.738  -0.220  26.017  0.00  0.00    +0.021 C 
ATOM     12  C   UNL A   1     -32.588  -0.253  24.700  0.00  0.00    +0.004 C 
ENDBRANCH   5   7
BRANCH   3  13
ATOM     13  C   UNL A   1     -25.725   1.407  27.071  0.00  0.00    -0.004 A 
ATOM     14  C   UNL A   1     -25.166   2.257  28.076  0.00  0.00    -0.018 A 
ATOM     15  C   UNL A   1     -23.878   2.732  27.763  0.00  0.00    -0.004 A 
ATOM     16  C   UNL A   1     -23.195   2.327  26.596  0.00  0.00    -0.000 A 
ATOM     17  C   UNL A   1     -23.809   1.486  25.720  0.00  0.00    -0.000 A 
ATOM     18  C   UNL A   1     -25.046   0.989  25.962  0.00  0.00    -0.000 A 
BRANCH  14  19
ATOM     19  C   UNL A   1     -25.777   2.714  29.307  0.00  0.00    +0.052 C 
BRANCH  19  20
ATOM     20  C   UNL A   1     -26.460   3.924  29.340  0.00  0.00    -0.026 C 
ATOM     21  C   UNL A   1     -27.286   4.177  30.427  0.00  0.00    -0.030 C 
ATOM     22  C   UNL A   1     -28.080   5.329  30.464  0.00  0.00    +0.030 C 
ENDBRANCH  19  20
ENDBRANCH  14  19
ENDBRANCH   3  13
BRANCH   1  23
ATOM     23  C   UNL A   1     -28.065  -1.604  30.157  0.00  0.00    +0.388 C 
ATOM     24  O   UNL A   1     -27.409  -2.694  30.090  0.00  0.00    -0.241 OA
ATOM     25  O   UNL A   1     -28.704  -1.307  31.147  0.00  0.00    -0.241 OA
ENDBRANCH   1  23
TORSDOF 5
