REMARK  Name = No_3951-gen_results/8p0m/2024-11-26-14-13-15/
REMARK  6 active torsions:
REMARK  status: ('A' for Active; 'I' for Inactive)
REMARK    1  A    between atoms: C_2  and  C_8
REMARK    2  A    between atoms: C_8  and  C_9
REMARK    3  A    between atoms: C_9  and  C_12
REMARK    4  A    between atoms: C_10  and  C_11
REMARK    5  A    between atoms: C_11  and  C_14
REMARK    6  A    between atoms: C_12  and  C_13
REMARK                            x       y       z     vdW  Elec       q    Type
REMARK                         _______ _______ _______ _____ _____    ______ ____
ROOT
ATOM      1  C   UNL A   1     -25.237   1.009  30.052  0.00  0.00    -0.044 C 
ATOM      2  C   UNL A   1     -25.502   1.296  31.006  0.00  0.00    -0.034 C 
ENDROOT
BRANCH   1   3
ATOM      3  C   UNL A   1     -25.729  -0.204  29.399  0.00  0.00    +0.048 C 
BRANCH   3   5
ATOM      4  C   UNL A   1     -28.016  -0.814  28.878  0.00  0.00    -0.001 A 
ATOM      5  C   UNL A   1     -27.064  -0.119  28.608  0.00  0.00    -0.018 A 
ATOM      6  C   UNL A   1     -27.001   0.691  27.491  0.00  0.00    -0.001 A 
ATOM      7  C   UNL A   1     -28.137   0.736  26.635  0.00  0.00    +0.042 A 
ATOM      8  C   UNL A   1     -29.236   0.076  27.069  0.00  0.00    +0.196 A 
ATOM      9  C   UNL A   1     -29.218  -0.643  28.175  0.00  0.00    +0.042 A 
ATOM     10  O   UNL A   1     -30.342   0.162  26.279  0.00  0.00    -0.287 OA
ENDBRANCH   3   5
ENDBRANCH   1   3
BRANCH   2  11
ATOM     11  C   UNL A   1     -25.014   2.603  31.684  0.00  0.00    +0.027 C 
BRANCH  11  12
ATOM     12  C   UNL A   1     -25.804   3.583  31.793  0.00  0.00    +0.020 C 
ATOM     13  C   UNL A   1     -25.297   4.906  32.236  0.00  0.00    +0.072 C 
ATOM     14  N   UNL A   1     -25.979   6.073  32.148  0.00  0.00    -0.272 NA
ATOM     15  C   UNL A   1     -26.581   6.480  31.183  0.00  0.00    +0.072 C 
ATOM     16  C   UNL A   1     -27.169   5.357  30.417  0.00  0.00    +0.017 C 
ATOM     17  C   UNL A   1     -26.510   4.075  30.485  0.00  0.00    +0.003 C 
ATOM     18  C   UNL A   1     -25.314   7.285  33.012  0.00  0.00    +0.090 C 
ENDBRANCH  11  12
ENDBRANCH   2  11
BRANCH   1  19
ATOM     19  C   UNL A   1     -24.483   1.940  29.130  0.00  0.00    +0.022 C 
BRANCH  19  20
ATOM     20  C   UNL A   1     -23.858   1.509  27.910  0.00  0.00    +0.004 C 
ATOM     21  C   UNL A   1     -22.621   0.840  28.145  0.00  0.00    +0.000 C 
ATOM     22  C   UNL A   1     -24.210   1.878  26.674  0.00  0.00    +0.000 C 
ENDBRANCH  19  20
ENDBRANCH   1  19
TORSDOF 6
