MODEL 3951
MODEL 1
REMARK VINA RESULT:    -6.924      0.000      0.000
REMARK INTER + INTRA:         -10.829
REMARK INTER:                  -9.352
REMARK INTRA:                  -1.477
REMARK UNBOUND:                -1.477
REMARK  Name = No_3951-gen_results/8p0m/2024-11-26-14-13-15/
REMARK  6 active torsions:
REMARK  status: ('A' for Active; 'I' for Inactive)
REMARK    1  A    between atoms: C_2  and  C_8
REMARK    2  A    between atoms: C_8  and  C_9
REMARK    3  A    between atoms: C_9  and  C_12
REMARK    4  A    between atoms: C_10  and  C_11
REMARK    5  A    between atoms: C_11  and  C_14
REMARK    6  A    between atoms: C_12  and  C_13
REMARK                            x       y       z     vdW  Elec       q    Type
REMARK                         _______ _______ _______ _____ _____    ______ ____
ROOT
ATOM      1  C   UNL A   1     -24.955   0.135  26.394  0.00  0.00    -0.044 C 
ATOM      2  C   UNL A   1     -25.254  -0.602  27.049  0.00  0.00    -0.034 C 
ENDROOT
BRANCH   1   3
ATOM      3  C   UNL A   1     -25.344   0.181  24.984  0.00  0.00    +0.048 C 
BRANCH   3   5
ATOM      4  C   UNL A   1     -27.556  -0.408  24.187  0.00  0.00    -0.001 A 
ATOM      5  C   UNL A   1     -26.837   0.449  24.646  0.00  0.00    -0.018 A 
ATOM      6  C   UNL A   1     -27.208   1.775  24.764  0.00  0.00    -0.001 A 
ATOM      7  C   UNL A   1     -28.522   2.138  24.358  0.00  0.00    +0.042 A 
ATOM      8  C   UNL A   1     -29.342   1.118  24.013  0.00  0.00    +0.196 A 
ATOM      9  C   UNL A   1     -28.913  -0.128  23.967  0.00  0.00    +0.042 A 
ATOM     10  O   UNL A   1     -30.617   1.458  23.676  0.00  0.00    -0.287 OA
ENDBRANCH   3   5
ENDBRANCH   1   3
BRANCH   2  11
ATOM     11  C   UNL A   1     -24.877  -0.630  28.553  0.00  0.00    +0.027 C 
BRANCH  11  12
ATOM     12  C   UNL A   1     -24.856  -1.731  29.172  0.00  0.00    +0.020 C 
ATOM     13  C   UNL A   1     -26.115  -2.481  29.406  0.00  0.00    +0.072 C 
ATOM     14  N   UNL A   1     -26.191  -3.768  29.822  0.00  0.00    -0.272 NA
ATOM     15  C   UNL A   1     -25.563  -4.702  29.382  0.00  0.00    +0.072 C 
ATOM     16  C   UNL A   1     -24.216  -4.269  28.942  0.00  0.00    +0.017 C 
ATOM     17  C   UNL A   1     -24.054  -2.902  28.511  0.00  0.00    +0.003 C 
ATOM     18  C   UNL A   1     -27.682  -4.209  30.311  0.00  0.00    +0.090 C 
ENDBRANCH  11  12
ENDBRANCH   2  11
BRANCH   1  19
ATOM     19  C   UNL A   1     -24.263   1.388  26.881  0.00  0.00    +0.022 C 
BRANCH  19  20
ATOM     20  C   UNL A   1     -22.971   1.810  26.413  0.00  0.00    +0.004 C 
ATOM     21  C   UNL A   1     -21.975   1.724  27.429  0.00  0.00    +0.000 C 
ATOM     22  C   UNL A   1     -22.722   2.449  25.265  0.00  0.00    +0.000 C 
ENDBRANCH  19  20
ENDBRANCH   1  19
TORSDOF 6
ENDMDL
ENDMDL
