MODEL 3953
MODEL 1
REMARK VINA RESULT:    -5.688      0.000      0.000
REMARK INTER + INTRA:          -6.592
REMARK INTER:                  -6.353
REMARK INTRA:                  -0.239
REMARK UNBOUND:                -0.239
REMARK  Name = No_3953-gen_results/8p0m/2024-11-26-14-13-15/
REMARK  2 active torsions:
REMARK  status: ('A' for Active; 'I' for Inactive)
REMARK    1  A    between atoms: C_4  and  C_6
REMARK    2  A    between atoms: C_6  and  C_9
REMARK                            x       y       z     vdW  Elec       q    Type
REMARK                         _______ _______ _______ _____ _____    ______ ____
ROOT
ATOM      1  C   UNL A   1     -24.224  -5.015  28.671  0.00  0.00    -0.000 A 
ATOM      2  C   UNL A   1     -25.168  -5.302  29.040  0.00  0.00    -0.000 A 
ATOM      3  C   UNL A   1     -23.854  -3.657  28.794  0.00  0.00    -0.003 A 
ATOM      4  C   UNL A   1     -24.692  -2.720  29.365  0.00  0.00    -0.001 A 
ATOM      5  C   UNL A   1     -26.236  -4.515  29.687  0.00  0.00    -0.000 A 
ATOM      6  C   UNL A   1     -25.913  -3.192  29.830  0.00  0.00    -0.003 A 
ENDROOT
BRANCH   4   7
ATOM      7  C   UNL A   1     -24.361  -1.312  29.527  0.00  0.00    +0.136 C 
ATOM      8  N   UNL A   1     -25.020  -0.535  30.020  0.00  0.00    -0.123 NA
BRANCH   7   9
ATOM      9  C   UNL A   1     -23.087  -0.841  28.962  0.00  0.00    -0.008 C 
ATOM     10  C   UNL A   1     -22.140  -0.599  29.303  0.00  0.00    -0.029 C 
ATOM     11  C   UNL A   1     -20.981  -0.050  28.554  0.00  0.00    +0.030 C 
ENDBRANCH   7   9
ENDBRANCH   4   7
TORSDOF 2
ENDMDL
ENDMDL
