REMARK  Name = No_3953-gen_results/8p0m/2024-11-26-14-13-15/
REMARK  2 active torsions:
REMARK  status: ('A' for Active; 'I' for Inactive)
REMARK    1  A    between atoms: C_4  and  C_6
REMARK    2  A    between atoms: C_6  and  C_9
REMARK                            x       y       z     vdW  Elec       q    Type
REMARK                         _______ _______ _______ _____ _____    ______ ____
ROOT
ATOM      1  C   UNL A   1     -28.016  -0.814  28.878  0.00  0.00    -0.000 A 
ATOM      2  C   UNL A   1     -28.469  -0.785  29.829  0.00  0.00    -0.000 A 
ATOM      3  C   UNL A   1     -27.136   0.236  28.535  0.00  0.00    -0.003 A 
ATOM      4  C   UNL A   1     -26.875   1.282  29.398  0.00  0.00    -0.001 A 
ATOM      5  C   UNL A   1     -28.361   0.199  30.924  0.00  0.00    -0.000 A 
ATOM      6  C   UNL A   1     -27.512   1.232  30.632  0.00  0.00    -0.003 A 
ENDROOT
BRANCH   4   7
ATOM      7  C   UNL A   1     -25.972   2.385  29.104  0.00  0.00    +0.136 C 
ATOM      8  N   UNL A   1     -25.630   3.170  29.844  0.00  0.00    -0.123 NA
BRANCH   7   9
ATOM      9  C   UNL A   1     -25.498   2.527  27.718  0.00  0.00    -0.008 C 
ATOM     10  C   UNL A   1     -24.741   2.146  27.124  0.00  0.00    -0.029 C 
ATOM     11  C   UNL A   1     -24.376   2.491  25.726  0.00  0.00    +0.030 C 
ENDBRANCH   7   9
ENDBRANCH   4   7
TORSDOF 2
