REMARK  Name = No_3954-gen_results/8p0m/2024-11-26-14-13-15/
REMARK  3 active torsions:
REMARK  status: ('A' for Active; 'I' for Inactive)
REMARK    1  A    between atoms: C_6  and  O_8
REMARK    2  A    between atoms: O_8  and  C_9
REMARK    3  A    between atoms: C_9  and  C_10
REMARK                            x       y       z     vdW  Elec       q    Type
REMARK                         _______ _______ _______ _____ _____    ______ ____
ROOT
ATOM      1  C   UNL A   1     -31.083  -2.771  30.268  0.00  0.00    +0.021 A 
ATOM      2  C   UNL A   1     -31.085  -4.039  29.787  0.00  0.00    -0.001 A 
ATOM      3  C   UNL A   1     -32.022  -4.466  28.846  0.00  0.00    -0.000 A 
ATOM      4  C   UNL A   1     -32.376  -2.150  30.162  0.00  0.00    -0.001 A 
ATOM      5  C   UNL A   1     -33.432  -2.640  29.437  0.00  0.00    -0.000 A 
ATOM      6  C   UNL A   1     -33.253  -3.884  28.780  0.00  0.00    -0.000 A 
ATOM      7  C   UNL A   1     -34.334  -4.501  28.020  0.00  0.00    -0.000 A 
ATOM      8  C   UNL A   1     -34.250  -5.336  27.281  0.00  0.00    -0.000 A 
ATOM      9  C   UNL A   1     -32.853  -5.945  27.071  0.00  0.00    -0.000 A 
ATOM     10  C   UNL A   1     -31.829  -5.669  28.000  0.00  0.00    -0.000 A 
ENDROOT
BRANCH   1  11
ATOM     11  C   UNL A   1     -30.011  -2.201  30.667  0.00  0.00    +0.232 C 
BRANCH  11  12
ATOM     12  O   UNL A   1     -28.927  -2.755  30.120  0.00  0.00    -0.471 OA
BRANCH  12  18
ATOM     13  C   UNL A   1     -28.016  -0.814  28.878  0.00  0.00    +0.039 A 
ATOM     14  C   UNL A   1     -27.064  -0.119  28.608  0.00  0.00    +0.033 A 
ATOM     15  C   UNL A   1     -25.765  -0.390  29.036  0.00  0.00    +0.140 A 
ATOM     16  C   UNL A   1     -25.530  -1.530  29.901  0.00  0.00    +0.033 A 
ATOM     17  C   UNL A   1     -26.658  -2.292  30.203  0.00  0.00    +0.039 A 
ATOM     18  C   UNL A   1     -27.855  -1.956  29.763  0.00  0.00    +0.139 A 
ATOM     19  F   UNL A   1     -24.695   0.352  28.782  0.00  0.00    -0.204 F 
ENDBRANCH  12  18
ENDBRANCH  11  12
ENDBRANCH   1  11
TORSDOF 3
