MODEL 3954
MODEL 1
REMARK VINA RESULT:    -6.897      0.000      0.000
REMARK INTER + INTRA:          -8.653
REMARK INTER:                  -8.106
REMARK INTRA:                  -0.547
REMARK UNBOUND:                -0.547
REMARK  Name = No_3954-gen_results/8p0m/2024-11-26-14-13-15/
REMARK  3 active torsions:
REMARK  status: ('A' for Active; 'I' for Inactive)
REMARK    1  A    between atoms: C_6  and  O_8
REMARK    2  A    between atoms: O_8  and  C_9
REMARK    3  A    between atoms: C_9  and  C_10
REMARK                            x       y       z     vdW  Elec       q    Type
REMARK                         _______ _______ _______ _____ _____    ______ ____
ROOT
ATOM      1  C   UNL A   1      -9.197   0.133  36.873  0.00  0.00    +0.021 A 
ATOM      2  C   UNL A   1      -9.932  -1.006  36.864  0.00  0.00    -0.001 A 
ATOM      3  C   UNL A   1     -10.684  -1.404  37.969  0.00  0.00    -0.000 A 
ATOM      4  C   UNL A   1      -8.841   0.537  38.206  0.00  0.00    -0.001 A 
ATOM      5  C   UNL A   1      -9.374   0.019  39.359  0.00  0.00    -0.000 A 
ATOM      6  C   UNL A   1     -10.315  -1.034  39.228  0.00  0.00    -0.000 A 
ATOM      7  C   UNL A   1     -10.903  -1.673  40.400  0.00  0.00    -0.000 A 
ATOM      8  C   UNL A   1     -11.807  -2.331  40.429  0.00  0.00    -0.000 A 
ATOM      9  C   UNL A   1     -12.483  -2.648  39.084  0.00  0.00    -0.000 A 
ATOM     10  C   UNL A   1     -11.797  -2.380  37.882  0.00  0.00    -0.000 A 
ENDROOT
BRANCH   1  11
ATOM     11  C   UNL A   1      -8.957   0.791  35.804  0.00  0.00    +0.232 C 
BRANCH  11  12
ATOM     12  O   UNL A   1      -8.525  -0.004  34.823  0.00  0.00    -0.471 OA
BRANCH  12  18
ATOM     13  C   UNL A   1      -6.105   0.405  35.161  0.00  0.00    +0.039 A 
ATOM     14  C   UNL A   1      -4.981  -0.038  35.195  0.00  0.00    +0.033 A 
ATOM     15  C   UNL A   1      -4.659  -1.353  34.861  0.00  0.00    +0.140 A 
ATOM     16  C   UNL A   1      -5.724  -2.271  34.505  0.00  0.00    +0.033 A 
ATOM     17  C   UNL A   1      -7.006  -1.724  34.498  0.00  0.00    +0.039 A 
ATOM     18  C   UNL A   1      -7.222  -0.468  34.840  0.00  0.00    +0.139 A 
ATOM     19  F   UNL A   1      -3.446  -1.889  34.901  0.00  0.00    -0.204 F 
ENDBRANCH  12  18
ENDBRANCH  11  12
ENDBRANCH   1  11
TORSDOF 3
ENDMDL
ENDMDL
