MODEL 3955
MODEL 1
REMARK VINA RESULT:    -6.481      0.000      0.000
REMARK INTER + INTRA:          -7.177
REMARK INTER:                  -6.860
REMARK INTRA:                  -0.317
REMARK UNBOUND:                -0.317
REMARK  Name = No_3955-gen_results/8p0m/2024-11-26-14-13-15/
REMARK  1 active torsions:
REMARK  status: ('A' for Active; 'I' for Inactive)
REMARK    1  A    between atoms: C_3  and  C_7
REMARK                            x       y       z     vdW  Elec       q    Type
REMARK                         _______ _______ _______ _____ _____    ______ ____
ROOT
ATOM      1  C   UNL A   1     -26.530  -3.567  29.971  0.00  0.00    +0.000 A 
ATOM      2  C   UNL A   1     -25.864  -2.587  29.726  0.00  0.00    +0.000 A 
ATOM      3  C   UNL A   1     -24.642  -2.633  29.058  0.00  0.00    +0.000 A 
ATOM      4  C   UNL A   1     -24.092  -3.920  28.678  0.00  0.00    +0.000 A 
ATOM      5  C   UNL A   1     -24.920  -5.018  29.004  0.00  0.00    +0.000 A 
ATOM      6  C   UNL A   1     -26.055  -4.877  29.641  0.00  0.00    +0.000 A 
ENDROOT
BRANCH   3   7
ATOM      7  C   UNL A   1     -23.778  -1.473  28.714  0.00  0.00    +0.000 A 
ATOM      8  C   UNL A   1     -22.613  -1.289  29.281  0.00  0.00    +0.000 A 
ATOM      9  C   UNL A   1     -21.826  -0.127  28.986  0.00  0.00    +0.000 A 
ATOM     10  C   UNL A   1     -22.285   0.907  28.235  0.00  0.00    +0.000 A 
ATOM     11  C   UNL A   1     -24.298  -0.385  27.908  0.00  0.00    +0.000 A 
ATOM     12  C   UNL A   1     -23.530   0.789  27.683  0.00  0.00    +0.000 A 
ENDBRANCH   3   7
TORSDOF 1
ENDMDL
ENDMDL
