MODEL 3956
MODEL 1
REMARK VINA RESULT:    -6.256      0.000      0.000
REMARK INTER + INTRA:          -7.788
REMARK INTER:                  -7.353
REMARK INTRA:                  -0.436
REMARK UNBOUND:                -0.436
REMARK  Name = No_3956-gen_results/8p0m/2024-11-26-14-13-15/
REMARK  3 active torsions:
REMARK  status: ('A' for Active; 'I' for Inactive)
REMARK    1  A    between atoms: C_2  and  O_12
REMARK    2  A    between atoms: C_4  and  C_6
REMARK    3  A    between atoms: O_12  and  C_13
REMARK                            x       y       z     vdW  Elec       q    Type
REMARK                         _______ _______ _______ _____ _____    ______ ____
ROOT
ATOM      1  C   UNL A   1     -22.377   0.025  29.135  0.00  0.00    +0.174 A 
ATOM      2  C   UNL A   1     -23.403  -0.247  28.555  0.00  0.00    +0.173 A 
ATOM      3  C   UNL A   1     -23.858   0.437  27.445  0.00  0.00    +0.044 A 
ATOM      4  C   UNL A   1     -23.001   1.317  26.905  0.00  0.00    +0.075 A 
ATOM      5  C   UNL A   1     -21.349   0.712  28.456  0.00  0.00    +0.033 A 
ATOM      6  C   UNL A   1     -21.738   1.468  27.405  0.00  0.00    +0.006 A 
ATOM      7  F   UNL A   1     -21.986  -0.751  30.229  0.00  0.00    -0.201 F 
ENDROOT
BRANCH   4   8
ATOM      8  C   UNL A   1     -23.374   2.058  25.750  0.00  0.00    +0.419 C 
ATOM      9  F   UNL A   1     -24.091   3.085  25.808  0.00  0.00    -0.166 F 
ATOM     10  F   UNL A   1     -24.109   1.257  24.851  0.00  0.00    -0.166 F 
ATOM     11  F   UNL A   1     -22.240   2.422  24.986  0.00  0.00    -0.166 F 
ENDBRANCH   4   8
BRANCH   2  12
ATOM     12  O   UNL A   1     -24.436  -1.115  29.145  0.00  0.00    -0.449 OA
BRANCH  12  13
ATOM     13  C   UNL A   1     -24.592  -2.378  28.883  0.00  0.00    +0.175 C 
ATOM     14  C   UNL A   1     -23.949  -3.254  28.974  0.00  0.00    +0.015 C 
ATOM     15  C   UNL A   1     -24.176  -4.672  28.523  0.00  0.00    +0.034 C 
ENDBRANCH  12  13
ENDBRANCH   2  12
TORSDOF 3
ENDMDL
ENDMDL
