REMARK  Name = No_3956-gen_results/8p0m/2024-11-26-14-13-15/
REMARK  3 active torsions:
REMARK  status: ('A' for Active; 'I' for Inactive)
REMARK    1  A    between atoms: C_2  and  O_12
REMARK    2  A    between atoms: C_4  and  C_6
REMARK    3  A    between atoms: O_12  and  C_13
REMARK                            x       y       z     vdW  Elec       q    Type
REMARK                         _______ _______ _______ _____ _____    ______ ____
ROOT
ATOM      1  C   UNL A   1     -28.016  -0.814  28.878  0.00  0.00    +0.174 A 
ATOM      2  C   UNL A   1     -27.064  -0.119  28.608  0.00  0.00    +0.173 A 
ATOM      3  C   UNL A   1     -27.001   0.691  27.491  0.00  0.00    +0.044 A 
ATOM      4  C   UNL A   1     -28.142   0.828  26.799  0.00  0.00    +0.075 A 
ATOM      5  C   UNL A   1     -29.290  -0.487  28.366  0.00  0.00    +0.033 A 
ATOM      6  C   UNL A   1     -29.299   0.238  27.225  0.00  0.00    +0.006 A 
ATOM      7  F   UNL A   1     -27.996  -1.572  30.051  0.00  0.00    -0.201 F 
ENDROOT
BRANCH   4   8
ATOM      8  C   UNL A   1     -28.180   1.655  25.643  0.00  0.00    +0.419 C 
ATOM      9  F   UNL A   1     -27.170   1.867  24.930  0.00  0.00    -0.166 F 
ATOM     10  F   UNL A   1     -28.566   2.970  25.975  0.00  0.00    -0.166 F 
ATOM     11  F   UNL A   1     -29.201   1.246  24.753  0.00  0.00    -0.166 F 
ENDBRANCH   4   8
BRANCH   2  12
ATOM     12  O   UNL A   1     -25.751  -0.297  29.250  0.00  0.00    -0.449 OA
BRANCH  12  13
ATOM     13  C   UNL A   1     -25.183   0.561  30.044  0.00  0.00    +0.175 C 
ATOM     14  C   UNL A   1     -25.185   0.706  31.125  0.00  0.00    +0.015 C 
ATOM     15  C   UNL A   1     -24.592   1.815  31.953  0.00  0.00    +0.034 C 
ENDBRANCH  12  13
ENDBRANCH   2  12
TORSDOF 3
