MODEL 3957
MODEL 1
REMARK VINA RESULT:    -5.765      0.000      0.000
REMARK INTER + INTRA:          -5.765
REMARK INTER:                  -5.765
REMARK INTRA:                   0.000
REMARK UNBOUND:                 0.000
REMARK  Name = No_3957-gen_results/8p0m/2024-11-26-14-13-15/
REMARK  0 active torsions:
REMARK  status: ('A' for Active; 'I' for Inactive)
REMARK                            x       y       z     vdW  Elec       q    Type
REMARK                         _______ _______ _______ _____ _____    ______ ____
ROOT
ATOM      1  C   UNL A   1     -26.269  -4.584  29.668  0.00  0.00    +0.030 A 
ATOM      2  C   UNL A   1     -26.383  -3.553  29.853  0.00  0.00    +0.002 A 
ATOM      3  C   UNL A   1     -25.080  -5.014  29.039  0.00  0.00    +0.140 A 
ATOM      4  C   UNL A   1     -24.093  -4.126  28.658  0.00  0.00    +0.030 A 
ATOM      5  C   UNL A   1     -25.495  -2.412  29.556  0.00  0.00    +0.000 A 
ATOM      6  C   UNL A   1     -24.344  -2.779  28.951  0.00  0.00    +0.002 A 
ATOM      7  F   UNL A   1     -24.840  -6.318  28.798  0.00  0.00    -0.204 F 
ATOM      8  C   UNL A   1     -25.792  -0.995  29.888  0.00  0.00    +0.000 A 
ATOM      9  C   UNL A   1     -24.809  -0.243  30.064  0.00  0.00    +0.000 A 
ATOM     10  C   UNL A   1     -23.482  -0.548  29.383  0.00  0.00    +0.000 A 
ATOM     11  C   UNL A   1     -23.199  -1.843  29.000  0.00  0.00    +0.000 A 
ENDROOT
TORSDOF 0
ENDMDL
ENDMDL
