MODEL 3958
MODEL 1
REMARK VINA RESULT:    -6.452      0.000      0.000
REMARK INTER + INTRA:          -7.172
REMARK INTER:                  -6.829
REMARK INTRA:                  -0.343
REMARK UNBOUND:                -0.343
REMARK  Name = No_3958-gen_results/8p0m/2024-11-26-14-13-15/
REMARK  1 active torsions:
REMARK  status: ('A' for Active; 'I' for Inactive)
REMARK    1  A    between atoms: C_3  and  C_4
REMARK                            x       y       z     vdW  Elec       q    Type
REMARK                         _______ _______ _______ _____ _____    ______ ____
ROOT
ATOM      1  C   UNL A   1     -23.742   0.699  27.649  0.00  0.00    +0.000 A 
ATOM      2  C   UNL A   1     -24.374  -0.324  27.776  0.00  0.00    +0.000 A 
ATOM      3  C   UNL A   1     -23.934  -1.341  28.617  0.00  0.00    +0.000 A 
ATOM      4  C   UNL A   1     -22.392   0.858  28.174  0.00  0.00    +0.000 A 
ATOM      5  C   UNL A   1     -21.912  -0.043  29.104  0.00  0.00    +0.000 A 
ATOM      6  C   UNL A   1     -22.657  -1.216  29.303  0.00  0.00    +0.000 A 
ENDROOT
BRANCH   3   7
ATOM      7  C   UNL A   1     -24.614  -2.647  28.850  0.00  0.00    +0.000 A 
ATOM      8  C   UNL A   1     -25.860  -2.587  29.541  0.00  0.00    +0.000 A 
ATOM      9  C   UNL A   1     -26.551  -3.758  29.847  0.00  0.00    +0.000 A 
ATOM     10  C   UNL A   1     -25.895  -4.980  29.584  0.00  0.00    +0.000 A 
ATOM     11  C   UNL A   1     -24.694  -5.049  28.940  0.00  0.00    +0.000 A 
ATOM     12  C   UNL A   1     -23.988  -3.836  28.590  0.00  0.00    +0.000 A 
ENDBRANCH   3   7
TORSDOF 1
ENDMDL
ENDMDL
