REMARK  Name = No_3959-gen_results/8p0m/2024-11-26-14-13-15/
REMARK  6 active torsions:
REMARK  status: ('A' for Active; 'I' for Inactive)
REMARK    1  A    between atoms: C_4  and  C_9
REMARK    2  A    between atoms: C_9  and  C_12
REMARK    3  A    between atoms: C_12  and  C_13
REMARK    4  A    between atoms: C_13  and  C_14
REMARK    5  A    between atoms: C_15  and  C_16
REMARK    6  A    between atoms: C_17  and  C_18
REMARK                            x       y       z     vdW  Elec       q    Type
REMARK                         _______ _______ _______ _____ _____    ______ ____
ROOT
ATOM      1  C   UNL A   1     -29.200   2.487  27.497  0.00  0.00    +0.020 C 
ATOM      2  C   UNL A   1     -29.943   2.442  26.311  0.00  0.00    +0.004 C 
ATOM      3  C   UNL A   1     -29.571   3.722  28.278  0.00  0.00    +0.004 C 
ENDROOT
BRANCH   1   7
ATOM      4  C   UNL A   1     -28.016  -0.814  28.878  0.00  0.00    +0.012 A 
ATOM      5  C   UNL A   1     -28.469  -0.785  29.829  0.00  0.00    +0.012 A 
ATOM      6  C   UNL A   1     -28.196   0.348  28.055  0.00  0.00    +0.054 A 
ATOM      7  C   UNL A   1     -29.019   1.350  28.378  0.00  0.00    -0.011 A 
ATOM      8  C   UNL A   1     -29.411   0.180  30.378  0.00  0.00    +0.057 A 
ATOM      9  C   UNL A   1     -29.606   1.250  29.619  0.00  0.00    +0.008 A 
ATOM     10 CL   UNL A   1     -27.347   0.376  26.515  0.00  0.00    -0.083 Cl
ATOM     11 CL   UNL A   1     -30.239   0.017  31.920  0.00  0.00    -0.082 Cl
ENDBRANCH   1   7
BRANCH   1  12
ATOM     12  C   UNL A   1     -27.727   3.060  27.008  0.00  0.00    +0.009 C 
BRANCH  12  13
ATOM     13  C   UNL A   1     -26.747   3.263  28.001  0.00  0.00    +0.026 C 
BRANCH  13  14
ATOM     14  C   UNL A   1     -25.346   3.326  27.636  0.00  0.00    -0.026 C 
ATOM     15  C   UNL A   1     -24.415   2.491  28.273  0.00  0.00    -0.005 C 
BRANCH  15  16
ATOM     16  C   UNL A   1     -23.154   2.304  27.608  0.00  0.00    -0.000 C 
ATOM     17  C   UNL A   1     -22.150   1.504  28.271  0.00  0.00    -0.000 C 
BRANCH  17  18
ATOM     18  C   UNL A   1     -22.489   0.790  29.409  0.00  0.00    -0.000 C 
ATOM     19  C   UNL A   1     -23.741   0.909  30.023  0.00  0.00    -0.000 C 
ENDBRANCH  17  18
ENDBRANCH  15  16
ENDBRANCH  13  14
ENDBRANCH  12  13
ENDBRANCH   1  12
TORSDOF 6
