MODEL 3959
MODEL 1
REMARK VINA RESULT:    -6.248      0.000      0.000
REMARK INTER + INTRA:          -8.817
REMARK INTER:                  -8.440
REMARK INTRA:                  -0.377
REMARK UNBOUND:                -0.377
REMARK  Name = No_3959-gen_results/8p0m/2024-11-26-14-13-15/
REMARK  6 active torsions:
REMARK  status: ('A' for Active; 'I' for Inactive)
REMARK    1  A    between atoms: C_4  and  C_9
REMARK    2  A    between atoms: C_9  and  C_12
REMARK    3  A    between atoms: C_12  and  C_13
REMARK    4  A    between atoms: C_13  and  C_14
REMARK    5  A    between atoms: C_15  and  C_16
REMARK    6  A    between atoms: C_17  and  C_18
REMARK                            x       y       z     vdW  Elec       q    Type
REMARK                         _______ _______ _______ _____ _____    ______ ____
ROOT
ATOM      1  C   UNL A   1     -24.694   0.816  26.222  0.00  0.00    +0.020 C 
ATOM      2  C   UNL A   1     -23.876   1.721  25.536  0.00  0.00    +0.004 C 
ATOM      3  C   UNL A   1     -25.471  -0.014  25.232  0.00  0.00    +0.004 C 
ENDROOT
BRANCH   1   7
ATOM      4  C   UNL A   1     -22.679  -0.425  29.156  0.00  0.00    +0.012 A 
ATOM      5  C   UNL A   1     -23.266  -1.252  29.441  0.00  0.00    +0.012 A 
ATOM      6  C   UNL A   1     -23.185   0.365  28.070  0.00  0.00    +0.054 A 
ATOM      7  C   UNL A   1     -24.242   0.006  27.336  0.00  0.00    -0.011 A 
ATOM      8  C   UNL A   1     -24.427  -1.836  28.785  0.00  0.00    +0.057 A 
ATOM      9  C   UNL A   1     -24.894  -1.129  27.764  0.00  0.00    +0.008 A 
ATOM     10 CL   UNL A   1     -22.289   1.822  27.657  0.00  0.00    -0.083 Cl
ATOM     11 CL   UNL A   1     -25.211  -3.334  29.265  0.00  0.00    -0.082 Cl
ENDBRANCH   1   7
BRANCH   1  12
ATOM     12  C   UNL A   1     -25.986   1.739  26.686  0.00  0.00    +0.009 C 
BRANCH  12  13
ATOM     13  C   UNL A   1     -26.322   2.841  25.873  0.00  0.00    +0.026 C 
BRANCH  13  14
ATOM     14  C   UNL A   1     -27.661   2.964  25.333  0.00  0.00    -0.026 C 
ATOM     15  C   UNL A   1     -27.940   2.508  24.035  0.00  0.00    -0.005 C 
BRANCH  15  16
ATOM     16  C   UNL A   1     -29.323   2.281  23.714  0.00  0.00    -0.000 C 
ATOM     17  C   UNL A   1     -29.720   0.946  23.332  0.00  0.00    -0.000 C 
BRANCH  17  18
ATOM     18  C   UNL A   1     -28.822  -0.100  23.475  0.00  0.00    -0.000 C 
ATOM     19  C   UNL A   1     -29.230  -1.438  23.521  0.00  0.00    -0.000 C 
ENDBRANCH  17  18
ENDBRANCH  15  16
ENDBRANCH  13  14
ENDBRANCH  12  13
ENDBRANCH   1  12
TORSDOF 6
ENDMDL
ENDMDL
