MODEL 395
MODEL 1
REMARK VINA RESULT:    -7.389      0.000      0.000
REMARK INTER + INTRA:         -10.380
REMARK INTER:                  -9.117
REMARK INTRA:                  -1.264
REMARK UNBOUND:                -1.264
REMARK  Name = No_395-gen_results/8p0m/2024-11-26-14-13-15/
REMARK  4 active torsions:
REMARK  status: ('A' for Active; 'I' for Inactive)
REMARK    1  A    between atoms: C_3  and  C_4
REMARK    2  A    between atoms: C_4  and  C_5
REMARK    3  A    between atoms: C_4  and  C_9
REMARK    4  A    between atoms: C_9  and  C_10
REMARK                            x       y       z     vdW  Elec       q    Type
REMARK                         _______ _______ _______ _____ _____    ______ ____
ROOT
ATOM      1  C   UNL A   1     -24.020  -0.410  29.905  0.00  0.00    +0.027 C 
ENDROOT
BRANCH   1   4
ATOM      2  C   UNL A   1     -23.403   1.288  28.127  0.00  0.00    -0.004 A 
ATOM      3  C   UNL A   1     -22.614   1.783  27.635  0.00  0.00    -0.000 A 
ATOM      4  C   UNL A   1     -23.028   0.218  29.008  0.00  0.00    -0.022 A 
ATOM      5  C   UNL A   1     -21.225   1.383  27.465  0.00  0.00    -0.000 A 
ATOM      6  C   UNL A   1     -20.852   0.346  28.241  0.00  0.00    -0.000 A 
ATOM      7  C   UNL A   1     -21.762  -0.275  29.091  0.00  0.00    -0.004 A 
ENDBRANCH   1   4
BRANCH   1   8
ATOM      8  C   UNL A   1     -24.008  -0.236  31.241  0.00  0.00    +0.004 C 
ATOM      9  C   UNL A   1     -23.654  -1.215  32.044  0.00  0.00    +0.000 C 
ATOM     10  C   UNL A   1     -24.501   0.999  31.727  0.00  0.00    +0.000 C 
ENDBRANCH   1   8
BRANCH   1  11
ATOM     11  C   UNL A   1     -25.177  -1.099  29.380  0.00  0.00    +0.031 C 
BRANCH  11  12
ATOM     12  C   UNL A   1     -25.206  -2.540  29.300  0.00  0.00    -0.022 A 
ATOM     13  C   UNL A   1     -26.208  -3.377  29.722  0.00  0.00    -0.004 A 
ATOM     14  C   UNL A   1     -26.097  -4.748  29.640  0.00  0.00    -0.000 A 
ATOM     15  C   UNL A   1     -24.952  -5.327  29.017  0.00  0.00    -0.000 A 
ATOM     16  C   UNL A   1     -24.203  -3.411  28.669  0.00  0.00    -0.004 A 
ATOM     17  C   UNL A   1     -24.007  -4.601  28.549  0.00  0.00    -0.000 A 
ENDBRANCH  11  12
ENDBRANCH   1  11
TORSDOF 4
ENDMDL
ENDMDL
