REMARK  Name = No_396-gen_results/8p0m/2024-11-26-14-13-15/
REMARK  5 active torsions:
REMARK  status: ('A' for Active; 'I' for Inactive)
REMARK    1  A    between atoms: C_1  and  C_2
REMARK    2  A    between atoms: C_1  and  C_8
REMARK    3  A    between atoms: C_5  and  C_15
REMARK    4  A    between atoms: C_8  and  C_9
REMARK    5  A    between atoms: C_13  and  C_18
REMARK                            x       y       z     vdW  Elec       q    Type
REMARK                         _______ _______ _______ _____ _____    ______ ____
ROOT
ATOM      1  C   UNL A   1     -28.712  -0.463  30.169  0.00  0.00    +0.031 C 
ENDROOT
BRANCH   1   2
ATOM      2  C   UNL A   1     -28.779   0.607  30.530  0.00  0.00    -0.022 A 
ATOM      3  C   UNL A   1     -29.540   0.959  31.827  0.00  0.00    -0.004 A 
ATOM      4  C   UNL A   1     -29.619   2.276  32.351  0.00  0.00    -0.000 A 
ATOM      5  C   UNL A   1     -28.950   3.276  31.569  0.00  0.00    +0.004 A 
ATOM      6  C   UNL A   1     -28.215   2.986  30.438  0.00  0.00    +0.055 A 
ATOM      7  C   UNL A   1     -28.103   1.727  29.996  0.00  0.00    +0.000 A 
BRANCH   6   8
ATOM      8  C   UNL A   1     -27.482   4.156  29.804  0.00  0.00    +0.265 C 
ATOM      9  N   UNL A   1     -26.563   4.694  30.278  0.00  0.00    -0.200 NA
ATOM     10  O   UNL A   1     -27.898   4.456  28.605  0.00  0.00    -0.268 OA
ATOM     11  C   UNL A   1     -25.770   5.776  29.647  0.00  0.00    +0.139 C 
ENDBRANCH   6   8
ENDBRANCH   1   2
BRANCH   1  12
ATOM     12  C   UNL A   1     -28.016  -0.814  28.878  0.00  0.00    +0.031 C 
BRANCH  12  13
ATOM     13  C   UNL A   1     -27.064  -0.119  28.608  0.00  0.00    -0.022 A 
ATOM     14  C   UNL A   1     -27.001   0.691  27.491  0.00  0.00    -0.004 A 
ATOM     15  C   UNL A   1     -25.855   1.482  27.083  0.00  0.00    +0.004 A 
ATOM     16  C   UNL A   1     -24.690   1.453  27.881  0.00  0.00    +0.057 A 
ATOM     17  C   UNL A   1     -24.738   0.601  29.042  0.00  0.00    +0.004 A 
ATOM     18  C   UNL A   1     -25.823  -0.169  29.389  0.00  0.00    -0.004 A 
BRANCH  16  19
ATOM     19  C   UNL A   1     -23.445   2.102  27.515  0.00  0.00    +0.284 C 
ATOM     20  N   UNL A   1     -22.290   1.637  27.983  0.00  0.00    -0.084 NA
ATOM     21  O   UNL A   1     -23.508   3.093  26.718  0.00  0.00    -0.267 OA
ENDBRANCH  16  19
ENDBRANCH  12  13
ENDBRANCH   1  12
TORSDOF 5
