REMARK  Name = No_3960-gen_results/8p0m/2024-11-26-14-13-15/
REMARK  6 active torsions:
REMARK  status: ('A' for Active; 'I' for Inactive)
REMARK    1  A    between atoms: C_3  and  C_4
REMARK    2  A    between atoms: C_10  and  C_13
REMARK    3  A    between atoms: C_13  and  O_15
REMARK    4  A    between atoms: O_15  and  C_17
REMARK    5  A    between atoms: C_17  and  C_18
REMARK    6  A    between atoms: C_17  and  N_22
REMARK                            x       y       z     vdW  Elec       q    Type
REMARK                         _______ _______ _______ _____ _____    ______ ____
ROOT
ATOM      1  C   UNL A   1     -28.016  -0.814  28.878  0.00  0.00    +0.006 A 
ATOM      2  C   UNL A   1     -27.064  -0.119  28.608  0.00  0.00    +0.000 A 
ATOM      3  C   UNL A   1     -25.765  -0.390  29.036  0.00  0.00    +0.000 A 
ATOM      4  C   UNL A   1     -27.898  -1.894  29.857  0.00  0.00    +0.076 A 
ATOM      5  C   UNL A   1     -26.655  -2.340  30.274  0.00  0.00    +0.006 A 
ATOM      6  C   UNL A   1     -25.532  -1.559  29.913  0.00  0.00    +0.000 A 
ENDROOT
BRANCH   3   7
ATOM      7  C   UNL A   1     -24.552   0.406  28.765  0.00  0.00    +0.002 A 
ATOM      8  C   UNL A   1     -24.696   1.448  27.799  0.00  0.00    +0.030 A 
ATOM      9  C   UNL A   1     -23.582   2.216  27.463  0.00  0.00    +0.140 A 
ATOM     10  C   UNL A   1     -22.329   1.843  27.966  0.00  0.00    +0.030 A 
ATOM     11  C   UNL A   1     -22.181   0.828  28.881  0.00  0.00    +0.002 A 
ATOM     12  C   UNL A   1     -23.319   0.077  29.247  0.00  0.00    +0.000 A 
ATOM     13  F   UNL A   1     -23.679   3.167  26.562  0.00  0.00    -0.204 F 
ENDBRANCH   3   7
BRANCH   4  14
ATOM     14  C   UNL A   1     -29.061  -2.722  30.244  0.00  0.00    +0.343 C 
ATOM     15  O   UNL A   1     -28.973  -3.929  30.275  0.00  0.00    -0.245 OA
BRANCH  14  16
ATOM     16  O   UNL A   1     -30.131  -2.162  30.601  0.00  0.00    -0.422 OA
BRANCH  16  17
ATOM     17  C   UNL A   1     -31.304  -2.847  30.838  0.00  0.00    +0.325 C 
BRANCH  17  18
ATOM     18  N   UNL A   1     -31.069  -3.893  31.779  0.00  0.00    -0.269 N 
ATOM     19  C   UNL A   1     -31.386  -3.906  33.008  0.00  0.00    +0.059 C 
ATOM     20  C   UNL A   1     -31.015  -5.092  33.767  0.00  0.00    -0.009 C 
ATOM     21  C   UNL A   1     -30.384  -5.990  32.821  0.00  0.00    +0.049 C 
ATOM     22  C   UNL A   1     -30.399  -5.134  31.456  0.00  0.00    +0.099 C 
ENDBRANCH  17  18
BRANCH  17  23
ATOM     23  C   UNL A   1     -32.127  -3.069  29.725  0.00  0.00    +0.384 C 
ATOM     24 CL   UNL A   1     -33.377  -3.275  29.677  0.00  0.00    -0.042 Cl
ATOM     25  F   UNL A   1     -31.737  -1.966  28.863  0.00  0.00    -0.181 F 
ATOM     26  F   UNL A   1     -31.413  -4.125  29.017  0.00  0.00    -0.181 F 
ENDBRANCH  17  23
ENDBRANCH  16  17
ENDBRANCH  14  16
ENDBRANCH   4  14
TORSDOF 6
