MODEL 3960
MODEL 1
REMARK VINA RESULT:    -6.870      0.000      0.000
REMARK INTER + INTRA:         -10.574
REMARK INTER:                  -9.280
REMARK INTRA:                  -1.293
REMARK UNBOUND:                -1.293
REMARK  Name = No_3960-gen_results/8p0m/2024-11-26-14-13-15/
REMARK  6 active torsions:
REMARK  status: ('A' for Active; 'I' for Inactive)
REMARK    1  A    between atoms: C_3  and  C_4
REMARK    2  A    between atoms: C_10  and  C_13
REMARK    3  A    between atoms: C_13  and  O_15
REMARK    4  A    between atoms: O_15  and  C_17
REMARK    5  A    between atoms: C_17  and  C_18
REMARK    6  A    between atoms: C_17  and  N_22
REMARK                            x       y       z     vdW  Elec       q    Type
REMARK                         _______ _______ _______ _____ _____    ______ ____
ROOT
ATOM      1  C   UNL A   1     -24.916   0.363  25.147  0.00  0.00    +0.006 A 
ATOM      2  C   UNL A   1     -26.015   0.217  24.664  0.00  0.00    +0.000 A 
ATOM      3  C   UNL A   1     -27.041   1.153  24.784  0.00  0.00    +0.000 A 
ATOM      4  C   UNL A   1     -24.650   1.460  26.077  0.00  0.00    +0.076 A 
ATOM      5  C   UNL A   1     -25.537   2.516  26.200  0.00  0.00    +0.006 A 
ATOM      6  C   UNL A   1     -26.805   2.372  25.588  0.00  0.00    +0.000 A 
ENDROOT
BRANCH   3   7
ATOM      7  C   UNL A   1     -28.409   1.051  24.239  0.00  0.00    +0.002 A 
ATOM      8  C   UNL A   1     -28.910  -0.274  24.061  0.00  0.00    +0.030 A 
ATOM      9  C   UNL A   1     -30.180  -0.448  23.513  0.00  0.00    +0.140 A 
ATOM     10  C   UNL A   1     -30.859   0.671  23.015  0.00  0.00    +0.030 A 
ATOM     11  C   UNL A   1     -30.373   1.948  23.166  0.00  0.00    +0.002 A 
ATOM     12  C   UNL A   1     -29.102   2.122  23.755  0.00  0.00    +0.000 A 
ATOM     13  F   UNL A   1     -30.659  -1.656  23.318  0.00  0.00    -0.204 F 
ENDBRANCH   3   7
BRANCH   4  14
ATOM     14  C   UNL A   1     -23.330   1.627  26.724  0.00  0.00    +0.343 C 
ATOM     15  O   UNL A   1     -22.397   2.086  26.105  0.00  0.00    -0.245 OA
BRANCH  14  16
ATOM     16  O   UNL A   1     -23.196   1.345  27.944  0.00  0.00    -0.422 OA
BRANCH  16  17
ATOM     17  C   UNL A   1     -23.503   0.110  28.476  0.00  0.00    +0.325 C 
BRANCH  17  18
ATOM     18  N   UNL A   1     -24.857   0.102  28.922  0.00  0.00    -0.269 N 
ATOM     19  C   UNL A   1     -25.425   0.957  29.669  0.00  0.00    +0.059 C 
ATOM     20  C   UNL A   1     -26.821   0.711  30.001  0.00  0.00    -0.009 C 
ATOM     21  C   UNL A   1     -27.191  -0.501  29.299  0.00  0.00    +0.049 C 
ATOM     22  C   UNL A   1     -25.813  -0.930  28.583  0.00  0.00    +0.099 C 
ENDBRANCH  17  18
BRANCH  17  23
ATOM     23  C   UNL A   1     -22.501  -0.499  29.244  0.00  0.00    +0.384 C 
ATOM     24 CL   UNL A   1     -22.270  -0.403  30.487  0.00  0.00    -0.042 Cl
ATOM     25  F   UNL A   1     -22.639  -1.887  28.835  0.00  0.00    -0.181 F 
ATOM     26  F   UNL A   1     -21.296  -0.196  28.481  0.00  0.00    -0.181 F 
ENDBRANCH  17  23
ENDBRANCH  16  17
ENDBRANCH  14  16
ENDBRANCH   4  14
TORSDOF 6
ENDMDL
ENDMDL
