MODEL 3961
MODEL 1
REMARK VINA RESULT:    -6.183      0.000      0.000
REMARK INTER + INTRA:          -6.612
REMARK INTER:                  -6.545
REMARK INTRA:                  -0.067
REMARK UNBOUND:                -0.067
REMARK  Name = No_3961-gen_results/8p0m/2024-11-26-14-13-15/
REMARK  1 active torsions:
REMARK  status: ('A' for Active; 'I' for Inactive)
REMARK    1  A    between atoms: C_5  and  C_11
REMARK                            x       y       z     vdW  Elec       q    Type
REMARK                         _______ _______ _______ _____ _____    ______ ____
ROOT
ATOM      1  C   UNL A   1     -30.747  -9.701  29.512  0.00  0.00    +0.099 A 
ATOM      2  C   UNL A   1     -30.056 -10.232  30.351  0.00  0.00    +0.019 A 
ATOM      3  C   UNL A   1     -29.150 -11.229  30.010  0.00  0.00    +0.003 A 
ATOM      4  C   UNL A   1     -28.254 -11.964  30.949  0.00  0.00    +0.005 A 
ATOM      5  C   UNL A   1     -28.226 -11.481  32.290  0.00  0.00    +0.057 A 
ATOM      6  C   UNL A   1     -29.110 -10.428  32.602  0.00  0.00    +0.005 A 
ATOM      7  C   UNL A   1     -29.933  -9.841  31.721  0.00  0.00    +0.002 A 
ATOM      8  N   UNL A   1     -30.917 -10.291  28.235  0.00  0.00    -0.242 NA
ATOM      9  C   UNL A   1     -29.981 -11.203  27.781  0.00  0.00    +0.099 A 
ATOM     10  C   UNL A   1     -29.104 -11.797  28.672  0.00  0.00    +0.021 A 
ENDROOT
BRANCH   5  11
ATOM     11  C   UNL A   1     -27.327 -12.125  33.251  0.00  0.00    +0.284 C 
ATOM     12  N   UNL A   1     -27.295 -12.257  34.287  0.00  0.00    -0.084 NA
ATOM     13  O   UNL A   1     -26.370 -12.886  32.522  0.00  0.00    -0.267 OA
ENDBRANCH   5  11
TORSDOF 1
ENDMDL
ENDMDL
