REMARK  Name = No_3962-gen_results/8p0m/2024-11-26-14-13-15/
REMARK  2 active torsions:
REMARK  status: ('A' for Active; 'I' for Inactive)
REMARK    1  A    between atoms: C_1  and  C_2
REMARK    2  A    between atoms: C_1  and  N_8
REMARK                            x       y       z     vdW  Elec       q    Type
REMARK                         _______ _______ _______ _____ _____    ______ ____
ROOT
ATOM      1  C   UNL A   1     -27.064  -0.119  28.608  0.00  0.00    +0.002 A 
ATOM      2  C   UNL A   1     -25.765  -0.390  29.036  0.00  0.00    -0.002 A 
ATOM      3  C   UNL A   1     -24.552   0.406  28.765  0.00  0.00    -0.000 A 
ATOM      4  C   UNL A   1     -24.696   1.448  27.799  0.00  0.00    -0.000 A 
ATOM      5  C   UNL A   1     -25.976   1.725  27.308  0.00  0.00    -0.000 A 
ATOM      6  C   UNL A   1     -27.072   1.013  27.654  0.00  0.00    -0.002 A 
ATOM      7  C   UNL A   1     -23.496   2.169  27.476  0.00  0.00    -0.000 A 
ATOM      8  C   UNL A   1     -22.236   1.639  27.862  0.00  0.00    -0.000 A 
ATOM      9  C   UNL A   1     -22.186   0.620  28.829  0.00  0.00    -0.000 A 
ATOM     10  C   UNL A   1     -23.302  -0.099  29.208  0.00  0.00    -0.000 A 
ENDROOT
BRANCH   1  11
ATOM     11  C   UNL A   1     -28.016  -0.814  28.878  0.00  0.00    +0.153 C 
BRANCH  11  12
ATOM     12  N   UNL A   1     -29.187  -0.165  29.103  0.00  0.00    -0.252 NA
ATOM     13  C   UNL A   1     -30.128  -0.377  29.479  0.00  0.00    +0.162 C 
ATOM     14 CL   UNL A   1     -30.436  -1.865  30.197  0.00  0.00    -0.059 Cl
ENDBRANCH  11  12
ENDBRANCH   1  11
TORSDOF 2
