MODEL 3963
MODEL 1
REMARK VINA RESULT:    -7.164      0.000      0.000
REMARK INTER + INTRA:         -10.300
REMARK INTER:                  -9.258
REMARK INTRA:                  -1.042
REMARK UNBOUND:                -1.042
REMARK  Name = No_3963-gen_results/8p0m/2024-11-26-14-13-15/
REMARK  5 active torsions:
REMARK  status: ('A' for Active; 'I' for Inactive)
REMARK    1  A    between atoms: C_2  and  C_7
REMARK    2  A    between atoms: C_10  and  C_11
REMARK    3  A    between atoms: C_11  and  N_14
REMARK    4  A    between atoms: N_14  and  C_15
REMARK    5  A    between atoms: C_15  and  C_16
REMARK                            x       y       z     vdW  Elec       q    Type
REMARK                         _______ _______ _______ _____ _____    ______ ____
ROOT
ATOM      1  C   UNL A   1     -24.490   1.137  26.364  0.00  0.00    +0.017 A 
ATOM      2  C   UNL A   1     -24.147   0.636  27.396  0.00  0.00    -0.001 A 
ATOM      3  C   UNL A   1     -23.493   2.015  25.656  0.00  0.00    +0.002 A 
ATOM      4  C   UNL A   1     -22.899   0.752  28.082  0.00  0.00    -0.006 A 
ATOM      5  C   UNL A   1     -22.253   2.221  26.163  0.00  0.00    -0.000 A 
ATOM      6  C   UNL A   1     -21.860   1.573  27.380  0.00  0.00    -0.003 A 
ENDROOT
BRANCH   1   8
ATOM      7  N   UNL A   1     -26.567   1.949  25.476  0.00  0.00    -0.244 NA
ATOM      8  C   UNL A   1     -25.750   1.034  25.603  0.00  0.00    +0.081 A 
ATOM      9  C   UNL A   1     -26.007  -0.198  25.027  0.00  0.00    +0.019 A 
ATOM     10  C   UNL A   1     -27.220  -0.415  24.245  0.00  0.00    +0.003 A 
ATOM     11  C   UNL A   1     -28.040   0.654  24.208  0.00  0.00    +0.021 A 
ATOM     12  C   UNL A   1     -27.772   1.771  24.840  0.00  0.00    +0.099 A 
ENDBRANCH   1   8
BRANCH   4  13
ATOM     13  C   UNL A   1     -22.522   0.086  29.227  0.00  0.00    +0.099 C 
BRANCH  13  14
ATOM     14  N   UNL A   1     -23.126  -0.031  30.226  0.00  0.00    -0.264 NA
ATOM     15  C   UNL A   1     -23.638   1.116  30.904  0.00  0.00    +0.090 C 
BRANCH  14  16
ATOM     16  C   UNL A   1     -23.398  -1.225  30.888  0.00  0.00    +0.099 C 
BRANCH  16  17
ATOM     17  C   UNL A   1     -24.305  -2.013  30.233  0.00  0.00    -0.006 A 
ATOM     18  C   UNL A   1     -25.499  -1.983  30.412  0.00  0.00    -0.003 A 
ATOM     19  C   UNL A   1     -26.344  -3.114  30.084  0.00  0.00    -0.000 A 
ATOM     20  C   UNL A   1     -25.761  -4.056  29.246  0.00  0.00    -0.000 A 
ATOM     21  C   UNL A   1     -24.463  -3.992  28.794  0.00  0.00    -0.000 A 
ATOM     22  C   UNL A   1     -23.726  -3.047  29.333  0.00  0.00    -0.003 A 
ENDBRANCH  16  17
ENDBRANCH  14  16
ENDBRANCH  13  14
ENDBRANCH   4  13
TORSDOF 5
ENDMDL
ENDMDL
