MODEL 3964
MODEL 1
REMARK VINA RESULT:    -4.882      0.000      0.000
REMARK INTER + INTRA:          -5.398
REMARK INTER:                  -5.167
REMARK INTRA:                  -0.231
REMARK UNBOUND:                -0.231
REMARK  Name = No_3964-gen_results/8p0m/2024-11-26-14-13-15/
REMARK  1 active torsions:
REMARK  status: ('A' for Active; 'I' for Inactive)
REMARK    1  A    between atoms: C_3  and  C_4
REMARK                            x       y       z     vdW  Elec       q    Type
REMARK                         _______ _______ _______ _____ _____    ______ ____
ROOT
ATOM      1  C   UNL A   1     -26.201  -3.735  29.734  0.00  0.00    -0.000 A 
ATOM      2  C   UNL A   1     -26.085  -4.774  29.604  0.00  0.00    -0.000 A 
ATOM      3  C   UNL A   1     -25.183  -2.891  29.238  0.00  0.00    -0.000 A 
ATOM      4  C   UNL A   1     -25.005  -5.562  28.984  0.00  0.00    -0.000 A 
ATOM      5  C   UNL A   1     -23.960  -4.792  28.473  0.00  0.00    -0.000 A 
ATOM      6  C   UNL A   1     -24.039  -3.438  28.542  0.00  0.00    -0.000 A 
ENDROOT
BRANCH   3   7
ATOM      7  C   UNL A   1     -25.242  -1.406  29.242  0.00  0.00    -0.005 C 
ATOM      8  C   UNL A   1     -24.856  -0.736  30.443  0.00  0.00    -0.026 C 
ATOM      9  C   UNL A   1     -24.078  -1.362  31.433  0.00  0.00    +0.031 C 
ENDBRANCH   3   7
TORSDOF 1
ENDMDL
ENDMDL
