REMARK  Name = No_3965-gen_results/8p0m/2024-11-26-14-13-15/
REMARK  2 active torsions:
REMARK  status: ('A' for Active; 'I' for Inactive)
REMARK    1  A    between atoms: C_2  and  C_13
REMARK    2  A    between atoms: C_4  and  C_7
REMARK                            x       y       z     vdW  Elec       q    Type
REMARK                         _______ _______ _______ _____ _____    ______ ____
ROOT
ATOM      1  C   UNL A   1     -28.016  -0.814  28.878  0.00  0.00    +0.036 A 
ATOM      2  C   UNL A   1     -28.469  -0.785  29.829  0.00  0.00    +0.082 A 
ATOM      3  C   UNL A   1     -26.546  -0.876  28.850  0.00  0.00    +0.140 A 
ATOM      4  C   UNL A   1     -25.804  -1.032  30.057  0.00  0.00    +0.028 A 
ATOM      5  C   UNL A   1     -26.537  -1.039  31.217  0.00  0.00    +0.002 A 
ATOM      6  C   UNL A   1     -27.884  -0.953  31.186  0.00  0.00    +0.007 A 
ATOM      7  F   UNL A   1     -25.907  -0.812  27.712  0.00  0.00    -0.204 F 
ENDROOT
BRANCH   4   8
ATOM      8  C   UNL A   1     -24.366  -1.113  30.048  0.00  0.00    +0.002 A 
ATOM      9  C   UNL A   1     -23.745  -1.369  30.812  0.00  0.00    +0.000 A 
ATOM     10  C   UNL A   1     -22.207  -1.250  30.858  0.00  0.00    +0.000 A 
ATOM     11  C   UNL A   1     -21.686  -0.819  29.653  0.00  0.00    +0.000 A 
ATOM     12  C   UNL A   1     -23.735  -0.611  28.780  0.00  0.00    +0.000 A 
ATOM     13  C   UNL A   1     -22.434  -0.461  28.655  0.00  0.00    +0.000 A 
ENDBRANCH   4   8
BRANCH   2  14
ATOM     14  C   UNL A   1     -30.061  -0.664  29.918  0.00  0.00    +0.388 C 
ATOM     15  O   UNL A   1     -30.564   0.308  30.543  0.00  0.00    -0.241 OA
ATOM     16  O   UNL A   1     -30.714  -1.470  29.251  0.00  0.00    -0.241 OA
ENDBRANCH   2  14
TORSDOF 2
