MODEL 3966
MODEL 1
REMARK VINA RESULT:    -6.535      0.000      0.000
REMARK INTER + INTRA:          -7.277
REMARK INTER:                  -6.917
REMARK INTRA:                  -0.360
REMARK UNBOUND:                -0.360
REMARK  Name = No_3966-gen_results/8p0m/2024-11-26-14-13-15/
REMARK  1 active torsions:
REMARK  status: ('A' for Active; 'I' for Inactive)
REMARK    1  A    between atoms: C_3  and  C_7
REMARK                            x       y       z     vdW  Elec       q    Type
REMARK                         _______ _______ _______ _____ _____    ______ ____
ROOT
ATOM      1  C   UNL A   1     -24.718  -4.911  28.920  0.00  0.00    +0.000 A 
ATOM      2  C   UNL A   1     -24.099  -3.903  28.669  0.00  0.00    +0.000 A 
ATOM      3  C   UNL A   1     -24.546  -2.623  28.993  0.00  0.00    +0.000 A 
ATOM      4  C   UNL A   1     -25.848  -2.465  29.612  0.00  0.00    +0.000 A 
ATOM      5  C   UNL A   1     -26.516  -3.684  29.865  0.00  0.00    +0.000 A 
ATOM      6  C   UNL A   1     -26.017  -4.844  29.518  0.00  0.00    +0.000 A 
ENDROOT
BRANCH   3   7
ATOM      7  C   UNL A   1     -23.836  -1.344  28.727  0.00  0.00    +0.000 A 
ATOM      8  C   UNL A   1     -24.349  -0.390  27.902  0.00  0.00    +0.000 A 
ATOM      9  C   UNL A   1     -23.832   0.494  27.529  0.00  0.00    +0.000 A 
ATOM     10  C   UNL A   1     -22.459   0.897  28.007  0.00  0.00    +0.000 A 
ATOM     11  C   UNL A   1     -21.860  -0.003  28.854  0.00  0.00    +0.000 A 
ATOM     12  C   UNL A   1     -22.518  -1.142  29.202  0.00  0.00    +0.000 A 
ENDBRANCH   3   7
TORSDOF 1
ENDMDL
ENDMDL
