MODEL 3967
MODEL 1
REMARK VINA RESULT:    -5.589      0.000      0.000
REMARK INTER + INTRA:          -7.182
REMARK INTER:                  -6.896
REMARK INTRA:                  -0.286
REMARK UNBOUND:                -0.286
REMARK  Name = No_3967-gen_results/8p0m/2024-11-26-14-13-15/
REMARK  4 active torsions:
REMARK  status: ('A' for Active; 'I' for Inactive)
REMARK    1  A    between atoms: C_2  and  O_7
REMARK    2  A    between atoms: O_7  and  C_8
REMARK    3  A    between atoms: C_8  and  C_9
REMARK    4  A    between atoms: C_8  and  C_13
REMARK                            x       y       z     vdW  Elec       q    Type
REMARK                         _______ _______ _______ _____ _____    ______ ____
ROOT
ATOM      1  C   UNL A   1     -23.586  -0.372  28.940  0.00  0.00    +0.441 C 
ATOM      2  F   UNL A   1     -24.570   0.114  29.759  0.00  0.00    -0.173 F 
ENDROOT
BRANCH   1   3
ATOM      3  C   UNL A   1     -22.472  -0.702  29.654  0.00  0.00    +0.442 C 
ATOM      4  O   UNL A   1     -21.455  -1.062  28.999  0.00  0.00    -0.238 OA
ATOM      5  O   UNL A   1     -22.329  -0.615  30.907  0.00  0.00    -0.238 OA
ENDBRANCH   1   3
BRANCH   1   6
ATOM      6  C   UNL A   1     -23.306   0.722  27.936  0.00  0.00    +0.390 C 
ATOM      7  O   UNL A   1     -23.685   0.614  26.866  0.00  0.00    -0.252 OA
ATOM      8  F   UNL A   1     -22.604   1.675  28.344  0.00  0.00    -0.156 F 
ENDBRANCH   1   6
BRANCH   1   9
ATOM      9  O   UNL A   1     -24.119  -1.309  28.356  0.00  0.00    -0.439 OA
BRANCH   9  11
ATOM     10  C   UNL A   1     -25.828  -2.433  29.103  0.00  0.00    +0.037 A 
ATOM     11  C   UNL A   1     -24.793  -2.414  28.908  0.00  0.00    +0.142 A 
ATOM     12  C   UNL A   1     -26.311  -3.595  29.941  0.00  0.00    +0.003 A 
ATOM     13  C   UNL A   1     -26.091  -4.694  29.582  0.00  0.00    +0.000 A 
ATOM     14  C   UNL A   1     -23.987  -3.650  28.550  0.00  0.00    +0.037 A 
ATOM     15  C   UNL A   1     -24.608  -4.850  29.054  0.00  0.00    +0.003 A 
ENDBRANCH   9  11
ENDBRANCH   1   9
TORSDOF 4
ENDMDL
ENDMDL
