REMARK  Name = No_3967-gen_results/8p0m/2024-11-26-14-13-15/
REMARK  4 active torsions:
REMARK  status: ('A' for Active; 'I' for Inactive)
REMARK    1  A    between atoms: C_2  and  O_7
REMARK    2  A    between atoms: O_7  and  C_8
REMARK    3  A    between atoms: C_8  and  C_9
REMARK    4  A    between atoms: C_8  and  C_13
REMARK                            x       y       z     vdW  Elec       q    Type
REMARK                         _______ _______ _______ _____ _____    ______ ____
ROOT
ATOM      1  C   UNL A   1     -30.806  -0.543  29.500  0.00  0.00    +0.441 C 
ATOM      2  F   UNL A   1     -30.269   0.158  28.453  0.00  0.00    -0.173 F 
ENDROOT
BRANCH   1   3
ATOM      3  C   UNL A   1     -31.738  -1.438  29.063  0.00  0.00    +0.442 C 
ATOM      4  O   UNL A   1     -31.969  -1.468  27.822  0.00  0.00    -0.238 OA
ATOM      5  O   UNL A   1     -32.346  -2.295  29.766  0.00  0.00    -0.238 OA
ENDBRANCH   1   3
BRANCH   1   6
ATOM      6  C   UNL A   1     -31.409   0.489  30.424  0.00  0.00    +0.390 C 
ATOM      7  O   UNL A   1     -31.472   0.273  31.542  0.00  0.00    -0.252 OA
ATOM      8  F   UNL A   1     -31.866   1.517  29.876  0.00  0.00    -0.156 F 
ENDBRANCH   1   6
BRANCH   1   9
ATOM      9  O   UNL A   1     -29.834  -1.043  30.055  0.00  0.00    -0.439 OA
BRANCH   9  11
ATOM     10  C   UNL A   1     -28.016  -0.814  28.878  0.00  0.00    +0.037 A 
ATOM     11  C   UNL A   1     -28.469  -0.785  29.829  0.00  0.00    +0.142 A 
ATOM     12  C   UNL A   1     -26.504  -0.778  28.877  0.00  0.00    +0.003 A 
ATOM     13  C   UNL A   1     -25.950   0.116  29.405  0.00  0.00    +0.000 A 
ATOM     14  C   UNL A   1     -27.996   0.119  30.953  0.00  0.00    +0.037 A 
ATOM     15  C   UNL A   1     -26.604   0.465  30.803  0.00  0.00    +0.003 A 
ENDBRANCH   9  11
ENDBRANCH   1   9
TORSDOF 4
