MODEL 3968
MODEL 1
REMARK VINA RESULT:    -4.394      0.000      0.000
REMARK INTER + INTRA:          -4.394
REMARK INTER:                  -4.394
REMARK INTRA:                   0.000
REMARK UNBOUND:                 0.000
REMARK  Name = No_3968-gen_results/8p0m/2024-11-26-14-13-15/
REMARK  0 active torsions:
REMARK  status: ('A' for Active; 'I' for Inactive)
REMARK                            x       y       z     vdW  Elec       q    Type
REMARK                         _______ _______ _______ _____ _____    ______ ____
ROOT
ATOM      1  C   UNL A   1     -25.063  -5.148  29.105  0.00  0.00    +0.001 A 
ATOM      2  C   UNL A   1     -24.185  -4.340  28.911  0.00  0.00    +0.011 A 
ATOM      3  C   UNL A   1     -24.300  -2.986  29.225  0.00  0.00    +0.058 A 
ATOM      4  C   UNL A   1     -25.552  -2.489  29.760  0.00  0.00    +0.011 A 
ATOM      5  C   UNL A   1     -26.534  -3.488  29.951  0.00  0.00    +0.001 A 
ATOM      6  C   UNL A   1     -26.336  -4.738  29.619  0.00  0.00    +0.000 A 
ATOM      7 CL   UNL A   1     -23.086  -1.801  28.974  0.00  0.00    -0.082 Cl
ENDROOT
TORSDOF 0
ENDMDL
ENDMDL
