MODEL 3969
MODEL 1
REMARK VINA RESULT:    -6.644      0.000      0.000
REMARK INTER + INTRA:          -8.389
REMARK INTER:                  -8.198
REMARK INTRA:                  -0.191
REMARK UNBOUND:                -0.191
REMARK  Name = No_3969-gen_results/8p0m/2024-11-26-14-13-15/
REMARK  4 active torsions:
REMARK  status: ('A' for Active; 'I' for Inactive)
REMARK    1  A    between atoms: C_1  and  C_2
REMARK    2  A    between atoms: C_5  and  C_15
REMARK    3  A    between atoms: C_9  and  C_11
REMARK    4  A    between atoms: N_13  and  C_14
REMARK                            x       y       z     vdW  Elec       q    Type
REMARK                         _______ _______ _______ _____ _____    ______ ____
ROOT
ATOM      1  C   UNL A   1     -20.249 -20.717   5.267  0.00  0.00    +0.272 C 
ATOM      2  N   UNL A   1     -21.032 -19.758   5.531  0.00  0.00    -0.133 NA
ATOM      3  C   UNL A   1     -20.679 -18.599   5.853  0.00  0.00    +0.327 C 
ATOM      4  O   UNL A   1     -19.648 -18.294   6.170  0.00  0.00    -0.263 OA
ATOM      5  O   UNL A   1     -20.617 -21.464   4.259  0.00  0.00    -0.268 OA
ENDROOT
BRANCH   1   6
ATOM      6  C   UNL A   1     -19.402 -21.038   6.069  0.00  0.00    +0.056 A 
ATOM      7  C   UNL A   1     -19.674 -21.454   7.333  0.00  0.00    +0.005 A 
ATOM      8  C   UNL A   1     -18.650 -21.851   8.325  0.00  0.00    +0.001 A 
ATOM      9  C   UNL A   1     -17.282 -21.809   7.899  0.00  0.00    +0.015 A 
ATOM     10  C   UNL A   1     -17.046 -21.441   6.555  0.00  0.00    +0.001 A 
ATOM     11  C   UNL A   1     -18.048 -21.084   5.690  0.00  0.00    +0.005 A 
BRANCH   9  12
ATOM     12  C   UNL A   1     -16.186 -22.250   8.708  0.00  0.00    +0.081 C 
ATOM     13  N   UNL A   1     -16.046 -22.275  10.012  0.00  0.00    -0.153 NA
ATOM     14  C   UNL A   1     -15.126 -22.962   7.912  0.00  0.00    +0.054 C 
ENDBRANCH   9  12
ENDBRANCH   1   6
BRANCH   3  15
ATOM     15  C   UNL A   1     -21.809 -17.615   5.850  0.00  0.00    +0.325 C 
ATOM     16  O   UNL A   1     -22.875 -17.981   6.027  0.00  0.00    -0.263 OA
ATOM     17  N   UNL A   1     -21.527 -16.281   5.626  0.00  0.00    -0.172 NA
BRANCH  17  18
ATOM     18  C   UNL A   1     -22.528 -15.296   5.595  0.00  0.00    +0.074 A 
ATOM     19  C   UNL A   1     -23.193 -14.881   6.313  0.00  0.00    +0.017 A 
ATOM     20  C   UNL A   1     -24.072 -14.362   6.452  0.00  0.00    +0.001 A 
ATOM     21  C   UNL A   1     -24.668 -13.858   5.109  0.00  0.00    +0.000 A 
ATOM     22  C   UNL A   1     -23.996 -14.239   4.002  0.00  0.00    +0.001 A 
ATOM     23  C   UNL A   1     -22.930 -15.111   4.146  0.00  0.00    +0.017 A 
ENDBRANCH  17  18
ENDBRANCH   3  15
TORSDOF 4
ENDMDL
ENDMDL
