REMARK  Name = No_3969-gen_results/8p0m/2024-11-26-14-13-15/
REMARK  4 active torsions:
REMARK  status: ('A' for Active; 'I' for Inactive)
REMARK    1  A    between atoms: C_1  and  C_2
REMARK    2  A    between atoms: C_5  and  C_15
REMARK    3  A    between atoms: C_9  and  C_11
REMARK    4  A    between atoms: N_13  and  C_14
REMARK                            x       y       z     vdW  Elec       q    Type
REMARK                         _______ _______ _______ _____ _____    ______ ____
ROOT
ATOM      1  C   UNL A   1     -28.016  -0.814  28.878  0.00  0.00    +0.272 C 
ATOM      2  N   UNL A   1     -29.170  -0.298  28.947  0.00  0.00    -0.133 NA
ATOM      3  C   UNL A   1     -29.722   0.373  28.043  0.00  0.00    +0.327 C 
ATOM      4  O   UNL A   1     -29.210   0.803  27.143  0.00  0.00    -0.263 OA
ATOM      5  O   UNL A   1     -27.921  -2.013  29.390  0.00  0.00    -0.268 OA
ENDROOT
BRANCH   1   6
ATOM      6  C   UNL A   1     -27.064  -0.119  28.608  0.00  0.00    +0.056 A 
ATOM      7  C   UNL A   1     -26.929   1.171  29.008  0.00  0.00    +0.005 A 
ATOM      8  C   UNL A   1     -25.770   2.034  28.688  0.00  0.00    +0.001 A 
ATOM      9  C   UNL A   1     -24.714   1.443  27.919  0.00  0.00    +0.015 A 
ATOM     10  C   UNL A   1     -24.859   0.078  27.584  0.00  0.00    +0.001 A 
ATOM     11  C   UNL A   1     -25.965  -0.661  27.916  0.00  0.00    +0.005 A 
BRANCH   9  12
ATOM     12  C   UNL A   1     -23.489   2.115  27.608  0.00  0.00    +0.081 C 
ATOM     13  N   UNL A   1     -22.352   2.161  28.262  0.00  0.00    -0.153 NA
ATOM     14  C   UNL A   1     -23.479   2.693  26.219  0.00  0.00    +0.054 C 
ENDBRANCH   9  12
ENDBRANCH   1   6
BRANCH   3  15
ATOM     15  C   UNL A   1     -31.175   0.631  28.301  0.00  0.00    +0.325 C 
ATOM     16  O   UNL A   1     -31.945   0.363  27.503  0.00  0.00    -0.263 OA
ATOM     17  N   UNL A   1     -31.545   1.196  29.506  0.00  0.00    -0.172 NA
BRANCH  17  18
ATOM     18  C   UNL A   1     -32.884   1.482  29.823  0.00  0.00    +0.074 A 
ATOM     19  C   UNL A   1     -33.703   1.910  29.297  0.00  0.00    +0.017 A 
ATOM     20  C   UNL A   1     -34.618   2.373  29.389  0.00  0.00    +0.001 A 
ATOM     21  C   UNL A   1     -35.113   2.397  30.861  0.00  0.00    +0.000 A 
ATOM     22  C   UNL A   1     -34.250   1.888  31.766  0.00  0.00    +0.001 A 
ATOM     23  C   UNL A   1     -32.992   1.503  31.334  0.00  0.00    +0.017 A 
ENDBRANCH  17  18
ENDBRANCH   3  15
TORSDOF 4
