MODEL 3971
MODEL 1
REMARK VINA RESULT:    -8.180      0.000      0.000
REMARK INTER + INTRA:         -14.261
REMARK INTER:                 -12.483
REMARK INTRA:                  -1.777
REMARK UNBOUND:                -1.777
REMARK  Name = No_3971-gen_results/8p0m/2024-11-26-14-13-15/
REMARK  9 active torsions:
REMARK  status: ('A' for Active; 'I' for Inactive)
REMARK    1  A    between atoms: C_2  and  O_7
REMARK    2  A    between atoms: C_4  and  C_17
REMARK    3  A    between atoms: O_7  and  C_8
REMARK    4  A    between atoms: C_12  and  C_14
REMARK    5  A    between atoms: C_17  and  C_18
REMARK    6  A    between atoms: C_18  and  C_19
REMARK    7  A    between atoms: C_23  and  C_27
REMARK    8  A    between atoms: C_27  and  C_28
REMARK    9  A    between atoms: C_29  and  C_30
REMARK                            x       y       z     vdW  Elec       q    Type
REMARK                         _______ _______ _______ _____ _____    ______ ____
ROOT
ATOM      1  C   UNL A   1     -27.082  -0.084  24.545  0.00  0.00    +0.037 A 
ATOM      2  C   UNL A   1     -27.721   0.637  24.118  0.00  0.00    +0.145 A 
ATOM      3  C   UNL A   1     -26.080   0.447  25.546  0.00  0.00    -0.001 A 
ATOM      4  C   UNL A   1     -26.022   1.634  25.751  0.00  0.00    -0.022 A 
ATOM      5  C   UNL A   1     -27.885   2.085  24.271  0.00  0.00    +0.037 A 
ATOM      6  C   UNL A   1     -26.935   2.583  25.149  0.00  0.00    -0.001 A 
ENDROOT
BRANCH   4   7
ATOM      7  C   UNL A   1     -25.105   2.255  26.803  0.00  0.00    +0.026 C 
ATOM      8  C   UNL A   1     -25.684   3.086  27.807  0.00  0.00    +0.005 C 
BRANCH   7   9
ATOM      9  C   UNL A   1     -23.728   1.981  26.667  0.00  0.00    +0.026 C 
ATOM     10  C   UNL A   1     -23.178   2.709  25.441  0.00  0.00    +0.005 C 
BRANCH   9  11
ATOM     11  C   UNL A   1     -22.998   1.160  27.311  0.00  0.00    -0.022 A 
ATOM     12  C   UNL A   1     -21.594   1.371  27.473  0.00  0.00    -0.004 A 
ATOM     13  C   UNL A   1     -20.781   0.554  28.295  0.00  0.00    -0.001 A 
ATOM     14  C   UNL A   1     -21.430  -0.528  29.017  0.00  0.00    -0.004 A 
ATOM     15  C   UNL A   1     -22.755  -0.709  28.924  0.00  0.00    -0.018 A 
ATOM     16  C   UNL A   1     -23.545   0.078  28.101  0.00  0.00    -0.008 A 
BRANCH  15  17
ATOM     17  C   UNL A   1     -23.257  -1.886  29.649  0.00  0.00    +0.052 C 
BRANCH  17  18
ATOM     18  C   UNL A   1     -24.606  -1.981  29.741  0.00  0.00    -0.021 C 
ATOM     19  C   UNL A   1     -25.288  -3.052  29.206  0.00  0.00    -0.004 C 
BRANCH  19  20
ATOM     20  C   UNL A   1     -24.511  -4.162  28.697  0.00  0.00    -0.000 C 
ATOM     21  C   UNL A   1     -24.833  -5.500  29.150  0.00  0.00    -0.000 C 
ENDBRANCH  19  20
ENDBRANCH  17  18
ENDBRANCH  15  17
ENDBRANCH   9  11
ENDBRANCH   7   9
ENDBRANCH   4   7
BRANCH   2  22
ATOM     22  O   UNL A   1     -28.740   0.149  23.169  0.00  0.00    -0.454 OA
BRANCH  22  23
ATOM     23  C   UNL A   1     -30.011   0.067  23.498  0.00  0.00    +0.145 A 
ATOM     24  C   UNL A   1     -30.633   1.056  23.403  0.00  0.00    +0.037 A 
ATOM     25  C   UNL A   1     -32.062   1.079  23.830  0.00  0.00    +0.003 A 
ATOM     26  C   UNL A   1     -32.586  -0.152  24.306  0.00  0.00    +0.007 A 
ATOM     27  C   UNL A   1     -31.777  -1.249  24.365  0.00  0.00    +0.083 A 
ATOM     28  C   UNL A   1     -30.481  -1.223  23.993  0.00  0.00    +0.044 A 
BRANCH  27  29
ATOM     29  C   UNL A   1     -32.330  -2.550  24.846  0.00  0.00    +0.388 C 
ATOM     30  O   UNL A   1     -33.329  -3.026  24.847  0.00  0.00    -0.241 OA
ATOM     31  O   UNL A   1     -31.356  -3.317  25.433  0.00  0.00    -0.241 OA
ENDBRANCH  27  29
ENDBRANCH  22  23
ENDBRANCH   2  22
TORSDOF 9
ENDMDL
ENDMDL
