REMARK  Name = No_3971-gen_results/8p0m/2024-11-26-14-13-15/
REMARK  9 active torsions:
REMARK  status: ('A' for Active; 'I' for Inactive)
REMARK    1  A    between atoms: C_2  and  O_7
REMARK    2  A    between atoms: C_4  and  C_17
REMARK    3  A    between atoms: O_7  and  C_8
REMARK    4  A    between atoms: C_12  and  C_14
REMARK    5  A    between atoms: C_17  and  C_18
REMARK    6  A    between atoms: C_18  and  C_19
REMARK    7  A    between atoms: C_23  and  C_27
REMARK    8  A    between atoms: C_27  and  C_28
REMARK    9  A    between atoms: C_29  and  C_30
REMARK                            x       y       z     vdW  Elec       q    Type
REMARK                         _______ _______ _______ _____ _____    ______ ____
ROOT
ATOM      1  C   UNL A   1     -28.016  -0.814  28.878  0.00  0.00    +0.037 A 
ATOM      2  C   UNL A   1     -28.469  -0.785  29.829  0.00  0.00    +0.145 A 
ATOM      3  C   UNL A   1     -26.504  -0.778  28.877  0.00  0.00    -0.001 A 
ATOM      4  C   UNL A   1     -25.915  -0.658  29.923  0.00  0.00    -0.022 A 
ATOM      5  C   UNL A   1     -27.969  -0.724  31.205  0.00  0.00    +0.037 A 
ATOM      6  C   UNL A   1     -26.585  -0.639  31.206  0.00  0.00    -0.001 A 
ENDROOT
BRANCH   4   7
ATOM      7  C   UNL A   1     -24.392  -0.697  30.032  0.00  0.00    +0.026 C 
ATOM      8  C   UNL A   1     -23.806  -1.287  31.191  0.00  0.00    +0.005 C 
BRANCH   7   9
ATOM      9  C   UNL A   1     -23.678  -0.097  28.974  0.00  0.00    +0.026 C 
ATOM     10  C   UNL A   1     -22.277  -0.702  28.890  0.00  0.00    +0.005 C 
BRANCH   9  11
ATOM     11  C   UNL A   1     -23.996   0.897  28.243  0.00  0.00    -0.022 A 
ATOM     12  C   UNL A   1     -23.087   1.449  27.289  0.00  0.00    -0.004 A 
ATOM     13  C   UNL A   1     -23.453   2.460  26.369  0.00  0.00    -0.001 A 
ATOM     14  C   UNL A   1     -24.830   2.926  26.398  0.00  0.00    -0.004 A 
ATOM     15  C   UNL A   1     -25.715   2.382  27.246  0.00  0.00    -0.018 A 
ATOM     16  C   UNL A   1     -25.347   1.408  28.161  0.00  0.00    -0.008 A 
BRANCH  15  17
ATOM     17  C   UNL A   1     -27.047   3.005  27.213  0.00  0.00    +0.052 C 
BRANCH  17  18
ATOM     18  C   UNL A   1     -27.904   2.497  26.294  0.00  0.00    -0.021 C 
ATOM     19  C   UNL A   1     -29.268   2.619  26.442  0.00  0.00    -0.004 C 
BRANCH  19  20
ATOM     20  C   UNL A   1     -29.760   3.457  27.514  0.00  0.00    -0.000 C 
ATOM     21  C   UNL A   1     -31.192   3.588  27.691  0.00  0.00    -0.000 C 
ENDBRANCH  19  20
ENDBRANCH  17  18
ENDBRANCH  15  17
ENDBRANCH   9  11
ENDBRANCH   7   9
ENDBRANCH   4   7
BRANCH   2  22
ATOM     22  O   UNL A   1     -29.942  -0.863  29.870  0.00  0.00    -0.454 OA
BRANCH  22  23
ATOM     23  C   UNL A   1     -30.676   0.123  30.338  0.00  0.00    +0.145 A 
ATOM     24  C   UNL A   1     -31.832   0.030  30.171  0.00  0.00    +0.037 A 
ATOM     25  C   UNL A   1     -32.737   1.138  30.596  0.00  0.00    +0.003 A 
ATOM     26  C   UNL A   1     -32.106   2.246  31.221  0.00  0.00    +0.007 A 
ATOM     27  C   UNL A   1     -30.751   2.249  31.377  0.00  0.00    +0.083 A 
ATOM     28  C   UNL A   1     -29.964   1.238  30.956  0.00  0.00    +0.044 A 
BRANCH  27  29
ATOM     29  C   UNL A   1     -30.087   3.404  32.052  0.00  0.00    +0.388 C 
ATOM     30  O   UNL A   1     -30.398   4.165  32.793  0.00  0.00    -0.241 OA
ATOM     31  O   UNL A   1     -28.789   3.545  31.632  0.00  0.00    -0.241 OA
ENDBRANCH  27  29
ENDBRANCH  22  23
ENDBRANCH   2  22
TORSDOF 9
