MODEL 3972
MODEL 1
REMARK VINA RESULT:    -4.301      0.000      0.000
REMARK INTER + INTRA:          -4.301
REMARK INTER:                  -4.301
REMARK INTRA:                   0.000
REMARK UNBOUND:                 0.000
REMARK  Name = No_3972-gen_results/8p0m/2024-11-26-14-13-15/
REMARK  0 active torsions:
REMARK  status: ('A' for Active; 'I' for Inactive)
REMARK                            x       y       z     vdW  Elec       q    Type
REMARK                         _______ _______ _______ _____ _____    ______ ____
ROOT
ATOM      1  C   UNL A   1     -26.214  -3.605  29.745  0.00  0.00    +0.000 A 
ATOM      2  C   UNL A   1     -26.108  -4.804  29.629  0.00  0.00    +0.000 A 
ATOM      3  C   UNL A   1     -25.030  -5.421  29.025  0.00  0.00    +0.000 A 
ATOM      4  C   UNL A   1     -23.971  -4.599  28.548  0.00  0.00    +0.000 A 
ATOM      5  C   UNL A   1     -24.057  -3.283  28.852  0.00  0.00    +0.000 A 
ATOM      6  C   UNL A   1     -25.109  -2.784  29.472  0.00  0.00    +0.000 A 
ENDROOT
TORSDOF 0
ENDMDL
ENDMDL
