MODEL 3973
MODEL 1
REMARK VINA RESULT:    -8.794      0.000      0.000
REMARK INTER + INTRA:         -13.698
REMARK INTER:                 -12.393
REMARK INTRA:                  -1.306
REMARK UNBOUND:                -1.306
REMARK  Name = No_3973-gen_results/8p0m/2024-11-26-14-13-15/
REMARK  7 active torsions:
REMARK  status: ('A' for Active; 'I' for Inactive)
REMARK    1  A    between atoms: C_2  and  N_11
REMARK    2  A    between atoms: C_3  and  C_7
REMARK    3  A    between atoms: C_6  and  C_26
REMARK    4  A    between atoms: N_11  and  C_20
REMARK    5  A    between atoms: C_12  and  C_14
REMARK    6  A    between atoms: C_26  and  C_28
REMARK    7  A    between atoms: C_29  and  C_30
REMARK                            x       y       z     vdW  Elec       q    Type
REMARK                         _______ _______ _______ _____ _____    ______ ____
ROOT
ATOM      1  C   UNL A   1     -23.818   0.862  27.252  0.00  0.00    +0.019 A 
ATOM      2  C   UNL A   1     -24.657   0.290  27.535  0.00  0.00    +0.058 A 
ATOM      3  C   UNL A   1     -23.928   1.441  25.914  0.00  0.00    +0.072 A 
ATOM      4  C   UNL A   1     -25.038   1.257  25.127  0.00  0.00    +0.001 A 
ATOM      5  C   UNL A   1     -25.940  -0.065  26.930  0.00  0.00    +0.013 A 
ATOM      6  C   UNL A   1     -26.056   0.490  25.633  0.00  0.00    -0.002 A 
ENDROOT
BRANCH   3   7
ATOM      7  C   UNL A   1     -22.858   2.325  25.357  0.00  0.00    +0.419 C 
ATOM      8  F   UNL A   1     -23.134   3.398  25.311  0.00  0.00    -0.166 F 
ATOM      9  F   UNL A   1     -21.716   2.126  26.126  0.00  0.00    -0.166 F 
ATOM     10  F   UNL A   1     -22.358   1.928  24.110  0.00  0.00    -0.166 F 
ENDBRANCH   3   7
BRANCH   2  11
ATOM     11  N   UNL A   1     -24.659  -0.270  28.960  0.00  0.00    -0.234 N 
ATOM     12  C   UNL A   1     -24.459   0.509  30.127  0.00  0.00    +0.257 C 
ATOM     13  O   UNL A   1     -24.312   1.695  29.985  0.00  0.00    -0.269 OA
BRANCH  12  14
ATOM     14  C   UNL A   1     -24.380  -0.181  31.380  0.00  0.00    +0.054 A 
ATOM     15  C   UNL A   1     -23.192  -0.800  31.656  0.00  0.00    +0.004 A 
ATOM     16  C   UNL A   1     -23.004  -1.365  32.977  0.00  0.00    +0.000 A 
ATOM     17  C   UNL A   1     -24.040  -1.272  33.912  0.00  0.00    +0.000 A 
ATOM     18  C   UNL A   1     -25.272   0.126  32.397  0.00  0.00    +0.004 A 
ATOM     19  C   UNL A   1     -25.192  -0.472  33.607  0.00  0.00    +0.000 A 
ENDBRANCH  12  14
BRANCH  11  20
ATOM     20  C   UNL A   1     -24.970  -1.699  29.057  0.00  0.00    +0.058 A 
ATOM     21  C   UNL A   1     -23.957  -2.543  28.661  0.00  0.00    +0.015 A 
ATOM     22  C   UNL A   1     -24.187  -3.905  28.845  0.00  0.00    +0.001 A 
ATOM     23  C   UNL A   1     -25.403  -4.346  29.476  0.00  0.00    +0.000 A 
ATOM     24  C   UNL A   1     -26.150  -2.101  29.619  0.00  0.00    +0.015 A 
ATOM     25  C   UNL A   1     -26.406  -3.428  29.817  0.00  0.00    +0.001 A 
ENDBRANCH  11  20
ENDBRANCH   2  11
BRANCH   6  26
ATOM     26  C   UNL A   1     -27.253   0.231  24.795  0.00  0.00    +0.124 C 
ATOM     27 CL   UNL A   1     -27.747  -0.940  24.270  0.00  0.00    -0.105 Cl
BRANCH  26  28
ATOM     28  C   UNL A   1     -28.083   1.459  24.426  0.00  0.00    -0.006 C 
ATOM     29  C   UNL A   1     -29.063   1.391  23.899  0.00  0.00    -0.003 C 
BRANCH  29  30
ATOM     30  C   UNL A   1     -29.805   2.510  23.291  0.00  0.00    -0.005 C 
ATOM     31  C   UNL A   1     -31.037   2.106  22.733  0.00  0.00    -0.026 C 
ATOM     32  C   UNL A   1     -31.510   0.836  22.893  0.00  0.00    +0.031 C 
ENDBRANCH  29  30
ENDBRANCH  26  28
ENDBRANCH   6  26
TORSDOF 7
ENDMDL
ENDMDL
