REMARK  Name = No_3973-gen_results/8p0m/2024-11-26-14-13-15/
REMARK  7 active torsions:
REMARK  status: ('A' for Active; 'I' for Inactive)
REMARK    1  A    between atoms: C_2  and  N_11
REMARK    2  A    between atoms: C_3  and  C_7
REMARK    3  A    between atoms: C_6  and  C_26
REMARK    4  A    between atoms: N_11  and  C_20
REMARK    5  A    between atoms: C_12  and  C_14
REMARK    6  A    between atoms: C_26  and  C_28
REMARK    7  A    between atoms: C_29  and  C_30
REMARK                            x       y       z     vdW  Elec       q    Type
REMARK                         _______ _______ _______ _____ _____    ______ ____
ROOT
ATOM      1  C   UNL A   1     -28.016  -0.814  28.878  0.00  0.00    +0.019 A 
ATOM      2  C   UNL A   1     -28.469  -0.785  29.829  0.00  0.00    +0.058 A 
ATOM      3  C   UNL A   1     -27.087   0.290  28.638  0.00  0.00    +0.072 A 
ATOM      4  C   UNL A   1     -26.832   1.249  29.587  0.00  0.00    +0.001 A 
ATOM      5  C   UNL A   1     -28.391   0.080  31.006  0.00  0.00    +0.013 A 
ATOM      6  C   UNL A   1     -27.494   1.152  30.784  0.00  0.00    -0.002 A 
ENDROOT
BRANCH   3   7
ATOM      7  C   UNL A   1     -26.311   0.392  27.364  0.00  0.00    +0.419 C 
ATOM      8  F   UNL A   1     -25.553  -0.407  27.229  0.00  0.00    -0.166 F 
ATOM      9  F   UNL A   1     -27.230   0.403  26.320  0.00  0.00    -0.166 F 
ATOM     10  F   UNL A   1     -25.707   1.636  27.143  0.00  0.00    -0.166 F 
ENDBRANCH   3   7
BRANCH   2  11
ATOM     11  N   UNL A   1     -29.382  -1.960  30.192  0.00  0.00    -0.234 N 
ATOM     12  C   UNL A   1     -28.928  -3.277  30.450  0.00  0.00    +0.257 C 
ATOM     13  O   UNL A   1     -27.741  -3.473  30.415  0.00  0.00    -0.269 OA
BRANCH  12  14
ATOM     14  C   UNL A   1     -29.918  -4.289  30.668  0.00  0.00    +0.054 A 
ATOM     15  C   UNL A   1     -30.540  -4.778  29.552  0.00  0.00    +0.004 A 
ATOM     16  C   UNL A   1     -31.423  -5.917  29.702  0.00  0.00    +0.000 A 
ATOM     17  C   UNL A   1     -31.619  -6.465  30.974  0.00  0.00    +0.000 A 
ATOM     18  C   UNL A   1     -29.923  -5.009  31.854  0.00  0.00    +0.004 A 
ATOM     19  C   UNL A   1     -30.813  -6.004  32.069  0.00  0.00    +0.000 A 
ENDBRANCH  12  14
BRANCH  11  20
ATOM     20  C   UNL A   1     -30.799  -1.613  30.338  0.00  0.00    +0.058 A 
ATOM     21  C   UNL A   1     -31.489  -1.471  29.156  0.00  0.00    +0.015 A 
ATOM     22  C   UNL A   1     -32.860  -1.248  29.269  0.00  0.00    +0.001 A 
ATOM     23  C   UNL A   1     -33.478  -1.240  30.568  0.00  0.00    +0.000 A 
ATOM     24  C   UNL A   1     -31.361  -1.566  31.584  0.00  0.00    +0.015 A 
ATOM     25  C   UNL A   1     -32.702  -1.353  31.731  0.00  0.00    +0.001 A 
ENDBRANCH  11  20
ENDBRANCH   2  11
BRANCH   6  26
ATOM     26  C   UNL A   1     -27.279   2.195  31.817  0.00  0.00    +0.124 C 
ATOM     27 CL   UNL A   1     -26.404   3.255  31.856  0.00  0.00    -0.105 Cl
BRANCH  26  28
ATOM     28  C   UNL A   1     -28.153   2.084  33.064  0.00  0.00    -0.006 C 
ATOM     29  C   UNL A   1     -28.104   2.814  33.905  0.00  0.00    -0.003 C 
BRANCH  29  30
ATOM     30  C   UNL A   1     -28.718   2.654  35.235  0.00  0.00    -0.005 C 
ATOM     31  C   UNL A   1     -29.630   1.578  35.287  0.00  0.00    -0.026 C 
ATOM     32  C   UNL A   1     -29.783   0.721  34.236  0.00  0.00    +0.031 C 
ENDBRANCH  29  30
ENDBRANCH  26  28
ENDBRANCH   6  26
TORSDOF 7
