MODEL 3974
MODEL 1
REMARK VINA RESULT:    -6.084      0.000      0.000
REMARK INTER + INTRA:          -8.221
REMARK INTER:                  -7.506
REMARK INTRA:                  -0.715
REMARK UNBOUND:                -0.715
REMARK  Name = No_3974-gen_results/8p0m/2024-11-26-14-13-15/
REMARK  4 active torsions:
REMARK  status: ('A' for Active; 'I' for Inactive)
REMARK    1  A    between atoms: N_1  and  C_2
REMARK    2  A    between atoms: N_1  and  C_8
REMARK    3  A    between atoms: C_8  and  C_9
REMARK    4  A    between atoms: N_11  and  C_12
REMARK                            x       y       z     vdW  Elec       q    Type
REMARK                         _______ _______ _______ _____ _____    ______ ____
ROOT
ATOM      1  C   UNL A   1     -22.754   1.383  27.397  0.00  0.00    +0.251 C 
ATOM      2  O   UNL A   1     -21.771   1.628  27.587  0.00  0.00    -0.273 OA
ATOM      3  N   UNL A   1     -23.460   1.660  26.276  0.00  0.00    -0.255 N 
ATOM      4  C   UNL A   1     -22.765   2.492  25.279  0.00  0.00    +0.120 C 
ENDROOT
BRANCH   3   5
ATOM      5  C   UNL A   1     -24.824   1.280  25.973  0.00  0.00    +0.054 A 
ATOM      6  C   UNL A   1     -25.767   2.210  26.071  0.00  0.00    +0.015 A 
ATOM      7  C   UNL A   1     -26.907   1.915  25.515  0.00  0.00    +0.001 A 
ATOM      8  C   UNL A   1     -27.231   0.632  24.995  0.00  0.00    +0.000 A 
ATOM      9  C   UNL A   1     -24.955   0.083  25.294  0.00  0.00    +0.015 A 
ATOM     10  C   UNL A   1     -26.206  -0.258  24.800  0.00  0.00    +0.001 A 
ENDBRANCH   3   5
BRANCH   1  11
ATOM     11  C   UNL A   1     -23.505   0.647  28.441  0.00  0.00    +0.197 C 
BRANCH  11  12
ATOM     12  N   UNL A   1     -23.140  -0.712  28.555  0.00  0.00    -0.228 NA
BRANCH  12  13
ATOM     13  C   UNL A   1     -24.049  -1.491  28.850  0.00  0.00    +0.066 A 
ATOM     14  C   UNL A   1     -25.269  -1.088  29.234  0.00  0.00    +0.017 A 
ATOM     15  C   UNL A   1     -26.366  -1.951  29.632  0.00  0.00    +0.013 A 
ATOM     16  C   UNL A   1     -26.124  -3.342  29.651  0.00  0.00    +0.058 A 
ATOM     17  C   UNL A   1     -24.812  -3.780  29.285  0.00  0.00    +0.013 A 
ATOM     18  C   UNL A   1     -23.798  -2.933  28.939  0.00  0.00    +0.017 A 
ATOM     19 CL   UNL A   1     -27.335  -4.425  30.103  0.00  0.00    -0.082 Cl
ENDBRANCH  12  13
ENDBRANCH  11  12
ENDBRANCH   1  11
TORSDOF 4
ENDMDL
ENDMDL
