REMARK  Name = No_3974-gen_results/8p0m/2024-11-26-14-13-15/
REMARK  4 active torsions:
REMARK  status: ('A' for Active; 'I' for Inactive)
REMARK    1  A    between atoms: N_1  and  C_2
REMARK    2  A    between atoms: N_1  and  C_8
REMARK    3  A    between atoms: C_8  and  C_9
REMARK    4  A    between atoms: N_11  and  C_12
REMARK                            x       y       z     vdW  Elec       q    Type
REMARK                         _______ _______ _______ _____ _____    ______ ____
ROOT
ATOM      1  C   UNL A   1     -30.256  -1.446  29.662  0.00  0.00    +0.251 C 
ATOM      2  O   UNL A   1     -30.209  -2.435  29.949  0.00  0.00    -0.273 OA
ATOM      3  N   UNL A   1     -31.354  -0.768  29.254  0.00  0.00    -0.255 N 
ATOM      4  C   UNL A   1     -32.579  -1.573  29.111  0.00  0.00    +0.120 C 
ENDROOT
BRANCH   3   5
ATOM      5  C   UNL A   1     -31.447   0.632  28.896  0.00  0.00    +0.054 A 
ATOM      6  C   UNL A   1     -31.787   1.497  29.845  0.00  0.00    +0.015 A 
ATOM      7  C   UNL A   1     -31.573   2.751  29.565  0.00  0.00    +0.001 A 
ATOM      8  C   UNL A   1     -31.185   3.225  28.282  0.00  0.00    +0.000 A 
ATOM      9  C   UNL A   1     -30.851   0.964  27.694  0.00  0.00    +0.015 A 
ATOM     10  C   UNL A   1     -30.728   2.308  27.370  0.00  0.00    +0.001 A 
ENDBRANCH   3   5
BRANCH   1  11
ATOM     11  C   UNL A   1     -29.006  -0.650  29.688  0.00  0.00    +0.197 C 
BRANCH  11  12
ATOM     12  N   UNL A   1     -28.054  -1.050  28.725  0.00  0.00    -0.228 NA
BRANCH  12  13
ATOM     13  C   UNL A   1     -26.966  -0.472  28.771  0.00  0.00    +0.066 A 
ATOM     14  C   UNL A   1     -26.549   0.388  27.831  0.00  0.00    +0.017 A 
ATOM     15  C   UNL A   1     -25.266   1.068  27.806  0.00  0.00    +0.013 A 
ATOM     16  C   UNL A   1     -24.357   0.776  28.846  0.00  0.00    +0.058 A 
ATOM     17  C   UNL A   1     -24.775  -0.174  29.830  0.00  0.00    +0.013 A 
ATOM     18  C   UNL A   1     -25.984  -0.811  29.805  0.00  0.00    +0.017 A 
ATOM     19 CL   UNL A   1     -22.841   1.512  28.901  0.00  0.00    -0.082 Cl
ENDBRANCH  12  13
ENDBRANCH  11  12
ENDBRANCH   1  11
TORSDOF 4
