MODEL 3975
MODEL 1
REMARK VINA RESULT:    -6.438      0.000      0.000
REMARK INTER + INTRA:          -7.222
REMARK INTER:                  -6.814
REMARK INTRA:                  -0.408
REMARK UNBOUND:                -0.408
REMARK  Name = No_3975-gen_results/8p0m/2024-11-26-14-13-15/
REMARK  1 active torsions:
REMARK  status: ('A' for Active; 'I' for Inactive)
REMARK    1  A    between atoms: C_3  and  C_7
REMARK                            x       y       z     vdW  Elec       q    Type
REMARK                         _______ _______ _______ _____ _____    ______ ____
ROOT
ATOM      1  C   UNL A   1     -24.052  -3.910  28.581  0.00  0.00    +0.000 A 
ATOM      2  C   UNL A   1     -24.675  -4.711  28.866  0.00  0.00    +0.000 A 
ATOM      3  C   UNL A   1     -24.588  -2.596  28.932  0.00  0.00    +0.000 A 
ATOM      4  C   UNL A   1     -25.784  -2.448  29.591  0.00  0.00    +0.000 A 
ATOM      5  C   UNL A   1     -25.956  -4.852  29.559  0.00  0.00    +0.000 A 
ATOM      6  C   UNL A   1     -26.484  -3.585  29.904  0.00  0.00    +0.000 A 
ENDROOT
BRANCH   3   7
ATOM      7  C   UNL A   1     -23.832  -1.342  28.647  0.00  0.00    +0.000 A 
ATOM      8  C   UNL A   1     -24.415  -0.433  27.966  0.00  0.00    +0.000 A 
ATOM      9  C   UNL A   1     -22.575  -1.225  29.219  0.00  0.00    +0.000 A 
ATOM     10  C   UNL A   1     -23.609   0.646  27.461  0.00  0.00    +0.000 A 
ATOM     11  C   UNL A   1     -21.836  -0.072  28.964  0.00  0.00    +0.000 A 
ATOM     12  C   UNL A   1     -22.372   0.889  28.055  0.00  0.00    +0.000 A 
ENDBRANCH   3   7
TORSDOF 1
ENDMDL
ENDMDL
