MODEL 3976
MODEL 1
REMARK VINA RESULT:    -4.313      0.000      0.000
REMARK INTER + INTRA:          -4.313
REMARK INTER:                  -4.313
REMARK INTRA:                   0.000
REMARK UNBOUND:                 0.000
REMARK  Name = No_3976-gen_results/8p0m/2024-11-26-14-13-15/
REMARK  0 active torsions:
REMARK  status: ('A' for Active; 'I' for Inactive)
REMARK                            x       y       z     vdW  Elec       q    Type
REMARK                         _______ _______ _______ _____ _____    ______ ____
ROOT
ATOM      1  C   UNL A   1     -24.209  -4.848  28.679  0.00  0.00    +0.000 A 
ATOM      2  C   UNL A   1     -25.076  -5.266  29.109  0.00  0.00    +0.000 A 
ATOM      3  C   UNL A   1     -24.103  -3.396  28.871  0.00  0.00    +0.000 A 
ATOM      4  C   UNL A   1     -25.098  -2.666  29.376  0.00  0.00    +0.000 A 
ATOM      5  C   UNL A   1     -26.272  -4.692  29.675  0.00  0.00    +0.000 A 
ATOM      6  C   UNL A   1     -26.165  -3.341  29.822  0.00  0.00    +0.000 A 
ENDROOT
TORSDOF 0
ENDMDL
ENDMDL
