MODEL 3977
MODEL 1
REMARK VINA RESULT:    -6.673      0.000      0.000
REMARK INTER + INTRA:          -7.394
REMARK INTER:                  -7.063
REMARK INTRA:                  -0.331
REMARK UNBOUND:                -0.331
REMARK  Name = No_3977-gen_results/8p0m/2024-11-26-14-13-15/
REMARK  1 active torsions:
REMARK  status: ('A' for Active; 'I' for Inactive)
REMARK    1  A    between atoms: C_2  and  C_7
REMARK                            x       y       z     vdW  Elec       q    Type
REMARK                         _______ _______ _______ _____ _____    ______ ____
ROOT
ATOM      1  C   UNL A   1     -24.320  -0.335  28.094  0.00  0.00    +0.000 A 
ATOM      2  C   UNL A   1     -23.819  -1.259  28.691  0.00  0.00    +0.000 A 
ATOM      3  C   UNL A   1     -22.502  -1.199  29.134  0.00  0.00    +0.000 A 
ATOM      4  C   UNL A   1     -21.679  -0.050  28.855  0.00  0.00    +0.000 A 
ATOM      5  C   UNL A   1     -22.331   0.962  28.139  0.00  0.00    +0.000 A 
ATOM      6  C   UNL A   1     -23.574   0.849  27.729  0.00  0.00    +0.000 A 
ENDROOT
BRANCH   2   7
ATOM      7  C   UNL A   1     -24.509  -2.530  29.042  0.00  0.00    +0.000 A 
ATOM      8  C   UNL A   1     -25.630  -2.717  29.487  0.00  0.00    +0.000 A 
ATOM      9  C   UNL A   1     -26.263  -4.028  29.684  0.00  0.00    +0.000 A 
ATOM     10  C   UNL A   1     -25.487  -5.160  29.358  0.00  0.00    +0.000 A 
ATOM     11  C   UNL A   1     -23.984  -3.848  28.589  0.00  0.00    +0.000 A 
ATOM     12  C   UNL A   1     -24.385  -5.002  28.782  0.00  0.00    +0.000 A 
ENDBRANCH   2   7
TORSDOF 1
ENDMDL
ENDMDL
