REMARK  Name = No_3978-gen_results/8p0m/2024-11-26-14-13-15/
REMARK  4 active torsions:
REMARK  status: ('A' for Active; 'I' for Inactive)
REMARK    1  A    between atoms: C_3  and  C_7
REMARK    2  A    between atoms: C_5  and  C_12
REMARK    3  A    between atoms: C_7  and  P_8
REMARK    4  A    between atoms: P_8  and  O_11
REMARK                            x       y       z     vdW  Elec       q    Type
REMARK                         _______ _______ _______ _____ _____    ______ ____
ROOT
ATOM      1  C   UNL A   1     -28.016  -0.814  28.878  0.00  0.00    -0.000 A 
ATOM      2  C   UNL A   1     -27.064  -0.119  28.608  0.00  0.00    -0.004 A 
ATOM      3  C   UNL A   1     -26.972   0.714  27.506  0.00  0.00    -0.010 A 
ATOM      4  C   UNL A   1     -28.105   0.774  26.642  0.00  0.00    +0.001 A 
ATOM      5  C   UNL A   1     -29.204   0.118  27.048  0.00  0.00    +0.055 A 
ATOM      6  C   UNL A   1     -29.213  -0.609  28.128  0.00  0.00    +0.004 A 
ENDROOT
BRANCH   5   7
ATOM      7  C   UNL A   1     -30.418   0.254  26.209  0.00  0.00    +0.265 C 
ATOM      8  O   UNL A   1     -30.436   0.434  25.188  0.00  0.00    -0.268 OA
ATOM      9  N   UNL A   1     -31.614  -0.039  26.850  0.00  0.00    -0.200 NA
ATOM     10  C   UNL A   1     -32.854  -0.057  26.124  0.00  0.00    +0.139 C 
ENDBRANCH   5   7
BRANCH   3  11
ATOM     11  C   UNL A   1     -25.711   1.452  27.138  0.00  0.00    +0.147 C 
BRANCH  11  12
ATOM     12  P   UNL A   1     -24.332   1.010  27.917  0.00  0.00    +0.404 P 
ATOM     13  O   UNL A   1     -23.197   1.664  27.212  0.00  0.00    -0.253 OA
ATOM     14  O   UNL A   1     -24.105  -0.487  27.855  0.00  0.00    -0.138 OA
BRANCH  12  15
ATOM     15  O   UNL A   1     -24.541   1.317  29.439  0.00  0.00    -0.104 OA
ATOM     16  F   UNL A   1     -23.486   1.733  29.873  0.00  0.00    -0.039 F 
ENDBRANCH  12  15
ENDBRANCH  11  12
ENDBRANCH   3  11
TORSDOF 4
