MODEL 3978
MODEL 1
REMARK VINA RESULT:    -6.209      0.000      0.000
REMARK INTER + INTRA:          -8.045
REMARK INTER:                  -7.661
REMARK INTRA:                  -0.384
REMARK UNBOUND:                -0.384
REMARK  Name = No_3978-gen_results/8p0m/2024-11-26-14-13-15/
REMARK  4 active torsions:
REMARK  status: ('A' for Active; 'I' for Inactive)
REMARK    1  A    between atoms: C_3  and  C_7
REMARK    2  A    between atoms: C_5  and  C_12
REMARK    3  A    between atoms: C_7  and  P_8
REMARK    4  A    between atoms: P_8  and  O_11
REMARK                            x       y       z     vdW  Elec       q    Type
REMARK                         _______ _______ _______ _____ _____    ______ ____
ROOT
ATOM      1  C   UNL A   1     -24.283  -4.878  28.700  0.00  0.00    -0.000 A 
ATOM      2  C   UNL A   1     -23.861  -3.747  28.626  0.00  0.00    -0.004 A 
ATOM      3  C   UNL A   1     -24.578  -2.607  28.946  0.00  0.00    -0.010 A 
ATOM      4  C   UNL A   1     -25.907  -2.790  29.429  0.00  0.00    +0.001 A 
ATOM      5  C   UNL A   1     -26.295  -4.056  29.652  0.00  0.00    +0.055 A 
ATOM      6  C   UNL A   1     -25.534  -5.071  29.361  0.00  0.00    +0.004 A 
ENDROOT
BRANCH   5   7
ATOM      7  C   UNL A   1     -27.638  -4.255  30.246  0.00  0.00    +0.265 C 
ATOM      8  O   UNL A   1     -27.985  -5.125  30.690  0.00  0.00    -0.268 OA
ATOM      9  N   UNL A   1     -28.419  -3.111  30.333  0.00  0.00    -0.200 NA
ATOM     10  C   UNL A   1     -29.697  -3.139  30.991  0.00  0.00    +0.139 C 
ENDBRANCH   5   7
BRANCH   3  11
ATOM     11  C   UNL A   1     -24.056  -1.214  28.703  0.00  0.00    +0.147 C 
BRANCH  11  12
ATOM     12  P   UNL A   1     -22.855  -0.683  29.693  0.00  0.00    +0.404 P 
ATOM     13  O   UNL A   1     -23.168  -1.164  31.066  0.00  0.00    -0.253 OA
ATOM     14  O   UNL A   1     -22.795   0.830  29.744  0.00  0.00    -0.138 OA
BRANCH  12  15
ATOM     15  O   UNL A   1     -21.496  -1.113  29.044  0.00  0.00    -0.104 OA
ATOM     16  F   UNL A   1     -21.132  -0.203  28.328  0.00  0.00    -0.039 F 
ENDBRANCH  12  15
ENDBRANCH  11  12
ENDBRANCH   3  11
TORSDOF 4
ENDMDL
ENDMDL
