MODEL 3979
MODEL 1
REMARK VINA RESULT:    -6.741      0.000      0.000
REMARK INTER + INTRA:          -7.906
REMARK INTER:                  -7.529
REMARK INTRA:                  -0.377
REMARK UNBOUND:                -0.377
REMARK  Name = No_3979-gen_results/8p0m/2024-11-26-14-13-15/
REMARK  2 active torsions:
REMARK  status: ('A' for Active; 'I' for Inactive)
REMARK    1  A    between atoms: C_11  and  C_12
REMARK    2  A    between atoms: C_12  and  C_13
REMARK                            x       y       z     vdW  Elec       q    Type
REMARK                         _______ _______ _______ _____ _____    ______ ____
ROOT
ATOM      1  O   UNL A   1     -26.221  -1.138  31.873  0.00  0.00    -0.250 OA
ATOM      2  C   UNL A   1     -26.156  -1.340  30.746  0.00  0.00    +0.322 C 
ATOM      3  O   UNL A   1     -25.443  -0.675  29.969  0.00  0.00    -0.447 OA
ATOM      4  C   UNL A   1     -26.925  -2.477  30.170  0.00  0.00    +0.136 C 
ATOM      5  C   UNL A   1     -26.212  -3.464  29.737  0.00  0.00    -0.012 A 
ATOM      6  C   UNL A   1     -26.080  -4.501  29.728  0.00  0.00    -0.004 A 
ATOM      7  C   UNL A   1     -25.119  -5.534  29.064  0.00  0.00    -0.000 A 
ATOM      8  C   UNL A   1     -24.019  -4.908  28.441  0.00  0.00    -0.000 A 
ATOM      9  C   UNL A   1     -23.974  -3.538  28.479  0.00  0.00    -0.001 A 
ATOM     10  C   UNL A   1     -24.933  -2.785  29.063  0.00  0.00    +0.014 A 
ATOM     11  C   UNL A   1     -24.530  -1.468  29.223  0.00  0.00    +0.198 C 
ENDROOT
BRANCH  11  12
ATOM     12  C   UNL A   1     -23.444  -0.695  28.594  0.00  0.00    +0.131 C 
BRANCH  12  13
ATOM     13  C   UNL A   1     -22.425  -0.390  29.380  0.00  0.00    +0.334 C 
ATOM     14 CL   UNL A   1     -22.283  -0.683  30.539  0.00  0.00    -0.047 Cl
ATOM     15  F   UNL A   1     -21.214  -0.663  28.713  0.00  0.00    -0.187 F 
ATOM     16  F   UNL A   1     -22.288   1.042  29.138  0.00  0.00    -0.187 F 
ENDBRANCH  12  13
ENDBRANCH  11  12
TORSDOF 2
ENDMDL
ENDMDL
