REMARK  Name = No_3979-gen_results/8p0m/2024-11-26-14-13-15/
REMARK  2 active torsions:
REMARK  status: ('A' for Active; 'I' for Inactive)
REMARK    1  A    between atoms: C_11  and  C_12
REMARK    2  A    between atoms: C_12  and  C_13
REMARK                            x       y       z     vdW  Elec       q    Type
REMARK                         _______ _______ _______ _____ _____    ______ ____
ROOT
ATOM      1  O   UNL A   1     -28.123  -1.335  28.487  0.00  0.00    -0.250 OA
ATOM      2  C   UNL A   1     -28.521  -0.436  29.078  0.00  0.00    +0.322 C 
ATOM      3  O   UNL A   1     -27.915   0.078  30.039  0.00  0.00    -0.447 OA
ATOM      4  C   UNL A   1     -29.807   0.189  28.663  0.00  0.00    +0.136 C 
ATOM      5  C   UNL A   1     -29.710   1.376  28.163  0.00  0.00    -0.012 A 
ATOM      6  C   UNL A   1     -29.990   2.016  27.386  0.00  0.00    -0.004 A 
ATOM      7  C   UNL A   1     -29.773   3.508  26.987  0.00  0.00    -0.000 A 
ATOM      8  C   UNL A   1     -28.796   4.133  27.790  0.00  0.00    -0.000 A 
ATOM      9  C   UNL A   1     -28.228   3.380  28.785  0.00  0.00    -0.001 A 
ATOM     10  C   UNL A   1     -28.576   2.096  29.027  0.00  0.00    +0.014 A 
ATOM     11  C   UNL A   1     -27.677   1.469  29.877  0.00  0.00    +0.198 C 
ENDROOT
BRANCH  11  12
ATOM     12  C   UNL A   1     -26.659   2.011  30.795  0.00  0.00    +0.131 C 
BRANCH  12  13
ATOM     13  C   UNL A   1     -25.582   2.522  30.222  0.00  0.00    +0.334 C 
ATOM     14 CL   UNL A   1     -25.534   3.192  29.223  0.00  0.00    -0.047 Cl
ATOM     15  F   UNL A   1     -24.776   3.142  31.198  0.00  0.00    -0.187 F 
ATOM     16  F   UNL A   1     -24.701   1.361  30.168  0.00  0.00    -0.187 F 
ENDBRANCH  12  13
ENDBRANCH  11  12
TORSDOF 2
