MODEL 397
MODEL 1
REMARK VINA RESULT:    -7.573      0.000      0.000
REMARK INTER + INTRA:         -11.650
REMARK INTER:                 -10.229
REMARK INTRA:                  -1.421
REMARK UNBOUND:                -1.421
REMARK  Name = No_397-gen_results/8p0m/2024-11-26-14-13-15/
REMARK  6 active torsions:
REMARK  status: ('A' for Active; 'I' for Inactive)
REMARK    1  A    between atoms: C_3  and  C_13
REMARK    2  A    between atoms: C_13  and  O_15
REMARK    3  A    between atoms: O_15  and  C_16
REMARK    4  A    between atoms: C_21  and  C_22
REMARK    5  A    between atoms: C_27  and  O_28
REMARK    6  A    between atoms: O_28  and  C_29
REMARK                            x       y       z     vdW  Elec       q    Type
REMARK                         _______ _______ _______ _____ _____    ______ ____
ROOT
ATOM      1  O   UNL A   1     -23.565   0.843  26.858  0.00  0.00    -0.421 OA
ENDROOT
BRANCH   1   2
ATOM      2  C   UNL A   1     -24.465   1.005  26.285  0.00  0.00    +0.149 A 
ATOM      3  C   UNL A   1     -25.045   2.105  26.252  0.00  0.00    +0.038 A 
ATOM      4  C   UNL A   1     -25.079  -0.078  25.567  0.00  0.00    +0.038 A 
ATOM      5  C   UNL A   1     -26.336   2.435  25.558  0.00  0.00    +0.003 A 
ATOM      6  C   UNL A   1     -26.304   0.125  24.807  0.00  0.00    +0.003 A 
ATOM      7  C   UNL A   1     -26.901   1.401  24.824  0.00  0.00    +0.000 A 
BRANCH   7   8
ATOM      8  C   UNL A   1     -28.142   1.678  24.081  0.00  0.00    +0.003 A 
ATOM      9  C   UNL A   1     -28.725   2.344  23.603  0.00  0.00    +0.000 A 
ATOM     10  C   UNL A   1     -30.034   2.256  22.968  0.00  0.00    +0.003 A 
ATOM     11  C   UNL A   1     -30.560   0.981  22.922  0.00  0.00    +0.037 A 
ATOM     12  C   UNL A   1     -28.907   0.206  24.014  0.00  0.00    +0.037 A 
ATOM     13  C   UNL A   1     -29.838   0.086  23.656  0.00  0.00    +0.145 A 
BRANCH  13  14
ATOM     14  O   UNL A   1     -30.426  -1.250  23.591  0.00  0.00    -0.450 OA
BRANCH  14  15
ATOM     15  C   UNL A   1     -30.955  -1.880  24.212  0.00  0.00    +0.180 C 
ATOM     16  C   UNL A   1     -32.033  -2.191  24.291  0.00  0.00    +0.044 C 
ENDBRANCH  14  15
ENDBRANCH  13  14
ENDBRANCH   7   8
ENDBRANCH   1   2
BRANCH   1  17
ATOM     17  C   UNL A   1     -23.309   0.627  28.254  0.00  0.00    +0.346 C 
ATOM     18  O   UNL A   1     -22.422   1.080  28.631  0.00  0.00    -0.244 OA
BRANCH  17  21
ATOM     19 CL   UNL A   1     -25.868   1.564  29.452  0.00  0.00    -0.082 Cl
ATOM     20  C   UNL A   1     -25.421   0.205  29.276  0.00  0.00    +0.065 A 
ATOM     21  C   UNL A   1     -24.359  -0.181  28.939  0.00  0.00    +0.087 A 
ATOM     22  C   UNL A   1     -23.987  -1.586  28.801  0.00  0.00    +0.013 A 
ATOM     23  C   UNL A   1     -24.974  -2.591  29.040  0.00  0.00    +0.070 A 
ATOM     24  C   UNL A   1     -26.196  -2.142  29.424  0.00  0.00    +0.072 A 
ATOM     25  C   UNL A   1     -26.466  -0.834  29.559  0.00  0.00    +0.028 A 
ATOM     26  C   UNL A   1     -24.672  -4.016  28.852  0.00  0.00    +0.268 C 
ATOM     27  N   UNL A   1     -25.588  -4.940  29.158  0.00  0.00    -0.178 NA
ATOM     28  O   UNL A   1     -23.707  -4.361  28.106  0.00  0.00    -0.268 OA
ATOM     29  C   UNL A   1     -26.643  -4.786  30.041  0.00  0.00    +0.227 C 
ATOM     30  N   UNL A   1     -27.000  -3.435  30.202  0.00  0.00    -0.214 NA
ENDBRANCH  17  21
ENDBRANCH   1  17
TORSDOF 6
ENDMDL
ENDMDL
