REMARK  Name = No_398-gen_results/8p0m/2024-11-26-14-13-15/
REMARK  8 active torsions:
REMARK  status: ('A' for Active; 'I' for Inactive)
REMARK    1  A    between atoms: C_3  and  C_4
REMARK    2  A    between atoms: C_6  and  C_14
REMARK    3  A    between atoms: N_15  and  C_17
REMARK    4  A    between atoms: C_17  and  C_18
REMARK    5  A    between atoms: C_17  and  C_19
REMARK    6  A    between atoms: C_18  and  C_22
REMARK    7  A    between atoms: C_24  and  C_32
REMARK    8  A    between atoms: C_27  and  C_29
REMARK                            x       y       z     vdW  Elec       q    Type
REMARK                         _______ _______ _______ _____ _____    ______ ____
ROOT
ATOM      1  C   UNL A   1     -28.672  -3.097  30.530  0.00  0.00    +0.194 C 
ENDROOT
BRANCH   1   2
ATOM      2  C   UNL A   1     -28.864  -4.644  30.564  0.00  0.00    +0.416 C 
ATOM      3  F   UNL A   1     -29.132  -5.034  29.431  0.00  0.00    -0.168 F 
ATOM      4  F   UNL A   1     -29.938  -4.923  31.383  0.00  0.00    -0.168 F 
ATOM      5  F   UNL A   1     -27.798  -5.256  30.987  0.00  0.00    -0.168 F 
ENDBRANCH   1   2
BRANCH   1   7
ATOM      6  C   UNL A   1     -30.162  -1.255  30.108  0.00  0.00    +0.265 C 
ATOM      7  N   UNL A   1     -29.982  -2.398  30.549  0.00  0.00    -0.194 NA
ATOM      8  O   UNL A   1     -31.271  -0.751  30.420  0.00  0.00    -0.268 OA
BRANCH   6  12
ATOM      9  C   UNL A   1     -28.016  -0.814  28.878  0.00  0.00    +0.005 A 
ATOM     10  C   UNL A   1     -27.064  -0.119  28.608  0.00  0.00    +0.000 A 
ATOM     11  C   UNL A   1     -26.929   1.171  29.008  0.00  0.00    +0.000 A 
ATOM     12  C   UNL A   1     -29.071  -0.334  29.769  0.00  0.00    +0.055 A 
ATOM     13  C   UNL A   1     -29.013   0.933  30.172  0.00  0.00    +0.005 A 
ATOM     14  C   UNL A   1     -27.899   1.776  29.859  0.00  0.00    +0.000 A 
BRANCH  11  15
ATOM     15  C   UNL A   1     -25.770   2.034  28.688  0.00  0.00    +0.002 A 
ATOM     16  C   UNL A   1     -25.619   3.348  29.092  0.00  0.00    +0.000 A 
ATOM     17  C   UNL A   1     -24.542   4.109  28.653  0.00  0.00    +0.002 A 
ATOM     18  C   UNL A   1     -23.733   3.552  27.613  0.00  0.00    +0.030 A 
ATOM     19  C   UNL A   1     -24.851   1.683  27.630  0.00  0.00    +0.030 A 
ATOM     20  C   UNL A   1     -23.892   2.384  27.124  0.00  0.00    +0.140 A 
ATOM     21  F   UNL A   1     -23.079   1.952  26.176  0.00  0.00    -0.204 F 
ENDBRANCH  11  15
ENDBRANCH   6  12
ENDBRANCH   1   7
BRANCH   1  22
ATOM     22  C   UNL A   1     -27.817  -2.790  31.385  0.00  0.00    +0.057 C 
BRANCH  22  23
ATOM     23  C   UNL A   1     -28.155  -1.692  32.344  0.00  0.00    -0.015 A 
ATOM     24  C   UNL A   1     -27.148  -0.806  32.806  0.00  0.00    +0.053 A 
ATOM     25  C   UNL A   1     -27.445   0.181  33.764  0.00  0.00    +0.004 A 
ATOM     26  C   UNL A   1     -28.785   0.318  34.233  0.00  0.00    +0.007 A 
ATOM     27  C   UNL A   1     -29.701  -0.668  33.805  0.00  0.00    +0.080 A 
ATOM     28  C   UNL A   1     -29.374  -1.625  32.954  0.00  0.00    +0.003 A 
BRANCH  27  29
ATOM     29  C   UNL A   1     -31.073  -0.556  34.455  0.00  0.00    +0.388 C 
ATOM     30  O   UNL A   1     -31.884   0.126  33.926  0.00  0.00    -0.241 OA
ATOM     31  O   UNL A   1     -31.169  -1.002  35.672  0.00  0.00    -0.241 OA
ENDBRANCH  27  29
BRANCH  24  32
ATOM     32  C   UNL A   1     -25.775  -0.741  32.258  0.00  0.00    +0.284 C 
ATOM     33  O   UNL A   1     -25.445  -0.961  31.277  0.00  0.00    -0.267 OA
ATOM     34  N   UNL A   1     -24.799  -0.263  33.203  0.00  0.00    -0.084 NA
ENDBRANCH  24  32
ENDBRANCH  22  23
ENDBRANCH   1  22
TORSDOF 8
