REMARK  Name = No_3980-gen_results/8p0m/2024-11-26-14-13-15/
REMARK  4 active torsions:
REMARK  status: ('A' for Active; 'I' for Inactive)
REMARK    1  A    between atoms: C_3  and  C_7
REMARK    2  A    between atoms: C_7  and  C_9
REMARK    3  A    between atoms: N_8  and  C_15
REMARK    4  A    between atoms: C_15  and  C_16
REMARK                            x       y       z     vdW  Elec       q    Type
REMARK                         _______ _______ _______ _____ _____    ______ ____
ROOT
ATOM      1  C   UNL A   1     -27.459   0.493  26.770  0.00  0.00    +0.076 C 
ATOM      2  N   UNL A   1     -27.881   0.664  25.778  0.00  0.00    -0.266 NA
ENDROOT
BRANCH   1   5
ATOM      3  C   UNL A   1     -28.016  -0.814  28.878  0.00  0.00    +0.002 A 
ATOM      4  C   UNL A   1     -28.469  -0.785  29.829  0.00  0.00    +0.000 A 
ATOM      5  C   UNL A   1     -28.182   0.428  28.113  0.00  0.00    +0.017 A 
ATOM      6  C   UNL A   1     -28.984   1.415  28.515  0.00  0.00    +0.002 A 
ATOM      7  C   UNL A   1     -29.380   0.138  30.461  0.00  0.00    +0.000 A 
ATOM      8  C   UNL A   1     -29.541   1.274  29.724  0.00  0.00    +0.000 A 
ENDBRANCH   1   5
BRANCH   1   9
ATOM      9  C   UNL A   1     -25.936   0.312  26.830  0.00  0.00    +0.017 A 
ATOM     10  C   UNL A   1     -25.124   0.130  27.928  0.00  0.00    +0.002 A 
ATOM     11  C   UNL A   1     -24.009   0.322  28.153  0.00  0.00    +0.000 A 
ATOM     12  C   UNL A   1     -23.236   1.019  27.081  0.00  0.00    +0.000 A 
ATOM     13  C   UNL A   1     -23.941   1.448  25.950  0.00  0.00    +0.000 A 
ATOM     14  C   UNL A   1     -25.321   1.238  25.820  0.00  0.00    +0.002 A 
ENDBRANCH   1   9
BRANCH   2  15
ATOM     15  C   UNL A   1     -28.732  -0.047  25.175  0.00  0.00    +0.152 C 
BRANCH  15  16
ATOM     16  C   UNL A   1     -29.239   0.382  23.915  0.00  0.00    +0.002 A 
ATOM     17  C   UNL A   1     -30.466   0.053  23.589  0.00  0.00    -0.002 A 
ATOM     18  C   UNL A   1     -31.288   0.740  22.752  0.00  0.00    -0.000 A 
ATOM     19  C   UNL A   1     -30.848   2.104  22.388  0.00  0.00    -0.000 A 
ATOM     20  C   UNL A   1     -29.636   2.554  22.966  0.00  0.00    -0.000 A 
ATOM     21  C   UNL A   1     -28.974   1.809  23.767  0.00  0.00    -0.002 A 
ENDBRANCH  15  16
ENDBRANCH   2  15
TORSDOF 4
