MODEL 3980
MODEL 1
REMARK VINA RESULT:    -8.146      0.000      0.000
REMARK INTER + INTRA:         -11.288
REMARK INTER:                 -10.051
REMARK INTRA:                  -1.238
REMARK UNBOUND:                -1.238
REMARK  Name = No_3980-gen_results/8p0m/2024-11-26-14-13-15/
REMARK  4 active torsions:
REMARK  status: ('A' for Active; 'I' for Inactive)
REMARK    1  A    between atoms: C_3  and  C_7
REMARK    2  A    between atoms: C_7  and  C_9
REMARK    3  A    between atoms: N_8  and  C_15
REMARK    4  A    between atoms: C_15  and  C_16
REMARK                            x       y       z     vdW  Elec       q    Type
REMARK                         _______ _______ _______ _____ _____    ______ ____
ROOT
ATOM      1  C   UNL A   1     -25.262  -1.315  29.640  0.00  0.00    +0.076 C 
ATOM      2  N   UNL A   1     -25.698  -0.546  29.000  0.00  0.00    -0.266 NA
ENDROOT
BRANCH   1   5
ATOM      3  C   UNL A   1     -26.200  -3.667  29.858  0.00  0.00    +0.002 A 
ATOM      4  C   UNL A   1     -26.094  -4.678  29.581  0.00  0.00    +0.000 A 
ATOM      5  C   UNL A   1     -25.114  -2.809  29.367  0.00  0.00    +0.017 A 
ATOM      6  C   UNL A   1     -24.017  -3.302  28.792  0.00  0.00    +0.002 A 
ATOM      7  C   UNL A   1     -25.014  -5.433  28.992  0.00  0.00    +0.000 A 
ATOM      8  C   UNL A   1     -24.004  -4.622  28.566  0.00  0.00    +0.000 A 
ENDBRANCH   1   5
BRANCH   1   9
ATOM      9  C   UNL A   1     -24.743  -0.838  31.004  0.00  0.00    +0.017 A 
ATOM     10  C   UNL A   1     -23.636  -1.257  31.709  0.00  0.00    +0.002 A 
ATOM     11  C   UNL A   1     -23.334  -1.252  32.822  0.00  0.00    +0.000 A 
ATOM     12  C   UNL A   1     -24.382  -0.791  33.782  0.00  0.00    +0.000 A 
ATOM     13  C   UNL A   1     -25.647  -0.490  33.264  0.00  0.00    +0.000 A 
ATOM     14  C   UNL A   1     -25.931  -0.615  31.897  0.00  0.00    +0.002 A 
ENDBRANCH   1   9
BRANCH   2  15
ATOM     15  C   UNL A   1     -25.312  -0.199  27.849  0.00  0.00    +0.152 C 
BRANCH  15  16
ATOM     16  C   UNL A   1     -24.397   0.884  27.713  0.00  0.00    +0.002 A 
ATOM     17  C   UNL A   1     -23.157   0.708  28.104  0.00  0.00    -0.002 A 
ATOM     18  C   UNL A   1     -22.062   1.352  27.620  0.00  0.00    -0.000 A 
ATOM     19  C   UNL A   1     -22.261   2.122  26.374  0.00  0.00    -0.000 A 
ATOM     20  C   UNL A   1     -23.559   2.087  25.808  0.00  0.00    -0.000 A 
ATOM     21  C   UNL A   1     -24.496   1.411  26.356  0.00  0.00    -0.002 A 
ENDBRANCH  15  16
ENDBRANCH   2  15
TORSDOF 4
ENDMDL
ENDMDL
