MODEL 3981
MODEL 1
REMARK VINA RESULT:    -4.340      0.000      0.000
REMARK INTER + INTRA:          -4.340
REMARK INTER:                  -4.340
REMARK INTRA:                   0.000
REMARK UNBOUND:                 0.000
REMARK  Name = No_3981-gen_results/8p0m/2024-11-26-14-13-15/
REMARK  0 active torsions:
REMARK  status: ('A' for Active; 'I' for Inactive)
REMARK                            x       y       z     vdW  Elec       q    Type
REMARK                         _______ _______ _______ _____ _____    ______ ____
ROOT
ATOM      1  C   UNL A   1     -23.953  -3.500  28.950  0.00  0.00    +0.024 A 
ATOM      2  C   UNL A   1     -24.836  -4.053  29.106  0.00  0.00    +0.059 A 
ATOM      3  C   UNL A   1     -24.084  -2.081  29.281  0.00  0.00    +0.069 A 
ATOM      4  C   UNL A   1     -25.020  -1.650  29.810  0.00  0.00    +0.068 A 
ATOM      5  C   UNL A   1     -26.120  -3.756  29.710  0.00  0.00    +0.012 A 
ATOM      6  C   UNL A   1     -26.186  -2.380  30.062  0.00  0.00    +0.013 A 
ATOM      7 CL   UNL A   1     -22.630  -1.106  29.046  0.00  0.00    -0.081 Cl
ATOM      8 CL   UNL A   1     -24.816  -5.861  28.756  0.00  0.00    -0.082 Cl
ATOM      9 CL   UNL A   1     -25.181   0.116  30.254  0.00  0.00    -0.081 Cl
ENDROOT
TORSDOF 0
ENDMDL
ENDMDL
