REMARK  Name = No_3981-gen_results/8p0m/2024-11-26-14-13-15/
REMARK  0 active torsions:
REMARK  status: ('A' for Active; 'I' for Inactive)
REMARK                            x       y       z     vdW  Elec       q    Type
REMARK                         _______ _______ _______ _____ _____    ______ ____
ROOT
ATOM      1  C   UNL A   1     -28.016  -0.814  28.878  0.00  0.00    +0.024 A 
ATOM      2  C   UNL A   1     -28.469  -0.785  29.829  0.00  0.00    +0.059 A 
ATOM      3  C   UNL A   1     -27.087   0.290  28.638  0.00  0.00    +0.069 A 
ATOM      4  C   UNL A   1     -26.768   1.027  29.472  0.00  0.00    +0.068 A 
ATOM      5  C   UNL A   1     -28.276   0.027  31.015  0.00  0.00    +0.012 A 
ATOM      6  C   UNL A   1     -27.329   1.054  30.753  0.00  0.00    +0.013 A 
ATOM      7 CL   UNL A   1     -26.291   0.287  27.061  0.00  0.00    -0.081 Cl
ATOM      8 CL   UNL A   1     -29.646  -2.125  30.285  0.00  0.00    -0.082 Cl
ATOM      9 CL   UNL A   1     -25.585   2.392  29.189  0.00  0.00    -0.081 Cl
ENDROOT
TORSDOF 0
