REMARK  Name = No_3982-gen_results/8p0m/2024-11-26-14-13-15/
REMARK  10 active torsions:
REMARK  status: ('A' for Active; 'I' for Inactive)
REMARK    1  A    between atoms: C_3  and  C_7
REMARK    2  A    between atoms: C_7  and  C_8
REMARK    3  A    between atoms: C_8  and  C_9
REMARK    4  A    between atoms: C_13  and  C_15
REMARK    5  A    between atoms: C_15  and  C_19
REMARK    6  A    between atoms: C_19  and  C_20
REMARK    7  A    between atoms: C_20  and  C_21
REMARK    8  A    between atoms: C_21  and  C_22
REMARK    9  A    between atoms: C_22  and  C_23
REMARK   10  A    between atoms: C_23  and  C_24
REMARK                            x       y       z     vdW  Elec       q    Type
REMARK                         _______ _______ _______ _____ _____    ______ ____
ROOT
ATOM      1  C   UNL A   1     -25.203   1.410  27.343  0.00  0.00    -0.015 A 
ATOM      2  C   UNL A   1     -24.279   2.411  27.215  0.00  0.00    -0.004 A 
ATOM      3  C   UNL A   1     -22.995   2.338  27.851  0.00  0.00    -0.001 A 
ATOM      4  C   UNL A   1     -22.658   1.087  28.533  0.00  0.00    -0.004 A 
ATOM      5  C   UNL A   1     -23.578   0.086  28.546  0.00  0.00    -0.023 A 
ATOM      6  C   UNL A   1     -24.824   0.213  27.975  0.00  0.00    -0.008 A 
ENDROOT
BRANCH   1   7
ATOM      7  C   UNL A   1     -26.481   1.521  26.630  0.00  0.00    +0.084 C 
ATOM      8  C   UNL A   1     -26.410   2.018  25.242  0.00  0.00    +0.013 C 
BRANCH   7   9
ATOM      9  C   UNL A   1     -27.459   0.493  26.770  0.00  0.00    +0.177 C 
ATOM     10  O   UNL A   1     -27.947  -0.136  25.807  0.00  0.00    -0.291 OA
BRANCH   9  13
ATOM     11  C   UNL A   1     -28.016  -0.814  28.878  0.00  0.00    +0.003 A 
ATOM     12  C   UNL A   1     -28.469  -0.785  29.829  0.00  0.00    +0.000 A 
ATOM     13  C   UNL A   1     -28.182   0.428  28.113  0.00  0.00    +0.035 A 
ATOM     14  C   UNL A   1     -28.984   1.415  28.515  0.00  0.00    +0.003 A 
ATOM     15  C   UNL A   1     -29.380   0.138  30.461  0.00  0.00    +0.000 A 
ATOM     16  C   UNL A   1     -29.541   1.274  29.724  0.00  0.00    +0.000 A 
ENDBRANCH   9  13
ENDBRANCH   7   9
ENDBRANCH   1   7
BRANCH   5  17
ATOM     17  C   UNL A   1     -23.248  -1.164  29.284  0.00  0.00    +0.022 C 
ATOM     18  C   UNL A   1     -22.641  -1.086  30.529  0.00  0.00    +0.005 C 
BRANCH  17  19
ATOM     19  C   UNL A   1     -23.766  -2.388  28.828  0.00  0.00    +0.004 C 
BRANCH  19  20
ATOM     20  C   UNL A   1     -24.466  -3.241  29.785  0.00  0.00    +0.000 C 
BRANCH  20  21
ATOM     21  C   UNL A   1     -25.301  -4.226  29.076  0.00  0.00    +0.001 C 
BRANCH  21  22
ATOM     22  C   UNL A   1     -26.523  -4.583  29.881  0.00  0.00    +0.012 C 
BRANCH  22  23
ATOM     23  C   UNL A   1     -27.839  -4.106  29.242  0.00  0.00    +0.114 C 
BRANCH  23  24
ATOM     24  C   UNL A   1     -29.019  -4.641  29.994  0.00  0.00    +0.365 C 
ATOM     25  O   UNL A   1     -28.964  -4.981  31.154  0.00  0.00    -0.246 OA
ATOM     26  O   UNL A   1     -30.084  -4.741  29.337  0.00  0.00    -0.246 OA
ENDBRANCH  23  24
ENDBRANCH  22  23
ENDBRANCH  21  22
ENDBRANCH  20  21
ENDBRANCH  19  20
ENDBRANCH  17  19
ENDBRANCH   5  17
TORSDOF 10
