MODEL 3982
MODEL 1
REMARK VINA RESULT:    -6.875      0.000      0.000
REMARK INTER + INTRA:         -13.831
REMARK INTER:                 -10.895
REMARK INTRA:                  -2.937
REMARK UNBOUND:                -2.937
REMARK  Name = No_3982-gen_results/8p0m/2024-11-26-14-13-15/
REMARK  10 active torsions:
REMARK  status: ('A' for Active; 'I' for Inactive)
REMARK    1  A    between atoms: C_3  and  C_7
REMARK    2  A    between atoms: C_7  and  C_8
REMARK    3  A    between atoms: C_8  and  C_9
REMARK    4  A    between atoms: C_13  and  C_15
REMARK    5  A    between atoms: C_15  and  C_19
REMARK    6  A    between atoms: C_19  and  C_20
REMARK    7  A    between atoms: C_20  and  C_21
REMARK    8  A    between atoms: C_21  and  C_22
REMARK    9  A    between atoms: C_22  and  C_23
REMARK   10  A    between atoms: C_23  and  C_24
REMARK                            x       y       z     vdW  Elec       q    Type
REMARK                         _______ _______ _______ _____ _____    ______ ____
ROOT
ATOM      1  C   UNL A   1     -23.308   0.028  28.303  0.00  0.00    -0.015 A 
ATOM      2  C   UNL A   1     -22.325   0.974  28.188  0.00  0.00    -0.004 A 
ATOM      3  C   UNL A   1     -22.276   1.879  27.076  0.00  0.00    -0.001 A 
ATOM      4  C   UNL A   1     -23.397   1.842  26.135  0.00  0.00    -0.004 A 
ATOM      5  C   UNL A   1     -24.398   0.947  26.351  0.00  0.00    -0.023 A 
ATOM      6  C   UNL A   1     -24.383   0.052  27.398  0.00  0.00    -0.008 A 
ENDROOT
BRANCH   1   7
ATOM      7  C   UNL A   1     -23.332  -0.838  29.487  0.00  0.00    +0.084 C 
ATOM      8  C   UNL A   1     -22.528  -0.386  30.640  0.00  0.00    +0.013 C 
BRANCH   7   9
ATOM      9  C   UNL A   1     -24.560  -1.430  29.904  0.00  0.00    +0.177 C 
ATOM     10  O   UNL A   1     -25.306  -0.937  30.777  0.00  0.00    -0.291 OA
BRANCH   9  13
ATOM     11  C   UNL A   1     -26.025  -3.507  29.969  0.00  0.00    +0.003 A 
ATOM     12  C   UNL A   1     -26.159  -4.491  29.618  0.00  0.00    +0.000 A 
ATOM     13  C   UNL A   1     -24.768  -2.893  29.522  0.00  0.00    +0.035 A 
ATOM     14  C   UNL A   1     -23.817  -3.585  28.893  0.00  0.00    +0.003 A 
ATOM     15  C   UNL A   1     -25.287  -5.432  28.958  0.00  0.00    +0.000 A 
ATOM     16  C   UNL A   1     -24.115  -4.850  28.573  0.00  0.00    +0.000 A 
ENDBRANCH   9  13
ENDBRANCH   7   9
ENDBRANCH   1   7
BRANCH   5  17
ATOM     17  C   UNL A   1     -25.509   0.881  25.363  0.00  0.00    +0.022 C 
ATOM     18  C   UNL A   1     -25.780  -0.315  24.715  0.00  0.00    +0.005 C 
BRANCH  17  19
ATOM     19  C   UNL A   1     -26.415   1.951  25.276  0.00  0.00    +0.004 C 
BRANCH  19  20
ATOM     20  C   UNL A   1     -27.034   2.434  26.507  0.00  0.00    +0.000 C 
BRANCH  20  21
ATOM     21  C   UNL A   1     -26.495   3.758  26.865  0.00  0.00    +0.001 C 
BRANCH  21  22
ATOM     22  C   UNL A   1     -26.081   3.803  28.313  0.00  0.00    +0.012 C 
BRANCH  22  23
ATOM     23  C   UNL A   1     -26.355   2.492  29.070  0.00  0.00    +0.114 C 
BRANCH  23  24
ATOM     24  C   UNL A   1     -25.606   2.462  30.367  0.00  0.00    +0.365 C 
ATOM     25  O   UNL A   1     -24.404   2.578  30.439  0.00  0.00    -0.246 OA
ATOM     26  O   UNL A   1     -26.305   2.285  31.395  0.00  0.00    -0.246 OA
ENDBRANCH  23  24
ENDBRANCH  22  23
ENDBRANCH  21  22
ENDBRANCH  20  21
ENDBRANCH  19  20
ENDBRANCH  17  19
ENDBRANCH   5  17
TORSDOF 10
ENDMDL
ENDMDL
