MODEL 3983
MODEL 1
REMARK VINA RESULT:    -6.487      0.000      0.000
REMARK INTER + INTRA:          -8.221
REMARK INTER:                  -7.624
REMARK INTRA:                  -0.597
REMARK UNBOUND:                -0.597
REMARK  Name = No_3983-gen_results/8p0m/2024-11-26-14-13-15/
REMARK  3 active torsions:
REMARK  status: ('A' for Active; 'I' for Inactive)
REMARK    1  A    between atoms: C_2  and  C_8
REMARK    2  A    between atoms: C_8  and  C_10
REMARK    3  A    between atoms: C_11  and  C_12
REMARK                            x       y       z     vdW  Elec       q    Type
REMARK                         _______ _______ _______ _____ _____    ______ ____
ROOT
ATOM      1  C   UNL A   1     -22.488   0.737  28.434  0.00  0.00    +0.031 C 
ATOM      2  C   UNL A   1     -23.608   0.303  28.292  0.00  0.00    +0.041 C 
ATOM      3  C   UNL A   1     -24.193   0.220  27.033  0.00  0.00    -0.029 C 
ATOM      4  C   UNL A   1     -24.874   0.973  26.519  0.00  0.00    -0.026 C 
ATOM      5  C   UNL A   1     -21.983   1.639  27.338  0.00  0.00    -0.030 C 
ATOM      6  C   UNL A   1     -22.701   2.292  26.278  0.00  0.00    -0.026 C 
ATOM      7  C   UNL A   1     -23.894   1.834  25.730  0.00  0.00    +0.051 C 
ENDROOT
BRANCH   2   8
ATOM      8  C   UNL A   1     -24.001  -0.751  29.297  0.00  0.00    +0.083 C 
ATOM      9 BR   UNL A   1     -24.659  -0.287  30.509  0.00  0.00    -0.076 Br
BRANCH   8  10
ATOM     10  C   UNL A   1     -23.629  -2.138  29.107  0.00  0.00    -0.015 C 
ATOM     11  C   UNL A   1     -24.442  -3.015  28.798  0.00  0.00    -0.004 C 
BRANCH  11  12
ATOM     12  C   UNL A   1     -24.091  -4.419  28.509  0.00  0.00    -0.005 C 
ATOM     13  C   UNL A   1     -24.902  -5.372  29.111  0.00  0.00    -0.026 C 
ATOM     14  C   UNL A   1     -26.145  -4.959  29.666  0.00  0.00    +0.031 C 
ENDBRANCH  11  12
ENDBRANCH   8  10
ENDBRANCH   2   8
TORSDOF 3
ENDMDL
ENDMDL
