REMARK  Name = No_3984-gen_results/8p0m/2024-11-26-14-13-15/
REMARK  5 active torsions:
REMARK  status: ('A' for Active; 'I' for Inactive)
REMARK    1  A    between atoms: C_8  and  C_9
REMARK    2  A    between atoms: C_9  and  C_10
REMARK    3  A    between atoms: C_12  and  C_14
REMARK    4  A    between atoms: C_14  and  O_18
REMARK    5  A    between atoms: O_18  and  C_20
REMARK                            x       y       z     vdW  Elec       q    Type
REMARK                         _______ _______ _______ _____ _____    ______ ____
ROOT
ATOM      1  C   UNL A   1     -28.016  -0.814  28.878  0.00  0.00    +0.042 A 
ATOM      2  C   UNL A   1     -27.064  -0.119  28.608  0.00  0.00    +0.003 A 
ATOM      3  C   UNL A   1     -25.765  -0.390  29.036  0.00  0.00    -0.004 A 
ATOM      4  C   UNL A   1     -25.530  -1.530  29.901  0.00  0.00    +0.003 A 
ATOM      5  C   UNL A   1     -26.689  -2.289  30.181  0.00  0.00    +0.042 A 
ATOM      6  C   UNL A   1     -27.873  -1.951  29.737  0.00  0.00    +0.196 A 
ATOM      7  O   UNL A   1     -28.930  -2.730  30.115  0.00  0.00    -0.287 OA
ATOM      8  C   UNL A   1     -24.539   0.421  28.742  0.00  0.00    -0.016 A 
ATOM      9  C   UNL A   1     -23.298   0.137  29.377  0.00  0.00    +0.046 A 
ATOM     10  C   UNL A   1     -23.239  -0.816  30.440  0.00  0.00    +0.002 A 
ATOM     11  C   UNL A   1     -24.334  -1.769  30.612  0.00  0.00    -0.000 A 
ENDROOT
BRANCH   9  12
ATOM     12  C   UNL A   1     -22.047   0.884  29.005  0.00  0.00    +0.346 C 
ATOM     13  O   UNL A   1     -21.051   0.028  28.883  0.00  0.00    -0.169 OA
BRANCH  12  14
ATOM     14  O   UNL A   1     -21.515   0.987  30.368  0.00  0.00    -0.385 OA
BRANCH  14  15
ATOM     15  C   UNL A   1     -22.244   0.608  31.260  0.00  0.00    +0.554 C 
ATOM     16  O   UNL A   1     -22.902   1.218  32.003  0.00  0.00    -0.200 OA
ATOM     17  O   UNL A   1     -21.499  -0.484  32.034  0.00  0.00    -0.200 OA
ENDBRANCH  14  15
ENDBRANCH  12  14
ENDBRANCH   9  12
BRANCH   8  18
ATOM     18  C   UNL A   1     -24.526   1.274  27.727  0.00  0.00    +0.057 C 
BRANCH  18  19
ATOM     19  C   UNL A   1     -23.317   1.986  27.403  0.00  0.00    +0.039 C 
ATOM     20  C   UNL A   1     -22.131   1.737  28.050  0.00  0.00    +0.275 C 
ATOM     21  F   UNL A   1     -21.042   2.407  27.709  0.00  0.00    -0.172 F 
ATOM     22  F   UNL A   1     -22.223   2.589  28.617  0.00  0.00    -0.172 F 
ENDBRANCH  18  19
ENDBRANCH   8  18
TORSDOF 5
