MODEL 3984
MODEL 1
REMARK VINA RESULT:    -6.272      0.000      0.000
REMARK INTER + INTRA:          -9.065
REMARK INTER:                  -8.106
REMARK INTRA:                  -0.959
REMARK UNBOUND:                -0.959
REMARK  Name = No_3984-gen_results/8p0m/2024-11-26-14-13-15/
REMARK  5 active torsions:
REMARK  status: ('A' for Active; 'I' for Inactive)
REMARK    1  A    between atoms: C_8  and  C_9
REMARK    2  A    between atoms: C_9  and  C_10
REMARK    3  A    between atoms: C_12  and  C_14
REMARK    4  A    between atoms: C_14  and  O_18
REMARK    5  A    between atoms: O_18  and  C_20
REMARK                            x       y       z     vdW  Elec       q    Type
REMARK                         _______ _______ _______ _____ _____    ______ ____
ROOT
ATOM      1  C   UNL A   1      -6.086  -0.377  11.530  0.00  0.00    +0.042 A 
ATOM      2  C   UNL A   1      -7.071   0.322  11.584  0.00  0.00    +0.003 A 
ATOM      3  C   UNL A   1      -7.764   0.766  10.458  0.00  0.00    -0.004 A 
ATOM      4  C   UNL A   1      -7.260   0.431   9.141  0.00  0.00    +0.003 A 
ATOM      5  C   UNL A   1      -6.101  -0.379   9.156  0.00  0.00    +0.042 A 
ATOM      6  C   UNL A   1      -5.515  -0.742  10.269  0.00  0.00    +0.196 A 
ATOM      7  O   UNL A   1      -4.371  -1.481  10.161  0.00  0.00    -0.287 OA
ATOM      8  C   UNL A   1      -8.989   1.630  10.445  0.00  0.00    -0.016 A 
ATOM      9  C   UNL A   1      -9.506   2.158   9.229  0.00  0.00    +0.046 A 
ATOM     10  C   UNL A   1      -8.764   2.019   8.016  0.00  0.00    +0.002 A 
ATOM     11  C   UNL A   1      -7.699   1.021   7.935  0.00  0.00    -0.000 A 
ENDROOT
BRANCH   9  12
ATOM     12  C   UNL A   1     -10.791   2.939   9.206  0.00  0.00    +0.346 C 
ATOM     13  O   UNL A   1     -11.477   2.612   8.128  0.00  0.00    -0.169 OA
BRANCH  12  14
ATOM     14  O   UNL A   1     -10.310   4.005   8.321  0.00  0.00    -0.385 OA
BRANCH  14  15
ATOM     15  C   UNL A   1     -10.439   5.140   8.728  0.00  0.00    +0.554 C 
ATOM     16  O   UNL A   1     -10.797   5.530   9.766  0.00  0.00    -0.200 OA
ATOM     17  O   UNL A   1     -11.127   5.952   7.626  0.00  0.00    -0.200 OA
ENDBRANCH  14  15
ENDBRANCH  12  14
ENDBRANCH   9  12
BRANCH   8  18
ATOM     18  C   UNL A   1      -9.743   1.742  11.530  0.00  0.00    +0.057 C 
BRANCH  18  19
ATOM     19  C   UNL A   1      -9.373   2.667  12.570  0.00  0.00    +0.039 C 
ATOM     20  C   UNL A   1     -10.058   3.839  12.778  0.00  0.00    +0.275 C 
ATOM     21  F   UNL A   1      -9.690   4.652  13.755  0.00  0.00    -0.172 F 
ATOM     22  F   UNL A   1      -9.319   4.390  12.324  0.00  0.00    -0.172 F 
ENDBRANCH  18  19
ENDBRANCH   8  18
TORSDOF 5
ENDMDL
ENDMDL
