MODEL 3985
MODEL 1
REMARK VINA RESULT:    -6.340      0.000      0.000
REMARK INTER + INTRA:          -8.140
REMARK INTER:                  -7.452
REMARK INTRA:                  -0.688
REMARK UNBOUND:                -0.688
REMARK  Name = No_3985-gen_results/8p0m/2024-11-26-14-13-15/
REMARK  3 active torsions:
REMARK  status: ('A' for Active; 'I' for Inactive)
REMARK    1  A    between atoms: C_2  and  C_6
REMARK    2  A    between atoms: C_7  and  C_22
REMARK    3  A    between atoms: C_11  and  C_15
REMARK                            x       y       z     vdW  Elec       q    Type
REMARK                         _______ _______ _______ _____ _____    ______ ____
ROOT
ATOM      1  C   UNL A   1     -33.335  -7.019  10.531  0.00  0.00    +0.003 A 
ATOM      2  C   UNL A   1     -33.463  -5.992  10.331  0.00  0.00    +0.080 A 
ATOM      3  C   UNL A   1     -32.016  -7.514  10.618  0.00  0.00    -0.018 A 
ATOM      4  C   UNL A   1     -30.916  -6.698  10.438  0.00  0.00    -0.003 A 
ATOM      5  C   UNL A   1     -31.174  -5.361  10.186  0.00  0.00    -0.000 A 
ATOM      6  C   UNL A   1     -32.507  -4.887  10.181  0.00  0.00    +0.006 A 
ATOM      7  C   UNL A   1     -31.681  -8.967  10.923  0.00  0.00    +0.052 C 
ATOM      8  C   UNL A   1     -31.054  -9.660  10.430  0.00  0.00    -0.003 C 
ATOM      9  C   UNL A   1     -30.204  -9.305   9.410  0.00  0.00    +0.006 C 
ATOM     10  C   UNL A   1     -29.517  -8.204   9.400  0.00  0.00    +0.057 C 
ATOM     11  C   UNL A   1     -29.640  -7.090   9.801  0.00  0.00    +0.011 C 
ATOM     12 CL   UNL A   1     -27.810  -8.483   8.704  0.00  0.00    -0.082 Cl
ENDROOT
BRANCH   8  13
ATOM     13  C   UNL A   1     -31.293 -11.156  10.613  0.00  0.00    +0.153 C 
ATOM     14  C   UNL A   1     -32.511 -11.602   9.965  0.00  0.00    +0.048 C 
ATOM     15  C   UNL A   1     -30.025 -11.907  10.309  0.00  0.00    +0.073 C 
ATOM     16  O   UNL A   1     -31.398 -11.308  12.043  0.00  0.00    -0.476 OA
ATOM     17  C   UNL A   1     -30.284 -11.816  12.638  0.00  0.00    +0.168 C 
ATOM     18  C   UNL A   1     -29.437 -12.175  11.539  0.00  0.00    +0.018 C 
ENDBRANCH   8  13
BRANCH   2  19
ATOM     19  C   UNL A   1     -34.896  -5.373  10.277  0.00  0.00    +0.388 C 
ATOM     20  O   UNL A   1     -35.222  -5.399   9.291  0.00  0.00    -0.241 OA
ATOM     21  O   UNL A   1     -35.498  -4.999  11.373  0.00  0.00    -0.241 OA
ENDBRANCH   2  19
BRANCH   6  22
ATOM     22  C   UNL A   1     -32.770  -3.457  10.085  0.00  0.00    -0.004 C 
ATOM     23  C   UNL A   1     -32.687  -2.835  11.091  0.00  0.00    -0.026 C 
ATOM     24  C   UNL A   1     -32.508  -3.373  12.414  0.00  0.00    +0.031 C 
ENDBRANCH   6  22
TORSDOF 3
ENDMDL
ENDMDL
