REMARK  Name = No_3985-gen_results/8p0m/2024-11-26-14-13-15/
REMARK  3 active torsions:
REMARK  status: ('A' for Active; 'I' for Inactive)
REMARK    1  A    between atoms: C_2  and  C_6
REMARK    2  A    between atoms: C_7  and  C_22
REMARK    3  A    between atoms: C_11  and  C_15
REMARK                            x       y       z     vdW  Elec       q    Type
REMARK                         _______ _______ _______ _____ _____    ______ ____
ROOT
ATOM      1  C   UNL A   1     -28.016  -0.814  28.878  0.00  0.00    +0.003 A 
ATOM      2  C   UNL A   1     -28.469  -0.785  29.829  0.00  0.00    +0.080 A 
ATOM      3  C   UNL A   1     -27.136   0.236  28.535  0.00  0.00    -0.018 A 
ATOM      4  C   UNL A   1     -26.875   1.282  29.398  0.00  0.00    -0.003 A 
ATOM      5  C   UNL A   1     -27.507   1.238  30.630  0.00  0.00    -0.000 A 
ATOM      6  C   UNL A   1     -28.322   0.132  30.967  0.00  0.00    +0.006 A 
ATOM      7  C   UNL A   1     -26.395   0.313  27.208  0.00  0.00    +0.052 C 
ATOM      8  C   UNL A   1     -26.316   1.087  26.493  0.00  0.00    -0.003 C 
ATOM      9  C   UNL A   1     -26.776   2.362  26.718  0.00  0.00    +0.006 C 
ATOM     10  C   UNL A   1     -26.656   2.977  27.855  0.00  0.00    +0.057 C 
ATOM     11  C   UNL A   1     -26.634   2.688  29.010  0.00  0.00    +0.011 C 
ATOM     12 CL   UNL A   1     -26.259   4.781  27.605  0.00  0.00    -0.082 Cl
ENDROOT
BRANCH   8  13
ATOM     13  C   UNL A   1     -25.970   0.745  25.046  0.00  0.00    +0.153 C 
ATOM     14  C   UNL A   1     -24.569   0.409  24.881  0.00  0.00    +0.048 C 
ATOM     15  C   UNL A   1     -26.988  -0.219  24.502  0.00  0.00    +0.073 C 
ATOM     16  O   UNL A   1     -26.286   1.955  24.329  0.00  0.00    -0.476 OA
ATOM     17  C   UNL A   1     -27.460   1.911  23.642  0.00  0.00    +0.168 C 
ATOM     18  C   UNL A   1     -27.886   0.549  23.770  0.00  0.00    +0.018 C 
ENDBRANCH   8  13
BRANCH   2  19
ATOM     19  C   UNL A   1     -29.409  -1.944  30.289  0.00  0.00    +0.388 C 
ATOM     20  O   UNL A   1     -30.333  -1.811  29.834  0.00  0.00    -0.241 OA
ATOM     21  O   UNL A   1     -28.956  -2.899  31.055  0.00  0.00    -0.241 OA
ENDBRANCH   2  19
BRANCH   6  22
ATOM     22  C   UNL A   1     -28.849   0.003  32.319  0.00  0.00    -0.004 C 
ATOM     23  C   UNL A   1     -28.655   0.915  33.052  0.00  0.00    -0.026 C 
ATOM     24  C   UNL A   1     -27.823   2.060  32.788  0.00  0.00    +0.031 C 
ENDBRANCH   6  22
TORSDOF 3
