MODEL 3986
MODEL 1
REMARK VINA RESULT:    -7.993      0.000      0.000
REMARK INTER + INTRA:          -8.995
REMARK INTER:                  -8.460
REMARK INTRA:                  -0.535
REMARK UNBOUND:                -0.535
REMARK  Name = No_3986-gen_results/8p0m/2024-11-26-14-13-15/
REMARK  1 active torsions:
REMARK  status: ('A' for Active; 'I' for Inactive)
REMARK    1  A    between atoms: C_2  and  C_7
REMARK                            x       y       z     vdW  Elec       q    Type
REMARK                         _______ _______ _______ _____ _____    ______ ____
ROOT
ATOM      1  C   UNL A   1     -24.105  -1.198  28.674  0.00  0.00    +0.000 A 
ATOM      2  C   UNL A   1     -24.220  -0.531  27.908  0.00  0.00    +0.000 A 
ATOM      3  C   UNL A   1     -23.450   0.724  27.573  0.00  0.00    +0.000 A 
ATOM      4  C   UNL A   1     -23.707   1.622  26.530  0.00  0.00    +0.000 A 
ATOM      5  C   UNL A   1     -24.679   1.274  25.618  0.00  0.00    +0.000 A 
ATOM      6  C   UNL A   1     -25.383   0.121  25.793  0.00  0.00    +0.000 A 
ATOM      7  C   UNL A   1     -25.245  -0.681  26.792  0.00  0.00    +0.000 A 
ATOM      8  C   UNL A   1     -22.879  -1.002  29.699  0.00  0.00    +0.000 A 
ATOM      9  C   UNL A   1     -21.918  -0.566  29.337  0.00  0.00    +0.000 A 
ATOM     10  C   UNL A   1     -22.197   0.759  28.404  0.00  0.00    +0.000 A 
ENDROOT
BRANCH   1  12
ATOM     11  C   UNL A   1     -25.875  -2.599  29.483  0.00  0.00    +0.000 A 
ATOM     12  C   UNL A   1     -24.781  -2.487  28.980  0.00  0.00    +0.000 A 
ATOM     13  C   UNL A   1     -24.041  -3.606  28.615  0.00  0.00    +0.000 A 
ATOM     14  C   UNL A   1     -24.535  -4.936  28.866  0.00  0.00    +0.000 A 
ATOM     15  C   UNL A   1     -25.798  -4.973  29.473  0.00  0.00    +0.000 A 
ATOM     16  C   UNL A   1     -26.449  -3.884  29.814  0.00  0.00    +0.000 A 
ENDBRANCH   1  12
TORSDOF 1
ENDMDL
ENDMDL
