REMARK  Name = No_3986-gen_results/8p0m/2024-11-26-14-13-15/
REMARK  1 active torsions:
REMARK  status: ('A' for Active; 'I' for Inactive)
REMARK    1  A    between atoms: C_2  and  C_7
REMARK                            x       y       z     vdW  Elec       q    Type
REMARK                         _______ _______ _______ _____ _____    ______ ____
ROOT
ATOM      1  C   UNL A   1     -27.106   1.102  27.759  0.00  0.00    +0.000 A 
ATOM      2  C   UNL A   1     -27.858   1.531  27.216  0.00  0.00    +0.000 A 
ATOM      3  C   UNL A   1     -27.843   2.721  26.286  0.00  0.00    +0.000 A 
ATOM      4  C   UNL A   1     -28.936   3.286  25.617  0.00  0.00    +0.000 A 
ATOM      5  C   UNL A   1     -30.140   2.621  25.695  0.00  0.00    +0.000 A 
ATOM      6  C   UNL A   1     -30.238   1.494  26.453  0.00  0.00    +0.000 A 
ATOM      7  C   UNL A   1     -29.283   0.999  27.162  0.00  0.00    +0.000 A 
ATOM      8  C   UNL A   1     -25.609   1.674  27.604  0.00  0.00    +0.000 A 
ATOM      9  C   UNL A   1     -25.273   2.087  26.623  0.00  0.00    +0.000 A 
ATOM     10  C   UNL A   1     -26.415   3.089  25.994  0.00  0.00    +0.000 A 
ENDROOT
BRANCH   1  12
ATOM     11  C   UNL A   1     -28.016  -0.814  28.878  0.00  0.00    +0.000 A 
ATOM     12  C   UNL A   1     -27.064  -0.119  28.608  0.00  0.00    +0.000 A 
ATOM     13  C   UNL A   1     -25.792  -0.430  29.076  0.00  0.00    +0.000 A 
ATOM     14  C   UNL A   1     -25.576  -1.565  29.936  0.00  0.00    +0.000 A 
ATOM     15  C   UNL A   1     -26.735  -2.300  30.217  0.00  0.00    +0.000 A 
ATOM     16  C   UNL A   1     -27.918  -1.954  29.763  0.00  0.00    +0.000 A 
ENDBRANCH   1  12
TORSDOF 1
