MODEL 3987
MODEL 1
REMARK VINA RESULT:    -7.958      0.000      0.000
REMARK INTER + INTRA:         -14.779
REMARK INTER:                 -11.679
REMARK INTRA:                  -3.100
REMARK UNBOUND:                -3.100
REMARK  Name = No_3987-gen_results/8p0m/2024-11-26-14-13-15/
REMARK  8 active torsions:
REMARK  status: ('A' for Active; 'I' for Inactive)
REMARK    1  A    between atoms: C_6  and  O_18
REMARK    2  A    between atoms: C_7  and  C_11
REMARK    3  A    between atoms: O_18  and  C_19
REMARK    4  A    between atoms: C_19  and  C_20
REMARK    5  A    between atoms: N_22  and  C_23
REMARK    6  A    between atoms: C_23  and  C_27
REMARK    7  A    between atoms: C_24  and  C_25
REMARK    8  A    between atoms: C_26  and  C_33
REMARK                            x       y       z     vdW  Elec       q    Type
REMARK                         _______ _______ _______ _____ _____    ______ ____
ROOT
ATOM      1  O   UNL A   1     -22.591   0.924  27.402  0.00  0.00    -0.466 OA
ENDROOT
BRANCH   1   7
ATOM      2  C   UNL A   1     -24.709   0.665  26.275  0.00  0.00    +0.037 A 
ATOM      3  C   UNL A   1     -25.793   1.098  25.961  0.00  0.00    +0.003 A 
ATOM      4  C   UNL A   1     -26.217   2.396  26.244  0.00  0.00    +0.003 A 
ATOM      5  C   UNL A   1     -25.349   3.272  27.006  0.00  0.00    +0.003 A 
ATOM      6  C   UNL A   1     -24.104   2.696  27.346  0.00  0.00    +0.037 A 
ATOM      7  C   UNL A   1     -23.796   1.461  27.041  0.00  0.00    +0.139 A 
ATOM      8  C   UNL A   1     -27.581   2.779  25.872  0.00  0.00    +0.039 A 
ATOM      9  C   UNL A   1     -27.977   4.037  26.204  0.00  0.00    +0.196 A 
ATOM     10  C   UNL A   1     -26.986   4.955  26.767  0.00  0.00    +0.042 A 
ATOM     11  C   UNL A   1     -25.766   4.579  27.225  0.00  0.00    +0.003 A 
ATOM     12  O   UNL A   1     -29.225   4.334  25.961  0.00  0.00    -0.287 OA
BRANCH   8  13
ATOM     13  C   UNL A   1     -28.521   1.984  25.164  0.00  0.00    +0.003 A 
ATOM     14  C   UNL A   1     -29.205   1.118  25.835  0.00  0.00    +0.000 A 
ATOM     15  C   UNL A   1     -29.400  -0.044  25.502  0.00  0.00    +0.000 A 
ATOM     16  C   UNL A   1     -29.298  -0.329  24.080  0.00  0.00    +0.000 A 
ATOM     17  C   UNL A   1     -28.706   0.591  23.249  0.00  0.00    +0.000 A 
ATOM     18  C   UNL A   1     -28.212   1.746  23.794  0.00  0.00    +0.000 A 
ENDBRANCH   8  13
ENDBRANCH   1   7
BRANCH   1  19
ATOM     19  C   UNL A   1     -22.317   0.679  28.699  0.00  0.00    +0.291 C 
BRANCH  19  20
ATOM     20  C   UNL A   1     -21.845  -0.643  28.879  0.00  0.00    +0.290 C 
ATOM     21  O   UNL A   1     -20.779  -0.997  28.833  0.00  0.00    -0.269 OA
ATOM     22  N   UNL A   1     -22.851  -1.656  29.109  0.00  0.00    -0.176 NA
BRANCH  22  23
ATOM     23  C   UNL A   1     -24.233  -1.379  29.263  0.00  0.00    +0.073 C 
ATOM     24  C   UNL A   1     -24.688  -0.553  29.789  0.00  0.00    +0.017 C 
BRANCH  23  25
ATOM     25  C   UNL A   1     -24.818  -2.749  29.108  0.00  0.00    +0.015 A 
ATOM     26  C   UNL A   1     -25.823  -3.101  29.647  0.00  0.00    +0.001 A 
ATOM     27  C   UNL A   1     -26.189  -4.548  29.695  0.00  0.00    +0.000 A 
ATOM     28  C   UNL A   1     -25.300  -5.398  29.120  0.00  0.00    +0.000 A 
ATOM     29  C   UNL A   1     -24.152  -4.988  28.560  0.00  0.00    +0.000 A 
ATOM     30  C   UNL A   1     -23.788  -3.646  28.600  0.00  0.00    +0.001 A 
ENDBRANCH  23  25
BRANCH  24  31
ATOM     31  C   UNL A   1     -25.509   0.233  29.926  0.00  0.00    +0.001 C 
ATOM     32  C   UNL A   1     -26.398   1.202  29.871  0.00  0.00    -0.000 C 
BRANCH  32  33
ATOM     33  C   UNL A   1     -27.296   1.980  30.032  0.00  0.00    -0.005 C 
ATOM     34  C   UNL A   1     -27.307   3.253  30.471  0.00  0.00    -0.026 C 
ATOM     35  C   UNL A   1     -26.194   3.982  30.669  0.00  0.00    +0.031 C 
ENDBRANCH  32  33
ENDBRANCH  24  31
ENDBRANCH  22  23
ENDBRANCH  19  20
ENDBRANCH   1  19
TORSDOF 8
ENDMDL
ENDMDL
