REMARK  Name = No_3987-gen_results/8p0m/2024-11-26-14-13-15/
REMARK  8 active torsions:
REMARK  status: ('A' for Active; 'I' for Inactive)
REMARK    1  A    between atoms: C_6  and  O_18
REMARK    2  A    between atoms: C_7  and  C_11
REMARK    3  A    between atoms: O_18  and  C_19
REMARK    4  A    between atoms: C_19  and  C_20
REMARK    5  A    between atoms: N_22  and  C_23
REMARK    6  A    between atoms: C_23  and  C_27
REMARK    7  A    between atoms: C_24  and  C_25
REMARK    8  A    between atoms: C_26  and  C_33
REMARK                            x       y       z     vdW  Elec       q    Type
REMARK                         _______ _______ _______ _____ _____    ______ ____
ROOT
ATOM      1  O   UNL A   1     -28.980  -2.694  30.043  0.00  0.00    -0.466 OA
ENDROOT
BRANCH   1   7
ATOM      2  C   UNL A   1     -28.016  -0.814  28.878  0.00  0.00    +0.037 A 
ATOM      3  C   UNL A   1     -27.064  -0.119  28.608  0.00  0.00    +0.003 A 
ATOM      4  C   UNL A   1     -25.765  -0.390  29.036  0.00  0.00    +0.003 A 
ATOM      5  C   UNL A   1     -25.530  -1.530  29.901  0.00  0.00    +0.003 A 
ATOM      6  C   UNL A   1     -26.689  -2.289  30.181  0.00  0.00    +0.037 A 
ATOM      7  C   UNL A   1     -27.873  -1.951  29.737  0.00  0.00    +0.139 A 
ATOM      8  C   UNL A   1     -24.708   0.567  28.701  0.00  0.00    +0.039 A 
ATOM      9  C   UNL A   1     -23.462   0.294  29.174  0.00  0.00    +0.196 A 
ATOM     10  C   UNL A   1     -23.235  -0.985  29.847  0.00  0.00    +0.042 A 
ATOM     11  C   UNL A   1     -24.221  -1.816  30.267  0.00  0.00    +0.003 A 
ATOM     12  O   UNL A   1     -22.550   1.203  28.958  0.00  0.00    -0.287 OA
BRANCH   8  13
ATOM     13  C   UNL A   1     -24.842   1.730  27.899  0.00  0.00    +0.003 A 
ATOM     14  C   UNL A   1     -25.122   2.843  28.493  0.00  0.00    +0.000 A 
ATOM     15  C   UNL A   1     -25.969   3.648  28.128  0.00  0.00    +0.000 A 
ATOM     16  C   UNL A   1     -26.323   3.613  26.719  0.00  0.00    +0.000 A 
ATOM     17  C   UNL A   1     -25.953   2.530  25.958  0.00  0.00    +0.000 A 
ATOM     18  C   UNL A   1     -25.275   1.505  26.561  0.00  0.00    +0.000 A 
ENDBRANCH   8  13
ENDBRANCH   1   7
BRANCH   1  19
ATOM     19  C   UNL A   1     -30.077  -2.102  30.557  0.00  0.00    +0.291 C 
BRANCH  19  20
ATOM     20  C   UNL A   1     -30.613  -2.862  31.623  0.00  0.00    +0.290 C 
ATOM     21  O   UNL A   1     -30.292  -3.887  31.957  0.00  0.00    -0.269 OA
ATOM     22  N   UNL A   1     -31.721  -2.269  32.338  0.00  0.00    -0.176 NA
BRANCH  22  23
ATOM     23  C   UNL A   1     -32.210  -0.960  32.096  0.00  0.00    +0.073 C 
ATOM     24  C   UNL A   1     -31.937  -0.047  32.603  0.00  0.00    +0.017 C 
BRANCH  23  25
ATOM     25  C   UNL A   1     -33.548  -1.262  31.493  0.00  0.00    +0.015 A 
ATOM     26  C   UNL A   1     -33.705  -2.016  30.582  0.00  0.00    +0.001 A 
ATOM     27  C   UNL A   1     -35.000  -2.047  29.839  0.00  0.00    +0.000 A 
ATOM     28  C   UNL A   1     -35.937  -1.157  30.256  0.00  0.00    +0.000 A 
ATOM     29  C   UNL A   1     -35.725  -0.284  31.252  0.00  0.00    +0.000 A 
ATOM     30  C   UNL A   1     -34.484  -0.213  31.876  0.00  0.00    +0.001 A 
ENDBRANCH  23  25
BRANCH  24  31
ATOM     31  C   UNL A   1     -31.739   1.080  32.625  0.00  0.00    +0.001 C 
ATOM     32  C   UNL A   1     -31.364   2.327  32.817  0.00  0.00    -0.000 C 
BRANCH  32  33
ATOM     33  C   UNL A   1     -31.147   3.506  32.779  0.00  0.00    -0.005 C 
ATOM     34  C   UNL A   1     -31.893   4.538  32.340  0.00  0.00    -0.026 C 
ATOM     35  C   UNL A   1     -33.186   4.425  31.987  0.00  0.00    +0.031 C 
ENDBRANCH  32  33
ENDBRANCH  24  31
ENDBRANCH  22  23
ENDBRANCH  19  20
ENDBRANCH   1  19
TORSDOF 8
