MODEL 3988
MODEL 1
REMARK VINA RESULT:    -5.867      0.000      0.000
REMARK INTER + INTRA:          -7.956
REMARK INTER:                  -7.582
REMARK INTRA:                  -0.374
REMARK UNBOUND:                -0.374
REMARK  Name = No_3988-gen_results/8p0m/2024-11-26-14-13-15/
REMARK  5 active torsions:
REMARK  status: ('A' for Active; 'I' for Inactive)
REMARK    1  A    between atoms: C_1  and  C_2
REMARK    2  A    between atoms: C_1  and  N_14
REMARK    3  A    between atoms: C_2  and  C_5
REMARK    4  A    between atoms: C_5  and  C_6
REMARK    5  A    between atoms: C_11  and  C_13
REMARK                            x       y       z     vdW  Elec       q    Type
REMARK                         _______ _______ _______ _____ _____    ______ ____
ROOT
ATOM      1  C   UNL A   1     -23.786  -1.332  29.305  0.00  0.00    -0.022 A 
ATOM      2  C   UNL A   1     -23.727  -2.543  29.244  0.00  0.00    -0.004 A 
ATOM      3  C   UNL A   1     -24.514  -3.268  28.963  0.00  0.00    -0.000 A 
ATOM      4  C   UNL A   1     -25.849  -3.245  29.610  0.00  0.00    -0.000 A 
ATOM      5  C   UNL A   1     -25.997  -2.323  30.639  0.00  0.00    -0.005 A 
ATOM      6  C   UNL A   1     -24.786  -0.934  30.484  0.00  0.00    -0.026 A 
ENDROOT
BRANCH   6   7
ATOM      7  C   UNL A   1     -24.347  -0.868  31.973  0.00  0.00    +0.022 C 
ATOM      8  C   UNL A   1     -23.045  -1.116  32.129  0.00  0.00    +0.005 C 
ATOM      9  C   UNL A   1     -25.195  -0.405  32.881  0.00  0.00    +0.005 C 
ENDBRANCH   6   7
BRANCH   1  10
ATOM     10  C   UNL A   1     -23.675  -0.382  28.357  0.00  0.00    +0.079 C 
BRANCH  10  11
ATOM     11  C   UNL A   1     -22.526   0.663  28.560  0.00  0.00    +0.246 C 
ATOM     12  F   UNL A   1     -22.726   1.176  29.665  0.00  0.00    -0.219 F 
ATOM     13 CL   UNL A   1     -20.925  -0.264  28.708  0.00  0.00    -0.076 Cl
BRANCH  11  14
ATOM     14  C   UNL A   1     -22.387   1.475  27.674  0.00  0.00    +0.270 C 
ATOM     15  O   UNL A   1     -21.110   1.849  27.392  0.00  0.00    -0.199 OA
BRANCH  14  16
ATOM     16  N   UNL A   1     -23.246   1.702  26.747  0.00  0.00    -0.184 NA
ATOM     17  C   UNL A   1     -23.098   2.346  25.476  0.00  0.00    +0.110 C 
ENDBRANCH  14  16
ENDBRANCH  11  14
ENDBRANCH  10  11
ENDBRANCH   1  10
TORSDOF 5
ENDMDL
ENDMDL
