REMARK  Name = No_3988-gen_results/8p0m/2024-11-26-14-13-15/
REMARK  5 active torsions:
REMARK  status: ('A' for Active; 'I' for Inactive)
REMARK    1  A    between atoms: C_1  and  C_2
REMARK    2  A    between atoms: C_1  and  N_14
REMARK    3  A    between atoms: C_2  and  C_5
REMARK    4  A    between atoms: C_5  and  C_6
REMARK    5  A    between atoms: C_11  and  C_13
REMARK                            x       y       z     vdW  Elec       q    Type
REMARK                         _______ _______ _______ _____ _____    ______ ____
ROOT
ATOM      1  C   UNL A   1     -25.704   1.794  29.395  0.00  0.00    -0.022 A 
ATOM      2  C   UNL A   1     -25.398   2.959  29.250  0.00  0.00    -0.004 A 
ATOM      3  C   UNL A   1     -25.325   3.553  28.319  0.00  0.00    -0.000 A 
ATOM      4  C   UNL A   1     -24.530   3.074  27.161  0.00  0.00    -0.000 A 
ATOM      5  C   UNL A   1     -23.825   1.895  27.369  0.00  0.00    -0.005 A 
ATOM      6  C   UNL A   1     -24.573   0.887  28.727  0.00  0.00    -0.026 A 
ENDROOT
BRANCH   6   7
ATOM      7  C   UNL A   1     -23.257   0.508  29.460  0.00  0.00    +0.022 C 
ATOM      8  C   UNL A   1     -23.388   0.542  30.787  0.00  0.00    +0.005 C 
ATOM      9  C   UNL A   1     -22.241   0.019  28.762  0.00  0.00    +0.005 C 
ENDBRANCH   6   7
BRANCH   1  10
ATOM     10  C   UNL A   1     -26.904   1.186  29.461  0.00  0.00    +0.079 C 
BRANCH  10  11
ATOM     11  C   UNL A   1     -27.064  -0.119  28.608  0.00  0.00    +0.246 C 
ATOM     12  F   UNL A   1     -27.043   0.244  27.428  0.00  0.00    -0.219 F 
ATOM     13 CL   UNL A   1     -25.544  -1.155  28.852  0.00  0.00    -0.076 Cl
BRANCH  11  14
ATOM     14  C   UNL A   1     -28.016  -0.814  28.878  0.00  0.00    +0.270 C 
ATOM     15  O   UNL A   1     -27.875  -1.643  29.947  0.00  0.00    -0.199 OA
BRANCH  14  16
ATOM     16  N   UNL A   1     -29.226  -0.568  28.526  0.00  0.00    -0.184 NA
ATOM     17  C   UNL A   1     -30.464  -1.109  29.002  0.00  0.00    +0.110 C 
ENDBRANCH  14  16
ENDBRANCH  11  14
ENDBRANCH  10  11
ENDBRANCH   1  10
TORSDOF 5
