MODEL 3989
MODEL 1
REMARK VINA RESULT:    -7.966      0.000      0.000
REMARK INTER + INTRA:         -13.500
REMARK INTER:                 -11.225
REMARK INTRA:                  -2.275
REMARK UNBOUND:                -2.275
REMARK  Name = No_3989-gen_results/8p0m/2024-11-26-14-13-15/
REMARK  7 active torsions:
REMARK  status: ('A' for Active; 'I' for Inactive)
REMARK    1  A    between atoms: C_2  and  C_5
REMARK    2  A    between atoms: C_3  and  C_10
REMARK    3  A    between atoms: C_6  and  C_30
REMARK    4  A    between atoms: C_10  and  C_26
REMARK    5  A    between atoms: C_11  and  C_12
REMARK    6  A    between atoms: C_16  and  C_18
REMARK    7  A    between atoms: C_19  and  C_20
REMARK                            x       y       z     vdW  Elec       q    Type
REMARK                         _______ _______ _______ _____ _____    ______ ____
ROOT
ATOM      1  C   UNL A   1      -9.347   0.846  35.706  0.00  0.00    +0.071 C 
ATOM      2  C   UNL A   1      -9.650   1.092  34.697  0.00  0.00    +0.004 C 
ENDROOT
BRANCH   1   5
ATOM      3  C   UNL A   1     -10.652   1.643  37.765  0.00  0.00    +0.006 A 
ATOM      4  C   UNL A   1     -11.349   1.386  38.513  0.00  0.00    +0.080 A 
ATOM      5  C   UNL A   1     -10.271   0.513  36.909  0.00  0.00    +0.004 A 
ATOM      6  C   UNL A   1     -10.633  -0.743  37.176  0.00  0.00    +0.004 A 
ATOM      7  C   UNL A   1     -11.488  -0.940  38.217  0.00  0.00    +0.072 A 
ATOM      8  C   UNL A   1     -11.873   0.139  38.932  0.00  0.00    +0.010 A 
BRANCH   7   9
ATOM      9  C   UNL A   1     -11.924  -2.322  38.518  0.00  0.00    +0.419 C 
ATOM     10  F   UNL A   1     -12.969  -2.531  38.638  0.00  0.00    -0.166 F 
ATOM     11  F   UNL A   1     -11.204  -2.832  39.586  0.00  0.00    -0.166 F 
ATOM     12  F   UNL A   1     -11.388  -3.052  37.419  0.00  0.00    -0.166 F 
ENDBRANCH   7   9
BRANCH   4  13
ATOM     13  C   UNL A   1     -11.884   2.520  39.493  0.00  0.00    +0.388 C 
ATOM     14  O   UNL A   1     -11.484   3.572  39.279  0.00  0.00    -0.241 OA
ATOM     15  O   UNL A   1     -12.877   2.225  40.298  0.00  0.00    -0.241 OA
ENDBRANCH   4  13
ENDBRANCH   1   5
BRANCH   2  16
ATOM     16  C   UNL A   1     -11.105   1.214  34.266  0.00  0.00    -0.000 A 
ATOM     17  C   UNL A   1     -11.511   0.874  32.931  0.00  0.00    -0.000 A 
ATOM     18  C   UNL A   1     -12.786   1.136  32.399  0.00  0.00    -0.000 A 
ATOM     19  C   UNL A   1     -13.626   1.923  33.233  0.00  0.00    -0.000 A 
ATOM     20  C   UNL A   1     -13.290   2.248  34.510  0.00  0.00    -0.000 A 
ATOM     21  C   UNL A   1     -12.003   1.993  34.989  0.00  0.00    -0.000 A 
BRANCH  20  22
ATOM     22  C   UNL A   1     -14.315   2.942  35.348  0.00  0.00    -0.000 C 
ATOM     23  C   UNL A   1     -14.542   2.895  36.528  0.00  0.00    +0.000 C 
BRANCH  23  24
ATOM     24  C   UNL A   1     -15.613   3.541  37.206  0.00  0.00    +0.000 A 
ATOM     25  C   UNL A   1     -16.282   4.359  36.749  0.00  0.00    +0.000 A 
ATOM     26  C   UNL A   1     -17.352   5.048  37.453  0.00  0.00    +0.000 A 
ATOM     27  C   UNL A   1     -17.657   4.582  38.701  0.00  0.00    +0.000 A 
ATOM     28  C   UNL A   1     -15.814   3.141  38.646  0.00  0.00    +0.000 A 
ATOM     29  C   UNL A   1     -16.853   3.680  39.334  0.00  0.00    +0.000 A 
ENDBRANCH  23  24
ENDBRANCH  20  22
ENDBRANCH   2  16
BRANCH   1  30
ATOM     30  C   UNL A   1      -7.947   0.496  36.076  0.00  0.00    +0.419 C 
ATOM     31  F   UNL A   1      -7.605   0.536  37.167  0.00  0.00    -0.166 F 
ATOM     32  F   UNL A   1      -7.140   1.294  35.257  0.00  0.00    -0.166 F 
ATOM     33  F   UNL A   1      -7.718  -0.788  35.538  0.00  0.00    -0.166 F 
ENDBRANCH   1  30
TORSDOF 7
ENDMDL
ENDMDL
