REMARK  Name = No_3989-gen_results/8p0m/2024-11-26-14-13-15/
REMARK  7 active torsions:
REMARK  status: ('A' for Active; 'I' for Inactive)
REMARK    1  A    between atoms: C_2  and  C_5
REMARK    2  A    between atoms: C_3  and  C_10
REMARK    3  A    between atoms: C_6  and  C_30
REMARK    4  A    between atoms: C_10  and  C_26
REMARK    5  A    between atoms: C_11  and  C_12
REMARK    6  A    between atoms: C_16  and  C_18
REMARK    7  A    between atoms: C_19  and  C_20
REMARK                            x       y       z     vdW  Elec       q    Type
REMARK                         _______ _______ _______ _____ _____    ______ ____
ROOT
ATOM      1  C   UNL A   1     -27.431   0.502  26.756  0.00  0.00    +0.071 C 
ATOM      2  C   UNL A   1     -26.439   0.895  26.578  0.00  0.00    +0.004 C 
ENDROOT
BRANCH   1   5
ATOM      3  C   UNL A   1     -28.016  -0.814  28.878  0.00  0.00    +0.006 A 
ATOM      4  C   UNL A   1     -28.469  -0.785  29.829  0.00  0.00    +0.080 A 
ATOM      5  C   UNL A   1     -28.182   0.428  28.113  0.00  0.00    +0.004 A 
ATOM      6  C   UNL A   1     -28.984   1.415  28.515  0.00  0.00    +0.004 A 
ATOM      7  C   UNL A   1     -29.561   1.293  29.742  0.00  0.00    +0.072 A 
ATOM      8  C   UNL A   1     -29.320   0.165  30.445  0.00  0.00    +0.010 A 
BRANCH   7   9
ATOM      9  C   UNL A   1     -30.435   2.387  30.221  0.00  0.00    +0.419 C 
ATOM     10  F   UNL A   1     -31.375   2.149  30.679  0.00  0.00    -0.166 F 
ATOM     11  F   UNL A   1     -30.610   3.335  29.225  0.00  0.00    -0.166 F 
ATOM     12  F   UNL A   1     -29.586   3.070  31.138  0.00  0.00    -0.166 F 
ENDBRANCH   7   9
BRANCH   4  13
ATOM     13  C   UNL A   1     -28.337  -2.048  30.787  0.00  0.00    +0.388 C 
ATOM     14  O   UNL A   1     -27.351  -2.115  31.366  0.00  0.00    -0.241 OA
ATOM     15  O   UNL A   1     -29.409  -2.771  31.011  0.00  0.00    -0.241 OA
ENDBRANCH   4  13
ENDBRANCH   1   5
BRANCH   2  16
ATOM     16  C   UNL A   1     -25.536   1.421  27.685  0.00  0.00    -0.000 A 
ATOM     17  C   UNL A   1     -24.198   1.859  27.401  0.00  0.00    -0.000 A 
ATOM     18  C   UNL A   1     -23.242   2.176  28.383  0.00  0.00    -0.000 A 
ATOM     19  C   UNL A   1     -23.640   1.878  29.715  0.00  0.00    -0.000 A 
ATOM     20  C   UNL A   1     -24.902   1.484  30.030  0.00  0.00    -0.000 A 
ATOM     21  C   UNL A   1     -25.812   1.153  29.022  0.00  0.00    -0.000 A 
BRANCH  20  22
ATOM     22  C   UNL A   1     -25.254   1.352  31.477  0.00  0.00    -0.000 C 
ATOM     23  C   UNL A   1     -26.036   0.634  32.043  0.00  0.00    +0.000 C 
BRANCH  23  24
ATOM     24  C   UNL A   1     -26.351   0.661  33.430  0.00  0.00    +0.000 A 
ATOM     25  C   UNL A   1     -26.894   1.524  33.964  0.00  0.00    +0.000 A 
ATOM     26  C   UNL A   1     -27.183   1.570  35.389  0.00  0.00    +0.000 A 
ATOM     27  C   UNL A   1     -26.901   0.439  36.103  0.00  0.00    +0.000 A 
ATOM     28  C   UNL A   1     -25.866  -0.519  34.235  0.00  0.00    +0.000 A 
ATOM     29  C   UNL A   1     -26.181  -0.582  35.554  0.00  0.00    +0.000 A 
ENDBRANCH  23  24
ENDBRANCH  20  22
ENDBRANCH   2  16
BRANCH   1  30
ATOM     30  C   UNL A   1     -28.401   0.208  25.664  0.00  0.00    +0.419 C 
ATOM     31  F   UNL A   1     -29.166  -0.635  25.775  0.00  0.00    -0.166 F 
ATOM     32  F   UNL A   1     -27.620   0.043  24.514  0.00  0.00    -0.166 F 
ATOM     33  F   UNL A   1     -29.054   1.429  25.392  0.00  0.00    -0.166 F 
ENDBRANCH   1  30
TORSDOF 7
