MODEL 398
MODEL 1
REMARK VINA RESULT:    -7.977      0.000      0.000
REMARK INTER + INTRA:         -14.520
REMARK INTER:                 -11.707
REMARK INTRA:                  -2.813
REMARK UNBOUND:                -2.813
REMARK  Name = No_398-gen_results/8p0m/2024-11-26-14-13-15/
REMARK  8 active torsions:
REMARK  status: ('A' for Active; 'I' for Inactive)
REMARK    1  A    between atoms: C_3  and  C_4
REMARK    2  A    between atoms: C_6  and  C_14
REMARK    3  A    between atoms: N_15  and  C_17
REMARK    4  A    between atoms: C_17  and  C_18
REMARK    5  A    between atoms: C_17  and  C_19
REMARK    6  A    between atoms: C_18  and  C_22
REMARK    7  A    between atoms: C_24  and  C_32
REMARK    8  A    between atoms: C_27  and  C_29
REMARK                            x       y       z     vdW  Elec       q    Type
REMARK                         _______ _______ _______ _____ _____    ______ ____
ROOT
ATOM      1  C   UNL A   1     -24.161   0.551  30.441  0.00  0.00    +0.194 C 
ENDROOT
BRANCH   1   2
ATOM      2  C   UNL A   1     -24.474   1.855  31.236  0.00  0.00    +0.416 C 
ATOM      3  F   UNL A   1     -24.947   1.548  32.327  0.00  0.00    -0.168 F 
ATOM      4  F   UNL A   1     -25.427   2.564  30.535  0.00  0.00    -0.168 F 
ATOM      5  F   UNL A   1     -23.410   2.579  31.418  0.00  0.00    -0.168 F 
ENDBRANCH   1   2
BRANCH   1   7
ATOM      6  C   UNL A   1     -22.740   0.992  28.550  0.00  0.00    +0.265 C 
ATOM      7  N   UNL A   1     -22.858   0.658  29.736  0.00  0.00    -0.194 NA
ATOM      8  O   UNL A   1     -21.592   0.802  28.073  0.00  0.00    -0.268 OA
BRANCH   6  12
ATOM      9  C   UNL A   1     -24.544  -0.194  27.265  0.00  0.00    +0.005 A 
ATOM     10  C   UNL A   1     -25.440  -0.212  26.452  0.00  0.00    +0.000 A 
ATOM     11  C   UNL A   1     -25.957   0.899  25.868  0.00  0.00    +0.000 A 
ATOM     12  C   UNL A   1     -23.863   1.054  27.607  0.00  0.00    +0.055 A 
ATOM     13  C   UNL A   1     -24.341   2.183  27.091  0.00  0.00    +0.005 A 
ATOM     14  C   UNL A   1     -25.405   2.186  26.133  0.00  0.00    +0.000 A 
BRANCH  11  15
ATOM     15  C   UNL A   1     -27.050   0.893  24.871  0.00  0.00    +0.002 A 
ATOM     16  C   UNL A   1     -27.807   1.994  24.511  0.00  0.00    +0.000 A 
ATOM     17  C   UNL A   1     -28.882   1.865  23.640  0.00  0.00    +0.002 A 
ATOM     18  C   UNL A   1     -29.297   0.537  23.311  0.00  0.00    +0.030 A 
ATOM     19  C   UNL A   1     -27.654  -0.345  24.436  0.00  0.00    +0.030 A 
ATOM     20  C   UNL A   1     -28.702  -0.522  23.703  0.00  0.00    +0.140 A 
ATOM     21  F   UNL A   1     -29.153  -1.706  23.329  0.00  0.00    -0.204 F 
ENDBRANCH  11  15
ENDBRANCH   6  12
ENDBRANCH   1   7
BRANCH   1  22
ATOM     22  C   UNL A   1     -24.355  -0.424  31.195  0.00  0.00    +0.057 C 
BRANCH  22  23
ATOM     23  C   UNL A   1     -25.123  -1.586  30.647  0.00  0.00    -0.015 A 
ATOM     24  C   UNL A   1     -26.510  -1.721  30.916  0.00  0.00    +0.053 A 
ATOM     25  C   UNL A   1     -27.220  -2.849  30.466  0.00  0.00    +0.004 A 
ATOM     26  C   UNL A   1     -26.544  -3.837  29.690  0.00  0.00    +0.007 A 
ATOM     27  C   UNL A   1     -25.147  -3.680  29.559  0.00  0.00    +0.080 A 
ATOM     28  C   UNL A   1     -24.496  -2.641  30.052  0.00  0.00    +0.003 A 
BRANCH  27  29
ATOM     29  C   UNL A   1     -24.462  -4.841  28.851  0.00  0.00    +0.388 C 
ATOM     30  O   UNL A   1     -23.569  -4.592  28.114  0.00  0.00    -0.241 OA
ATOM     31  O   UNL A   1     -25.074  -5.986  28.903  0.00  0.00    -0.241 OA
ENDBRANCH  27  29
BRANCH  24  32
ATOM     32  C   UNL A   1     -27.345  -0.678  31.551  0.00  0.00    +0.284 C 
ATOM     33  O   UNL A   1     -27.835   0.142  31.097  0.00  0.00    -0.267 OA
ATOM     34  N   UNL A   1     -27.530  -0.871  32.967  0.00  0.00    -0.084 NA
ENDBRANCH  24  32
ENDBRANCH  22  23
ENDBRANCH   1  22
TORSDOF 8
ENDMDL
ENDMDL
