MODEL 3990
MODEL 1
REMARK VINA RESULT:    -4.282      0.000      0.000
REMARK INTER + INTRA:          -4.282
REMARK INTER:                  -4.282
REMARK INTRA:                   0.000
REMARK UNBOUND:                 0.000
REMARK  Name = No_3990-gen_results/8p0m/2024-11-26-14-13-15/
REMARK  0 active torsions:
REMARK  status: ('A' for Active; 'I' for Inactive)
REMARK                            x       y       z     vdW  Elec       q    Type
REMARK                         _______ _______ _______ _____ _____    ______ ____
ROOT
ATOM      1  C   UNL A   1     -24.942  -5.354  28.993  0.00  0.00    +0.000 A 
ATOM      2  C   UNL A   1     -24.189  -4.661  28.742  0.00  0.00    +0.000 A 
ATOM      3  C   UNL A   1     -26.113  -4.743  29.621  0.00  0.00    +0.000 A 
ATOM      4  C   UNL A   1     -26.205  -3.389  29.834  0.00  0.00    +0.000 A 
ATOM      5  C   UNL A   1     -24.016  -3.212  28.841  0.00  0.00    +0.000 A 
ATOM      6  C   UNL A   1     -25.144  -2.611  29.448  0.00  0.00    +0.000 A 
ENDROOT
TORSDOF 0
ENDMDL
ENDMDL
