REMARK  Name = No_3991-gen_results/8p0m/2024-11-26-14-13-15/
REMARK  5 active torsions:
REMARK  status: ('A' for Active; 'I' for Inactive)
REMARK    1  A    between atoms: C_4  and  C_7
REMARK    2  A    between atoms: C_7  and  C_8
REMARK    3  A    between atoms: C_9  and  C_10
REMARK    4  A    between atoms: C_11  and  C_13
REMARK    5  A    between atoms: C_14  and  C_15
REMARK                            x       y       z     vdW  Elec       q    Type
REMARK                         _______ _______ _______ _____ _____    ______ ____
ROOT
ATOM      1  C   UNL A   1     -24.366  -1.113  30.048  0.00  0.00    +0.053 C 
ENDROOT
BRANCH   1   5
ATOM      2  C   UNL A   1     -28.016  -0.814  28.878  0.00  0.00    +0.011 A 
ATOM      3  C   UNL A   1     -28.469  -0.785  29.829  0.00  0.00    +0.001 A 
ATOM      4  C   UNL A   1     -26.546  -0.876  28.850  0.00  0.00    +0.054 A 
ATOM      5  C   UNL A   1     -25.804  -1.032  30.057  0.00  0.00    -0.007 A 
ATOM      6  C   UNL A   1     -26.537  -1.039  31.217  0.00  0.00    -0.003 A 
ATOM      7  C   UNL A   1     -27.884  -0.953  31.186  0.00  0.00    -0.000 A 
ATOM      8 CL   UNL A   1     -25.620  -0.833  27.397  0.00  0.00    -0.083 Cl
ENDBRANCH   1   5
BRANCH   1   9
ATOM      9  C   UNL A   1     -23.692   0.119  29.919  0.00  0.00    -0.021 C 
ATOM     10  C   UNL A   1     -23.178   0.582  28.788  0.00  0.00    -0.004 C 
BRANCH  10  11
ATOM     11  C   UNL A   1     -23.044   1.512  28.090  0.00  0.00    -0.000 C 
ATOM     12  C   UNL A   1     -22.230   1.654  26.889  0.00  0.00    -0.000 C 
BRANCH  12  13
ATOM     13  C   UNL A   1     -22.397   1.635  25.850  0.00  0.00    -0.005 C 
ATOM     14  C   UNL A   1     -23.750   1.706  25.276  0.00  0.00    -0.026 C 
BRANCH  14  15
ATOM     15  C   UNL A   1     -24.752   2.009  26.213  0.00  0.00    +0.026 C 
ATOM     16  C   UNL A   1     -26.086   2.335  25.991  0.00  0.00    +0.005 C 
ENDBRANCH  14  15
ENDBRANCH  12  13
ENDBRANCH  10  11
ENDBRANCH   1   9
TORSDOF 5
