REMARK  Name = No_3992-gen_results/8p0m/2024-11-26-14-13-15/
REMARK  10 active torsions:
REMARK  status: ('A' for Active; 'I' for Inactive)
REMARK    1  A    between atoms: C_4  and  C_7
REMARK    2  A    between atoms: C_7  and  C_8
REMARK    3  A    between atoms: C_8  and  C_9
REMARK    4  A    between atoms: C_8  and  C_10
REMARK    5  A    between atoms: C_9  and  C_12
REMARK    6  A    between atoms: C_13  and  C_14
REMARK    7  A    between atoms: C_14  and  C_15
REMARK    8  A    between atoms: C_15  and  C_16
REMARK    9  A    between atoms: C_16  and  N_21
REMARK   10  A    between atoms: N_21  and  C_22
REMARK                            x       y       z     vdW  Elec       q    Type
REMARK                         _______ _______ _______ _____ _____    ______ ____
ROOT
ATOM      1  C   UNL A   1     -23.692   0.119  29.919  0.00  0.00    +0.030 C 
ENDROOT
BRANCH   1   2
ATOM      2  C   UNL A   1     -22.457   0.116  29.053  0.00  0.00    -0.030 C 
ATOM      3  C   UNL A   1     -21.964   1.253  28.446  0.00  0.00    -0.030 C 
ATOM      4  C   UNL A   1     -21.047   1.186  27.458  0.00  0.00    +0.030 C 
ENDBRANCH   1   2
BRANCH   1   5
ATOM      5  C   UNL A   1     -24.366  -1.113  30.048  0.00  0.00    +0.032 C 
BRANCH   5   9
ATOM      6  C   UNL A   1     -28.016  -0.814  28.878  0.00  0.00    +0.011 A 
ATOM      7  C   UNL A   1     -28.469  -0.785  29.829  0.00  0.00    +0.001 A 
ATOM      8  C   UNL A   1     -26.546  -0.876  28.850  0.00  0.00    +0.054 A 
ATOM      9  C   UNL A   1     -25.804  -1.032  30.057  0.00  0.00    -0.011 A 
ATOM     10  C   UNL A   1     -26.537  -1.039  31.217  0.00  0.00    -0.003 A 
ATOM     11  C   UNL A   1     -27.884  -0.953  31.186  0.00  0.00    -0.000 A 
ATOM     12 CL   UNL A   1     -25.624  -0.804  27.393  0.00  0.00    -0.083 Cl
ENDBRANCH   5   9
ENDBRANCH   1   5
BRANCH   1  13
ATOM     13  C   UNL A   1     -23.986   1.274  30.452  0.00  0.00    +0.030 C 
BRANCH  13  14
ATOM     14  C   UNL A   1     -25.188   1.350  31.330  0.00  0.00    -0.030 C 
ATOM     15  C   UNL A   1     -25.444   2.717  31.895  0.00  0.00    -0.025 C 
BRANCH  15  16
ATOM     16  C   UNL A   1     -24.661   3.769  31.544  0.00  0.00    +0.094 C 
BRANCH  16  17
ATOM     17  C   UNL A   1     -24.968   5.029  32.204  0.00  0.00    +0.287 C 
ATOM     18  F   UNL A   1     -24.729   5.012  33.610  0.00  0.00    -0.202 F 
ATOM     19  F   UNL A   1     -26.325   5.200  32.081  0.00  0.00    -0.202 F 
BRANCH  17  20
ATOM     20  C   UNL A   1     -24.348   6.221  31.734  0.00  0.00    +0.179 C 
BRANCH  20  21
ATOM     21  N   UNL A   1     -23.429   6.796  32.470  0.00  0.00    -0.231 NA
BRANCH  21  22
ATOM     22  C   UNL A   1     -22.747   8.006  32.170  0.00  0.00    +0.080 C 
ATOM     23  C   UNL A   1     -21.692   8.453  33.045  0.00  0.00    +0.019 C 
ENDBRANCH  21  22
ENDBRANCH  20  21
ENDBRANCH  17  20
ENDBRANCH  16  17
ENDBRANCH  15  16
ENDBRANCH  13  14
ENDBRANCH   1  13
TORSDOF 10
