MODEL 3993
MODEL 1
REMARK VINA RESULT:    -5.389      0.000      0.000
REMARK INTER + INTRA:          -5.389
REMARK INTER:                  -5.389
REMARK INTRA:                   0.000
REMARK UNBOUND:                 0.000
REMARK  Name = No_3993-gen_results/8p0m/2024-11-26-14-13-15/
REMARK  0 active torsions:
REMARK  status: ('A' for Active; 'I' for Inactive)
REMARK                            x       y       z     vdW  Elec       q    Type
REMARK                         _______ _______ _______ _____ _____    ______ ____
ROOT
ATOM      1 CL   UNL A   1     -27.747  -3.213  30.599  0.00  0.00    -0.082 Cl
ATOM      2  C   UNL A   1     -26.451  -3.428  30.005  0.00  0.00    +0.058 A 
ATOM      3  C   UNL A   1     -25.608  -2.637  29.776  0.00  0.00    +0.011 A 
ATOM      4  C   UNL A   1     -25.849  -1.241  29.997  0.00  0.00    +0.001 A 
ATOM      5  C   UNL A   1     -24.901  -0.267  29.746  0.00  0.00    +0.000 A 
ATOM      6  C   UNL A   1     -23.636  -0.661  29.172  0.00  0.00    +0.000 A 
ATOM      7  C   UNL A   1     -23.382  -2.045  28.899  0.00  0.00    +0.000 A 
ATOM      8  C   UNL A   1     -24.322  -2.963  29.222  0.00  0.00    +0.001 A 
ATOM      9  C   UNL A   1     -26.121  -4.920  29.632  0.00  0.00    +0.011 A 
ATOM     10  C   UNL A   1     -25.037  -5.301  28.929  0.00  0.00    +0.001 A 
ATOM     11  C   UNL A   1     -23.978  -4.325  28.773  0.00  0.00    +0.000 A 
ENDROOT
TORSDOF 0
ENDMDL
ENDMDL
