REMARK  Name = No_3993-gen_results/8p0m/2024-11-26-14-13-15/
REMARK  0 active torsions:
REMARK  status: ('A' for Active; 'I' for Inactive)
REMARK                            x       y       z     vdW  Elec       q    Type
REMARK                         _______ _______ _______ _____ _____    ______ ____
ROOT
ATOM      1 CL   UNL A   1     -28.149  -0.820  28.908  0.00  0.00    -0.082 Cl
ATOM      2  C   UNL A   1     -26.912  -0.080  28.945  0.00  0.00    +0.058 A 
ATOM      3  C   UNL A   1     -26.738   1.044  29.253  0.00  0.00    +0.011 A 
ATOM      4  C   UNL A   1     -27.855   1.891  29.555  0.00  0.00    +0.001 A 
ATOM      5  C   UNL A   1     -27.715   3.217  29.919  0.00  0.00    +0.000 A 
ATOM      6  C   UNL A   1     -26.393   3.797  29.933  0.00  0.00    +0.000 A 
ATOM      7  C   UNL A   1     -25.260   2.986  29.593  0.00  0.00    +0.000 A 
ATOM      8  C   UNL A   1     -25.449   1.679  29.304  0.00  0.00    +0.001 A 
ATOM      9  C   UNL A   1     -25.629  -0.893  28.537  0.00  0.00    +0.011 A 
ATOM     10  C   UNL A   1     -24.412  -0.344  28.356  0.00  0.00    +0.001 A 
ATOM     11  C   UNL A   1     -24.218   1.002  28.855  0.00  0.00    +0.000 A 
ENDROOT
TORSDOF 0
