MODEL 3994
MODEL 1
REMARK VINA RESULT:    -5.742      0.000      0.000
REMARK INTER + INTRA:          -8.111
REMARK INTER:                  -7.756
REMARK INTRA:                  -0.355
REMARK UNBOUND:                -0.355
REMARK  Name = No_3994-gen_results/8p0m/2024-11-26-14-13-15/
REMARK  6 active torsions:
REMARK  status: ('A' for Active; 'I' for Inactive)
REMARK    1  A    between atoms: C_1  and  C_2
REMARK    2  A    between atoms: C_1  and  N_8
REMARK    3  A    between atoms: C_5  and  C_13
REMARK    4  A    between atoms: N_8  and  CA_9
REMARK    5  A    between atoms: CA_9  and  C_10
REMARK    6  A    between atoms: CA_9  and  C_16
REMARK                            x       y       z     vdW  Elec       q    Type
REMARK                         _______ _______ _______ _____ _____    ______ ____
ROOT
ATOM      1  C   UNL A   1     -29.318 -10.775  31.055  0.00  0.00    -0.005 A 
ATOM      2  C   UNL A   1     -30.224 -10.012  30.326  0.00  0.00    -0.003 A 
ATOM      3  C   UNL A   1     -30.625 -10.237  28.908  0.00  0.00    +0.004 A 
ATOM      4  C   UNL A   1     -29.889 -11.235  28.203  0.00  0.00    +0.048 A 
ATOM      5  C   UNL A   1     -28.932 -11.956  28.944  0.00  0.00    +0.004 A 
ATOM      6  C   UNL A   1     -28.653 -11.741  30.238  0.00  0.00    -0.003 A 
ENDROOT
BRANCH   4   7
ATOM      7  C   UNL A   1     -30.249 -11.438  26.815  0.00  0.00    +0.242 C 
ATOM      8  N   UNL A   1     -31.535 -11.722  26.474  0.00  0.00    -0.116 NA
ATOM      9  F   UNL A   1     -29.421 -11.059  25.975  0.00  0.00    -0.181 F 
ENDBRANCH   4   7
BRANCH   1  10
ATOM     10  C   UNL A   1     -29.066 -10.513  32.208  0.00  0.00    +0.116 C 
BRANCH  10  11
ATOM     11  N   UNL A   1     -29.573 -11.416  33.172  0.00  0.00    -0.197 NA
BRANCH  11  12
ATOM     12  CA  UNL A   1     -28.856 -12.091  34.042  0.00  0.00    +0.241 C 
BRANCH  12  13
ATOM     13  C   UNL A   1     -27.538 -11.986  34.061  0.00  0.00    +0.388 C 
ATOM     14  O   UNL A   1     -26.819 -12.663  33.650  0.00  0.00    -0.244 OA
ATOM     15  O   UNL A   1     -27.078 -10.875  34.754  0.00  0.00    -0.244 OA
ENDBRANCH  12  13
BRANCH  12  16
ATOM     16  C   UNL A   1     -29.558 -13.071  34.942  0.00  0.00    +0.236 C 
ATOM     17  O   UNL A   1     -29.295 -13.348  35.913  0.00  0.00    -0.286 OA
ENDBRANCH  12  16
ENDBRANCH  11  12
ENDBRANCH  10  11
ENDBRANCH   1  10
TORSDOF 6
ENDMDL
ENDMDL
