MODEL 3996
MODEL 1
REMARK VINA RESULT:    -6.182      0.000      0.000
REMARK INTER + INTRA:          -7.532
REMARK INTER:                  -7.266
REMARK INTRA:                  -0.266
REMARK UNBOUND:                -0.266
REMARK  Name = No_3996-gen_results/8p0m/2024-11-26-14-13-15/
REMARK  3 active torsions:
REMARK  status: ('A' for Active; 'I' for Inactive)
REMARK    1  A    between atoms: C_2  and  O_7
REMARK    2  A    between atoms: O_7  and  C_8
REMARK    3  A    between atoms: C_9  and  C_11
REMARK                            x       y       z     vdW  Elec       q    Type
REMARK                         _______ _______ _______ _____ _____    ______ ____
ROOT
ATOM      1  O   UNL A   1     -23.053  -2.220  28.882  0.00  0.00    -0.458 OA
ENDROOT
BRANCH   1   3
ATOM      2  C   UNL A   1     -25.117  -2.621  29.754  0.00  0.00    +0.037 A 
ATOM      3  C   UNL A   1     -24.140  -3.047  29.183  0.00  0.00    +0.145 A 
ATOM      4  C   UNL A   1     -24.005  -4.333  28.768  0.00  0.00    +0.037 A 
ATOM      5  C   UNL A   1     -25.061  -5.230  29.015  0.00  0.00    +0.003 A 
ATOM      6  C   UNL A   1     -26.273  -3.458  29.955  0.00  0.00    +0.003 A 
ATOM      7  C   UNL A   1     -26.177  -4.765  29.582  0.00  0.00    +0.000 A 
ENDBRANCH   1   3
BRANCH   1   8
ATOM      8  C   UNL A   1     -23.203  -0.846  29.162  0.00  0.00    +0.123 C 
ATOM      9  C   UNL A   1     -23.559   0.123  28.620  0.00  0.00    +0.033 C 
ATOM     10  C   UNL A   1     -22.493  -0.492  30.494  0.00  0.00    +0.072 C 
BRANCH   9  11
ATOM     11  C   UNL A   1     -24.325   0.022  27.291  0.00  0.00    -0.002 C 
ATOM     12  C   UNL A   1     -24.196   0.984  26.281  0.00  0.00    -0.026 C 
ATOM     13  C   UNL A   1     -23.207   1.964  26.509  0.00  0.00    +0.031 C 
ENDBRANCH   9  11
ENDBRANCH   1   8
TORSDOF 3
ENDMDL
ENDMDL
