REMARK  Name = No_3996-gen_results/8p0m/2024-11-26-14-13-15/
REMARK  3 active torsions:
REMARK  status: ('A' for Active; 'I' for Inactive)
REMARK    1  A    between atoms: C_2  and  O_7
REMARK    2  A    between atoms: O_7  and  C_8
REMARK    3  A    between atoms: C_9  and  C_11
REMARK                            x       y       z     vdW  Elec       q    Type
REMARK                         _______ _______ _______ _____ _____    ______ ____
ROOT
ATOM      1  O   UNL A   1     -25.991  -0.612  27.857  0.00  0.00    -0.458 OA
ENDROOT
BRANCH   1   3
ATOM      2  C   UNL A   1     -28.016  -0.814  28.878  0.00  0.00    +0.037 A 
ATOM      3  C   UNL A   1     -27.064  -0.119  28.608  0.00  0.00    +0.145 A 
ATOM      4  C   UNL A   1     -26.929   1.171  29.008  0.00  0.00    +0.037 A 
ATOM      5  C   UNL A   1     -27.956   1.741  29.784  0.00  0.00    +0.003 A 
ATOM      6  C   UNL A   1     -29.057  -0.327  29.747  0.00  0.00    +0.003 A 
ATOM      7  C   UNL A   1     -28.983   0.972  30.152  0.00  0.00    +0.000 A 
ENDBRANCH   1   3
BRANCH   1   8
ATOM      8  C   UNL A   1     -24.904  -1.148  28.578  0.00  0.00    +0.123 C 
ATOM      9  C   UNL A   1     -23.773  -0.924  28.749  0.00  0.00    +0.033 C 
ATOM     10  C   UNL A   1     -25.267  -2.553  29.125  0.00  0.00    +0.072 C 
BRANCH   9  11
ATOM     11  C   UNL A   1     -23.185   0.431  28.321  0.00  0.00    -0.002 C 
ATOM     12  C   UNL A   1     -21.834   0.749  28.508  0.00  0.00    -0.026 C 
ATOM     13  C   UNL A   1     -21.027  -0.309  28.975  0.00  0.00    +0.031 C 
ENDBRANCH   9  11
ENDBRANCH   1   8
TORSDOF 3
