REMARK  Name = No_3997-gen_results/8p0m/2024-11-26-14-13-15/
REMARK  6 active torsions:
REMARK  status: ('A' for Active; 'I' for Inactive)
REMARK    1  A    between atoms: C_2  and  C_4
REMARK    2  A    between atoms: C_4  and  C_7
REMARK    3  A    between atoms: N_6  and  C_15
REMARK    4  A    between atoms: C_7  and  C_8
REMARK    5  A    between atoms: C_15  and  C_16
REMARK    6  A    between atoms: C_16  and  C_17
REMARK                            x       y       z     vdW  Elec       q    Type
REMARK                         _______ _______ _______ _____ _____    ______ ____
ROOT
ATOM      1  C   UNL A   1     -29.679   0.847  29.336  0.00  0.00    +0.168 C 
ATOM      2  N   UNL A   1     -30.260   1.492  29.981  0.00  0.00    -0.265 NA
ENDROOT
BRANCH   1   4
ATOM      3 CL   UNL A   1     -28.149  -0.820  28.908  0.00  0.00    -0.041 Cl
ATOM      4  C   UNL A   1     -28.532  -0.047  29.773  0.00  0.00    +0.368 C 
ATOM      5  F   UNL A   1     -27.651   0.717  30.309  0.00  0.00    -0.181 F 
ATOM      6  F   UNL A   1     -28.971  -0.670  31.003  0.00  0.00    -0.181 F 
ENDBRANCH   1   4
BRANCH   1   7
ATOM      7  C   UNL A   1     -29.953   0.770  27.892  0.00  0.00    +0.215 C 
ATOM      8  O   UNL A   1     -30.970   0.076  27.503  0.00  0.00    -0.285 OA
BRANCH   7   9
ATOM      9  C   UNL A   1     -29.171   1.469  26.991  0.00  0.00    +0.040 A 
ATOM     10  C   UNL A   1     -28.109   2.136  27.445  0.00  0.00    +0.003 A 
ATOM     11  C   UNL A   1     -27.139   2.753  26.480  0.00  0.00    +0.000 A 
ATOM     12  C   UNL A   1     -27.446   2.538  25.093  0.00  0.00    +0.000 A 
ATOM     13  C   UNL A   1     -28.471   1.871  24.650  0.00  0.00    +0.000 A 
ATOM     14  C   UNL A   1     -29.296   1.261  25.590  0.00  0.00    +0.003 A 
ENDBRANCH   7   9
ENDBRANCH   1   7
BRANCH   2  15
ATOM     15  C   UNL A   1     -30.731   2.511  30.186  0.00  0.00    +0.130 C 
BRANCH  15  16
ATOM     16  C   UNL A   1     -30.532   3.520  29.327  0.00  0.00    +0.052 C 
BRANCH  16  17
ATOM     17  C   UNL A   1     -29.907   4.603  29.510  0.00  0.00    -0.029 C 
ATOM     18  C   UNL A   1     -29.431   4.854  30.865  0.00  0.00    -0.030 C 
ATOM     19  C   UNL A   1     -28.654   5.984  31.199  0.00  0.00    +0.030 C 
ENDBRANCH  16  17
ENDBRANCH  15  16
ENDBRANCH   2  15
TORSDOF 6
