MODEL 3997
MODEL 1
REMARK VINA RESULT:    -6.785      0.000      0.000
REMARK INTER + INTRA:         -10.018
REMARK INTER:                  -9.165
REMARK INTRA:                  -0.853
REMARK UNBOUND:                -0.853
REMARK  Name = No_3997-gen_results/8p0m/2024-11-26-14-13-15/
REMARK  6 active torsions:
REMARK  status: ('A' for Active; 'I' for Inactive)
REMARK    1  A    between atoms: C_2  and  C_4
REMARK    2  A    between atoms: C_4  and  C_7
REMARK    3  A    between atoms: N_6  and  C_15
REMARK    4  A    between atoms: C_7  and  C_8
REMARK    5  A    between atoms: C_15  and  C_16
REMARK    6  A    between atoms: C_16  and  C_17
REMARK                            x       y       z     vdW  Elec       q    Type
REMARK                         _______ _______ _______ _____ _____    ______ ____
ROOT
ATOM      1  C   UNL A   1     -24.120  -0.450  30.339  0.00  0.00    +0.168 C 
ATOM      2  N   UNL A   1     -23.475   0.136  29.698  0.00  0.00    -0.265 NA
ENDROOT
BRANCH   1   4
ATOM      3 CL   UNL A   1     -22.987  -1.177  32.207  0.00  0.00    -0.041 Cl
ATOM      4  C   UNL A   1     -23.992  -0.583  31.846  0.00  0.00    +0.368 C 
ATOM      5  F   UNL A   1     -24.191   0.585  32.339  0.00  0.00    -0.181 F 
ATOM      6  F   UNL A   1     -25.241  -1.159  32.294  0.00  0.00    -0.181 F 
ENDBRANCH   1   4
BRANCH   1   7
ATOM      7  C   UNL A   1     -25.245  -1.221  29.785  0.00  0.00    +0.215 C 
ATOM      8  O   UNL A   1     -26.292  -0.574  29.396  0.00  0.00    -0.285 OA
BRANCH   7   9
ATOM      9  C   UNL A   1     -25.151  -2.593  29.639  0.00  0.00    +0.040 A 
ATOM     10  C   UNL A   1     -26.200  -3.347  29.969  0.00  0.00    +0.003 A 
ATOM     11  C   UNL A   1     -26.200  -4.815  29.656  0.00  0.00    +0.000 A 
ATOM     12  C   UNL A   1     -25.026  -5.289  28.978  0.00  0.00    +0.000 A 
ATOM     13  C   UNL A   1     -24.010  -4.550  28.638  0.00  0.00    +0.000 A 
ATOM     14  C   UNL A   1     -24.097  -3.184  28.890  0.00  0.00    +0.003 A 
ENDBRANCH   7   9
ENDBRANCH   1   7
BRANCH   2  15
ATOM     15  C   UNL A   1     -22.848   0.221  28.748  0.00  0.00    +0.130 C 
BRANCH  15  16
ATOM     16  C   UNL A   1     -22.516   1.431  28.277  0.00  0.00    +0.052 C 
BRANCH  16  17
ATOM     17  C   UNL A   1     -21.984   1.730  27.171  0.00  0.00    -0.029 C 
ATOM     18  C   UNL A   1     -22.890   2.155  26.111  0.00  0.00    -0.030 C 
ATOM     19  C   UNL A   1     -22.431   2.591  24.849  0.00  0.00    +0.030 C 
ENDBRANCH  16  17
ENDBRANCH  15  16
ENDBRANCH   2  15
TORSDOF 6
ENDMDL
ENDMDL
