MODEL 3998
MODEL 1
REMARK VINA RESULT:    -5.781      0.000      0.000
REMARK INTER + INTRA:          -7.943
REMARK INTER:                  -7.471
REMARK INTRA:                  -0.472
REMARK UNBOUND:                -0.472
REMARK  Name = No_3998-gen_results/8p0m/2024-11-26-14-13-15/
REMARK  5 active torsions:
REMARK  status: ('A' for Active; 'I' for Inactive)
REMARK    1  A    between atoms: C_2  and  C_3
REMARK    2  A    between atoms: C_3  and  C_5
REMARK    3  A    between atoms: N_4  and  C_11
REMARK    4  A    between atoms: C_12  and  C_13
REMARK    5  A    between atoms: C_14  and  C_15
REMARK                            x       y       z     vdW  Elec       q    Type
REMARK                         _______ _______ _______ _____ _____    ______ ____
ROOT
ATOM      1  O   UNL A   1     -25.663   0.549  29.040  0.00  0.00    -0.273 OA
ATOM      2  C   UNL A   1     -25.143  -0.339  28.522  0.00  0.00    +0.250 C 
ATOM      3  N   UNL A   1     -25.152  -0.549  27.062  0.00  0.00    -0.178 NA
ENDROOT
BRANCH   3   4
ATOM      4  C   UNL A   1     -25.935   0.307  26.242  0.00  0.00    +0.089 C 
ATOM      5  C   UNL A   1     -26.584   0.048  25.408  0.00  0.00    +0.018 C 
BRANCH   5   6
ATOM      6  C   UNL A   1     -27.323   1.003  24.546  0.00  0.00    +0.001 C 
ATOM      7  C   UNL A   1     -28.578   0.780  23.993  0.00  0.00    +0.000 C 
BRANCH   7   8
ATOM      8  C   UNL A   1     -29.181  -0.482  24.235  0.00  0.00    +0.000 C 
ATOM      9  C   UNL A   1     -29.013  -1.540  23.380  0.00  0.00    +0.000 C 
ENDBRANCH   7   8
ENDBRANCH   5   6
ENDBRANCH   3   4
BRANCH   2  10
ATOM     10  C   UNL A   1     -24.340  -1.215  29.225  0.00  0.00    +0.114 C 
BRANCH  10  11
ATOM     11  C   UNL A   1     -24.730  -2.487  29.312  0.00  0.00    -0.013 A 
ATOM     12  C   UNL A   1     -25.962  -2.933  29.951  0.00  0.00    -0.004 A 
ATOM     13  C   UNL A   1     -26.373  -4.307  29.685  0.00  0.00    -0.000 A 
ATOM     14  C   UNL A   1     -25.375  -5.203  29.146  0.00  0.00    -0.000 A 
ATOM     15  C   UNL A   1     -24.162  -4.800  28.700  0.00  0.00    -0.000 A 
ATOM     16  C   UNL A   1     -23.848  -3.485  28.717  0.00  0.00    -0.004 A 
ENDBRANCH  10  11
ENDBRANCH   2  10
TORSDOF 5
ENDMDL
ENDMDL
