MODEL 3999
MODEL 1
REMARK VINA RESULT:    -7.443      0.000      0.000
REMARK INTER + INTRA:          -9.248
REMARK INTER:                  -8.748
REMARK INTRA:                  -0.499
REMARK UNBOUND:                -0.499
REMARK  Name = No_3999-gen_results/8p0m/2024-11-26-14-13-15/
REMARK  3 active torsions:
REMARK  status: ('A' for Active; 'I' for Inactive)
REMARK    1  A    between atoms: C_2  and  C_18
REMARK    2  A    between atoms: C_3  and  O_7
REMARK    3  A    between atoms: O_7  and  C_8
REMARK                            x       y       z     vdW  Elec       q    Type
REMARK                         _______ _______ _______ _____ _____    ______ ____
ROOT
ATOM      1  O   UNL A   1     -23.941  -0.828  29.863  0.00  0.00    -0.454 OA
ENDROOT
BRANCH   1   2
ATOM      2  C   UNL A   1     -23.181  -0.307  28.876  0.00  0.00    +0.145 A 
ATOM      3  C   UNL A   1     -23.871   0.518  27.908  0.00  0.00    +0.035 A 
ATOM      4  C   UNL A   1     -25.085   0.846  27.823  0.00  0.00    +0.003 A 
ATOM      5  C   UNL A   1     -25.471   1.962  26.944  0.00  0.00    +0.000 A 
ATOM      6  C   UNL A   1     -22.952   1.451  27.121  0.00  0.00    +0.003 A 
ATOM      7  C   UNL A   1     -21.461   1.304  27.259  0.00  0.00    +0.000 A 
ATOM      8  C   UNL A   1     -21.761  -0.324  28.960  0.00  0.00    +0.037 A 
ATOM      9  C   UNL A   1     -20.956   0.500  28.177  0.00  0.00    +0.003 A 
ATOM     10  C   UNL A   1     -24.670   2.674  26.170  0.00  0.00    +0.000 A 
ATOM     11  C   UNL A   1     -23.389   2.435  26.269  0.00  0.00    +0.000 A 
ENDBRANCH   1   2
BRANCH   1  14
ATOM     12  C   UNL A   1     -25.778  -2.428  30.142  0.00  0.00    +0.044 A 
ATOM     13  C   UNL A   1     -26.138  -3.395  29.927  0.00  0.00    +0.083 A 
ATOM     14  C   UNL A   1     -24.496  -2.080  29.661  0.00  0.00    +0.145 A 
ATOM     15  C   UNL A   1     -23.720  -2.968  28.942  0.00  0.00    +0.037 A 
ATOM     16  C   UNL A   1     -24.273  -4.214  28.698  0.00  0.00    +0.003 A 
ATOM     17  C   UNL A   1     -25.543  -4.496  29.156  0.00  0.00    +0.007 A 
BRANCH  13  18
ATOM     18  C   UNL A   1     -27.644  -3.814  30.357  0.00  0.00    +0.388 C 
ATOM     19  O   UNL A   1     -28.266  -4.609  29.942  0.00  0.00    -0.241 OA
ATOM     20  O   UNL A   1     -28.148  -2.821  31.133  0.00  0.00    -0.241 OA
ENDBRANCH  13  18
ENDBRANCH   1  14
TORSDOF 3
ENDMDL
ENDMDL
