MODEL 399
MODEL 1
REMARK VINA RESULT:    -7.722      0.000      0.000
REMARK INTER + INTRA:         -10.692
REMARK INTER:                  -9.077
REMARK INTRA:                  -1.615
REMARK UNBOUND:                -1.615
REMARK  Name = No_399-gen_results/8p0m/2024-11-26-14-13-15/
REMARK  3 active torsions:
REMARK  status: ('A' for Active; 'I' for Inactive)
REMARK    1  A    between atoms: C_3  and  C_4
REMARK    2  A    between atoms: C_4  and  C_5
REMARK    3  A    between atoms: C_4  and  C_14
REMARK                            x       y       z     vdW  Elec       q    Type
REMARK                         _______ _______ _______ _____ _____    ______ ____
ROOT
ATOM      1  C   UNL A   1     -24.946  -1.514  29.277  0.00  0.00    +0.066 C 
ENDROOT
BRANCH   1   4
ATOM      2  C   UNL A   1     -26.130  -3.721  29.812  0.00  0.00    -0.004 A 
ATOM      3  C   UNL A   1     -26.156  -4.741  29.551  0.00  0.00    -0.000 A 
ATOM      4  C   UNL A   1     -25.024  -2.985  29.188  0.00  0.00    -0.014 A 
ATOM      5  C   UNL A   1     -25.108  -5.598  29.027  0.00  0.00    -0.000 A 
ATOM      6  C   UNL A   1     -23.984  -3.683  28.678  0.00  0.00    -0.004 A 
ATOM      7  C   UNL A   1     -24.055  -4.999  28.550  0.00  0.00    -0.000 A 
ENDBRANCH   1   4
BRANCH   1   8
ATOM      8  C   UNL A   1     -24.813  -0.790  28.071  0.00  0.00    -0.018 C 
ATOM      9  C   UNL A   1     -24.034   0.148  27.962  0.00  0.00    -0.004 C 
ATOM     10  C   UNL A   1     -24.222   1.293  27.144  0.00  0.00    -0.000 C 
ATOM     11  C   UNL A   1     -22.999   2.140  26.960  0.00  0.00    -0.000 C 
ATOM     12  C   UNL A   1     -21.768   1.702  27.461  0.00  0.00    -0.000 C 
ATOM     13  C   UNL A   1     -22.495   0.091  28.201  0.00  0.00    -0.000 C 
ENDBRANCH   1   8
BRANCH   1  14
ATOM     14  C   UNL A   1     -25.041  -0.928  30.553  0.00  0.00    -0.014 A 
ATOM     15  C   UNL A   1     -26.167  -0.124  30.858  0.00  0.00    -0.004 A 
ATOM     16  C   UNL A   1     -26.210   0.431  32.023  0.00  0.00    -0.000 A 
ATOM     17  C   UNL A   1     -24.087  -1.197  31.469  0.00  0.00    -0.004 A 
ATOM     18  C   UNL A   1     -24.175  -0.690  32.763  0.00  0.00    -0.000 A 
ATOM     19  C   UNL A   1     -25.262   0.121  33.045  0.00  0.00    -0.000 A 
ENDBRANCH   1  14
TORSDOF 3
ENDMDL
ENDMDL
