MODEL 39
MODEL 1
REMARK VINA RESULT:    -6.056      0.000      0.000
REMARK INTER + INTRA:          -7.621
REMARK INTER:                  -7.118
REMARK INTRA:                  -0.503
REMARK UNBOUND:                -0.503
REMARK  Name = No_39-gen_results/8p0m/2024-11-26-14-13-15/
REMARK  3 active torsions:
REMARK  status: ('A' for Active; 'I' for Inactive)
REMARK    1  A    between atoms: C_1  and  C_8
REMARK    2  A    between atoms: C_5  and  C_10
REMARK    3  A    between atoms: C_9  and  C_13
REMARK                            x       y       z     vdW  Elec       q    Type
REMARK                         _______ _______ _______ _____ _____    ______ ____
ROOT
ATOM      1  C   UNL A   1     -23.195   0.712  28.962  0.00  0.00    -0.009 C 
ATOM      2  C   UNL A   1     -23.703  -0.381  29.053  0.00  0.00    -0.044 C 
ATOM      3  C   UNL A   1     -23.109  -1.540  29.071  0.00  0.00    +0.022 C 
ATOM      4  C   UNL A   1     -23.769  -2.864  29.191  0.00  0.00    +0.010 C 
ATOM      5  C   UNL A   1     -25.184  -2.852  29.347  0.00  0.00    +0.039 C 
ATOM      6  C   UNL A   1     -25.809  -1.631  29.389  0.00  0.00    +0.010 C 
ATOM      7  C   UNL A   1     -25.167  -0.444  29.291  0.00  0.00    +0.022 C 
ENDROOT
BRANCH   5   8
ATOM      8  C   UNL A   1     -25.936  -4.084  29.497  0.00  0.00    +0.058 C 
ATOM      9  N   UNL A   1     -27.179  -4.402  29.786  0.00  0.00    -0.157 NA
ATOM     10  C   UNL A   1     -25.086  -5.319  29.197  0.00  0.00    +0.049 C 
ENDBRANCH   5   8
BRANCH   1  11
ATOM     11  C   UNL A   1     -21.890   0.736  28.404  0.00  0.00    -0.001 C 
ATOM     12  C   UNL A   1     -21.654   1.514  27.294  0.00  0.00    -0.000 C 
BRANCH  12  13
ATOM     13  C   UNL A   1     -22.675   2.312  26.755  0.00  0.00    -0.000 C 
ATOM     14  C   UNL A   1     -22.999   2.283  25.411  0.00  0.00    -0.000 C 
ENDBRANCH  12  13
ENDBRANCH   1  11
TORSDOF 3
ENDMDL
ENDMDL
