MODEL 3
MODEL 1
REMARK VINA RESULT:    -5.867      0.000      0.000
REMARK INTER + INTRA:          -6.820
REMARK INTER:                  -6.553
REMARK INTRA:                  -0.268
REMARK UNBOUND:                -0.268
REMARK  Name = No_3-gen_results/8p0m/2024-11-26-14-13-15/
REMARK  2 active torsions:
REMARK  status: ('A' for Active; 'I' for Inactive)
REMARK    1  A    between atoms: C_2  and  C_11
REMARK    2  A    between atoms: C_3  and  C_4
REMARK                            x       y       z     vdW  Elec       q    Type
REMARK                         _______ _______ _______ _____ _____    ______ ____
ROOT
ATOM      1  C   UNL A   1     -28.302 -11.798  31.212  0.00  0.00    +0.010 A 
ATOM      2  C   UNL A   1     -28.272 -11.529  32.230  0.00  0.00    +0.080 A 
ATOM      3  C   UNL A   1     -29.313 -11.051  30.371  0.00  0.00    +0.072 A 
ATOM      4  C   UNL A   1     -28.871 -10.407  32.965  0.00  0.00    +0.007 A 
ATOM      5  C   UNL A   1     -29.787  -9.660  32.255  0.00  0.00    +0.000 A 
ATOM      6  C   UNL A   1     -30.021  -9.927  30.931  0.00  0.00    +0.004 A 
ENDROOT
BRANCH   3   7
ATOM      7  C   UNL A   1     -29.653 -11.328  28.998  0.00  0.00    +0.419 C 
ATOM      8  F   UNL A   1     -28.713 -11.705  28.248  0.00  0.00    -0.166 F 
ATOM      9  F   UNL A   1     -30.222 -10.201  28.395  0.00  0.00    -0.166 F 
ATOM     10  F   UNL A   1     -30.748 -12.178  28.905  0.00  0.00    -0.166 F 
ENDBRANCH   3   7
BRANCH   2  11
ATOM     11  C   UNL A   1     -27.235 -12.284  33.160  0.00  0.00    +0.388 C 
ATOM     12  O   UNL A   1     -27.356 -12.256  34.410  0.00  0.00    -0.241 OA
ATOM     13  O   UNL A   1     -26.387 -12.996  32.586  0.00  0.00    -0.241 OA
ENDBRANCH   2  11
TORSDOF 2
ENDMDL
ENDMDL
