REMARK  Name = No_4-gen_results/8p0m/2024-11-26-14-13-15/
REMARK  1 active torsions:
REMARK  status: ('A' for Active; 'I' for Inactive)
REMARK    1  A    between atoms: C_3  and  C_5
REMARK                            x       y       z     vdW  Elec       q    Type
REMARK                         _______ _______ _______ _____ _____    ______ ____
ROOT
ATOM      1  O   UNL A   1     -28.123  -1.335  28.487  0.00  0.00    -0.273 OA
ATOM      2  C   UNL A   1     -27.064  -0.824  28.869  0.00  0.00    +0.245 C 
ATOM      3  C   UNL A   1     -26.402  -0.062  28.622  0.00  0.00    +0.100 C 
ATOM      4  N   UNL A   1     -26.381  -1.799  29.962  0.00  0.00    -0.205 NA
ATOM      5  C   UNL A   1     -25.213  -1.832  30.109  0.00  0.00    +0.115 C 
ATOM      6  C   UNL A   1     -24.341  -0.834  29.791  0.00  0.00    +0.024 C 
ATOM      7  C   UNL A   1     -24.820   0.097  28.997  0.00  0.00    +0.015 C 
ENDROOT
BRANCH   3   8
ATOM      8  C   UNL A   1     -26.777   1.057  27.790  0.00  0.00    -0.018 A 
ATOM      9  C   UNL A   1     -27.740   1.479  27.654  0.00  0.00    -0.004 A 
ATOM     10  C   UNL A   1     -28.087   2.584  26.642  0.00  0.00    -0.000 A 
ATOM     11  C   UNL A   1     -27.017   3.109  25.925  0.00  0.00    -0.000 A 
ATOM     12  C   UNL A   1     -25.736   2.608  26.084  0.00  0.00    -0.005 A 
ATOM     13  C   UNL A   1     -25.505   1.640  27.005  0.00  0.00    -0.025 A 
ATOM     14  C   UNL A   1     -24.186   1.230  27.258  0.00  0.00    +0.031 C 
ENDBRANCH   3   8
TORSDOF 1
