REMARK  Name = No_40-gen_results/8p0m/2024-11-26-14-13-15/
REMARK  2 active torsions:
REMARK  status: ('A' for Active; 'I' for Inactive)
REMARK    1  A    between atoms: C_1  and  C_3
REMARK    2  A    between atoms: C_2  and  C_9
REMARK                            x       y       z     vdW  Elec       q    Type
REMARK                         _______ _______ _______ _____ _____    ______ ____
ROOT
ATOM      1  C   UNL A   1     -28.016  -0.814  28.878  0.00  0.00    -0.060 C 
ATOM      2  C   UNL A   1     -28.469  -0.785  29.829  0.00  0.00    -0.060 C 
ENDROOT
BRANCH   1   3
ATOM      3  C   UNL A   1     -27.217  -0.083  27.964  0.00  0.00    +0.042 A 
ATOM      4  C   UNL A   1     -26.509  -0.350  26.946  0.00  0.00    +0.008 A 
ATOM      5  C   UNL A   1     -25.822   0.687  26.058  0.00  0.00    +0.001 A 
ATOM      6  C   UNL A   1     -25.464   1.514  26.506  0.00  0.00    +0.000 A 
ATOM      7  C   UNL A   1     -25.899   2.111  27.747  0.00  0.00    +0.001 A 
ATOM      8  C   UNL A   1     -26.696   1.223  28.485  0.00  0.00    +0.008 A 
ENDBRANCH   1   3
BRANCH   2   9
ATOM      9  C   UNL A   1     -29.231  -1.279  30.684  0.00  0.00    +0.042 A 
ATOM     10  C   UNL A   1     -29.683  -2.577  30.375  0.00  0.00    +0.008 A 
ATOM     11  C   UNL A   1     -30.741  -3.165  30.992  0.00  0.00    +0.001 A 
ATOM     12  C   UNL A   1     -31.278  -2.581  32.100  0.00  0.00    +0.000 A 
ATOM     13  C   UNL A   1     -30.886  -1.362  32.541  0.00  0.00    +0.001 A 
ATOM     14  C   UNL A   1     -29.915  -0.671  31.799  0.00  0.00    +0.008 A 
ENDBRANCH   2   9
TORSDOF 2
