REMARK  Name = No_400-gen_results/8p0m/2024-11-26-14-13-15/
REMARK  2 active torsions:
REMARK  status: ('A' for Active; 'I' for Inactive)
REMARK    1  A    between atoms: C_3  and  C_7
REMARK    2  A    between atoms: C_7  and  C_8
REMARK                            x       y       z     vdW  Elec       q    Type
REMARK                         _______ _______ _______ _____ _____    ______ ____
ROOT
ATOM      1  C   UNL A   1     -26.401   0.298  27.222  0.00  0.00    +0.053 C 
ENDROOT
BRANCH   1   4
ATOM      2  C   UNL A   1     -28.016  -0.814  28.878  0.00  0.00    -0.004 A 
ATOM      3  C   UNL A   1     -28.469  -0.785  29.829  0.00  0.00    -0.000 A 
ATOM      4  C   UNL A   1     -27.136   0.236  28.535  0.00  0.00    -0.018 A 
ATOM      5  C   UNL A   1     -26.875   1.282  29.398  0.00  0.00    -0.004 A 
ATOM      6  C   UNL A   1     -27.507   1.238  30.630  0.00  0.00    -0.000 A 
ATOM      7  C   UNL A   1     -28.327   0.164  30.924  0.00  0.00    -0.000 A 
ENDBRANCH   1   4
BRANCH   1   8
ATOM      8  C   UNL A   1     -25.184   0.240  27.213  0.00  0.00    -0.018 A 
ATOM      9  C   UNL A   1     -24.320   0.180  28.383  0.00  0.00    -0.004 A 
ATOM     10  C   UNL A   1     -23.023   0.744  28.354  0.00  0.00    -0.000 A 
ATOM     11  C   UNL A   1     -22.628   1.563  27.261  0.00  0.00    -0.000 A 
ATOM     12  C   UNL A   1     -23.481   1.744  26.196  0.00  0.00    -0.000 A 
ATOM     13  C   UNL A   1     -24.673   1.182  26.136  0.00  0.00    -0.004 A 
ENDBRANCH   1   8
TORSDOF 2
