MODEL 4000
MODEL 1
REMARK VINA RESULT:    -4.450      0.000      0.000
REMARK INTER + INTRA:          -4.450
REMARK INTER:                  -4.450
REMARK INTRA:                   0.000
REMARK UNBOUND:                 0.000
REMARK  Name = No_4000-gen_results/8p0m/2024-11-26-14-13-15/
REMARK  0 active torsions:
REMARK  status: ('A' for Active; 'I' for Inactive)
REMARK                            x       y       z     vdW  Elec       q    Type
REMARK                         _______ _______ _______ _____ _____    ______ ____
ROOT
ATOM      1  C   UNL A   1      -8.098 -10.574  18.783  0.00  0.00    +0.011 A 
ATOM      2  C   UNL A   1      -8.984 -10.619  17.962  0.00  0.00    +0.001 A 
ATOM      3  C   UNL A   1     -10.165  -9.906  18.141  0.00  0.00    +0.000 A 
ATOM      4  C   UNL A   1     -10.388  -9.129  19.332  0.00  0.00    +0.001 A 
ATOM      5  C   UNL A   1      -9.321  -9.152  20.240  0.00  0.00    +0.011 A 
ATOM      6  C   UNL A   1      -8.232  -9.856  20.032  0.00  0.00    +0.058 A 
ATOM      7 CL   UNL A   1      -6.966 -10.007  21.130  0.00  0.00    -0.082 Cl
ENDROOT
TORSDOF 0
ENDMDL
ENDMDL
