MODEL 4001
MODEL 1
REMARK VINA RESULT:    -4.897      0.000      0.000
REMARK INTER + INTRA:          -5.246
REMARK INTER:                  -5.183
REMARK INTRA:                  -0.062
REMARK UNBOUND:                -0.062
REMARK  Name = No_4001-gen_results/8p0m/2024-11-26-14-13-15/
REMARK  1 active torsions:
REMARK  status: ('A' for Active; 'I' for Inactive)
REMARK    1  A    between atoms: C_2  and  C_7
REMARK                            x       y       z     vdW  Elec       q    Type
REMARK                         _______ _______ _______ _____ _____    ______ ____
ROOT
ATOM      1  C   UNL A   1     -23.831  -3.555  28.556  0.00  0.00    -0.000 A 
ATOM      2  C   UNL A   1     -24.571  -2.665  28.907  0.00  0.00    -0.000 A 
ATOM      3  C   UNL A   1     -25.793  -2.943  29.510  0.00  0.00    -0.000 A 
ATOM      4  C   UNL A   1     -26.237  -4.301  29.692  0.00  0.00    -0.000 A 
ATOM      5  C   UNL A   1     -25.331  -5.267  29.236  0.00  0.00    -0.000 A 
ATOM      6  C   UNL A   1     -24.194  -4.951  28.658  0.00  0.00    -0.000 A 
ENDROOT
BRANCH   2   7
ATOM      7  C   UNL A   1     -24.289  -1.211  28.773  0.00  0.00    -0.005 C 
ATOM      8  C   UNL A   1     -23.488  -0.574  29.551  0.00  0.00    -0.026 C 
ATOM      9  C   UNL A   1     -23.345  -1.077  30.983  0.00  0.00    +0.031 C 
ENDBRANCH   2   7
TORSDOF 1
ENDMDL
ENDMDL
