REMARK  Name = No_4002-gen_results/8p0m/2024-11-26-14-13-15/
REMARK  2 active torsions:
REMARK  status: ('A' for Active; 'I' for Inactive)
REMARK    1  A    between atoms: C_3  and  C_4
REMARK    2  A    between atoms: C_7  and  C_13
REMARK                            x       y       z     vdW  Elec       q    Type
REMARK                         _______ _______ _______ _____ _____    ______ ____
ROOT
ATOM      1  C   UNL A   1     -28.016  -0.814  28.878  0.00  0.00    +0.000 A 
ATOM      2  C   UNL A   1     -28.469  -0.785  29.829  0.00  0.00    +0.000 A 
ATOM      3  C   UNL A   1     -28.196   0.348  28.055  0.00  0.00    +0.000 A 
ATOM      4  C   UNL A   1     -29.496   0.109  30.345  0.00  0.00    +0.007 A 
ATOM      5  C   UNL A   1     -29.728   1.187  29.569  0.00  0.00    +0.080 A 
ATOM      6  C   UNL A   1     -29.042   1.367  28.372  0.00  0.00    +0.007 A 
ENDROOT
BRANCH   3   7
ATOM      7  C   UNL A   1     -27.442   0.510  26.795  0.00  0.00    +0.000 A 
ATOM      8  C   UNL A   1     -27.843   1.333  25.806  0.00  0.00    +0.000 A 
ATOM      9  C   UNL A   1     -26.128  -0.067  26.626  0.00  0.00    +0.000 A 
ATOM     10  C   UNL A   1     -25.319   0.259  25.580  0.00  0.00    +0.000 A 
ATOM     11  C   UNL A   1     -27.214   1.435  24.516  0.00  0.00    +0.000 A 
ATOM     12  C   UNL A   1     -25.881   0.890  24.502  0.00  0.00    +0.000 A 
ENDBRANCH   3   7
BRANCH   5  13
ATOM     13  C   UNL A   1     -30.787   2.130  29.782  0.00  0.00    +0.388 C 
ATOM     14  O   UNL A   1     -31.435   2.177  30.759  0.00  0.00    -0.241 OA
ATOM     15  O   UNL A   1     -30.705   3.220  29.050  0.00  0.00    -0.241 OA
ENDBRANCH   5  13
TORSDOF 2
