MODEL 4002
MODEL 1
REMARK VINA RESULT:    -6.898      0.000      0.000
REMARK INTER + INTRA:          -8.172
REMARK INTER:                  -7.705
REMARK INTRA:                  -0.467
REMARK UNBOUND:                -0.467
REMARK  Name = No_4002-gen_results/8p0m/2024-11-26-14-13-15/
REMARK  2 active torsions:
REMARK  status: ('A' for Active; 'I' for Inactive)
REMARK    1  A    between atoms: C_3  and  C_4
REMARK    2  A    between atoms: C_7  and  C_13
REMARK                            x       y       z     vdW  Elec       q    Type
REMARK                         _______ _______ _______ _____ _____    ______ ____
ROOT
ATOM      1  C   UNL A   1     -22.178  -1.143  29.308  0.00  0.00    +0.000 A 
ATOM      2  C   UNL A   1     -21.595  -0.353  28.924  0.00  0.00    +0.000 A 
ATOM      3  C   UNL A   1     -23.521  -1.237  28.812  0.00  0.00    +0.000 A 
ATOM      4  C   UNL A   1     -22.005   0.841  28.199  0.00  0.00    +0.007 A 
ATOM      5  C   UNL A   1     -23.280   0.809  27.763  0.00  0.00    +0.080 A 
ATOM      6  C   UNL A   1     -24.102  -0.280  28.036  0.00  0.00    +0.007 A 
ENDROOT
BRANCH   3   7
ATOM      7  C   UNL A   1     -24.362  -2.413  29.114  0.00  0.00    +0.000 A 
ATOM      8  C   UNL A   1     -25.654  -2.311  29.484  0.00  0.00    +0.000 A 
ATOM      9  C   UNL A   1     -23.897  -3.756  28.851  0.00  0.00    +0.000 A 
ATOM     10  C   UNL A   1     -24.727  -4.835  28.896  0.00  0.00    +0.000 A 
ATOM     11  C   UNL A   1     -26.477  -3.413  29.905  0.00  0.00    +0.000 A 
ATOM     12  C   UNL A   1     -25.939  -4.691  29.516  0.00  0.00    +0.000 A 
ENDBRANCH   3   7
BRANCH   5  13
ATOM     13  C   UNL A   1     -23.961   1.916  27.158  0.00  0.00    +0.388 C 
ATOM     14  O   UNL A   1     -24.226   2.910  27.723  0.00  0.00    -0.241 OA
ATOM     15  O   UNL A   1     -23.870   1.965  25.846  0.00  0.00    -0.241 OA
ENDBRANCH   5  13
TORSDOF 2
ENDMDL
ENDMDL
