MODEL 4003
MODEL 1
REMARK VINA RESULT:    -6.961      0.000      0.000
REMARK INTER + INTRA:         -11.168
REMARK INTER:                  -9.402
REMARK INTRA:                  -1.766
REMARK UNBOUND:                -1.766
REMARK  Name = No_4003-gen_results/8p0m/2024-11-26-14-13-15/
REMARK  6 active torsions:
REMARK  status: ('A' for Active; 'I' for Inactive)
REMARK    1  A    between atoms: C_2  and  C_3
REMARK    2  A    between atoms: C_5  and  C_13
REMARK    3  A    between atoms: C_7  and  C_20
REMARK    4  A    between atoms: C_8  and  C_28
REMARK    5  A    between atoms: C_13  and  O_15
REMARK    6  A    between atoms: O_15  and  C_16
REMARK                            x       y       z     vdW  Elec       q    Type
REMARK                         _______ _______ _______ _____ _____    ______ ____
ROOT
ATOM      1  C   UNL A   1     -30.978 -10.940  10.939  0.00  0.00    +0.006 A 
ATOM      2  C   UNL A   1     -30.784  -9.897  10.359  0.00  0.00    +0.000 A 
ATOM      3  C   UNL A   1     -29.815 -11.772  11.223  0.00  0.00    +0.076 A 
ATOM      4  C   UNL A   1     -28.685 -11.678  10.442  0.00  0.00    +0.013 A 
ATOM      5  C   UNL A   1     -29.542  -9.678   9.553  0.00  0.00    +0.006 A 
ATOM      6  C   UNL A   1     -28.514 -10.578   9.643  0.00  0.00    +0.080 A 
ENDROOT
BRANCH   2   7
ATOM      7  C   UNL A   1     -31.733  -8.901  10.239  0.00  0.00    +0.001 A 
ATOM      8  C   UNL A   1     -32.728  -9.039   9.533  0.00  0.00    +0.007 A 
ATOM      9  C   UNL A   1     -33.763  -7.968   9.390  0.00  0.00    +0.035 A 
ATOM     10  C   UNL A   1     -33.573  -6.775  10.087  0.00  0.00    +0.007 A 
ATOM     11  C   UNL A   1     -31.643  -7.642  10.982  0.00  0.00    +0.000 A 
ATOM     12  C   UNL A   1     -32.538  -6.628  10.885  0.00  0.00    +0.001 A 
ATOM     13 BR   UNL A   1     -35.242  -8.229   8.211  0.00  0.00    -0.049 Br
ENDBRANCH   2   7
BRANCH   5  14
ATOM     14  C   UNL A   1     -29.368  -8.487   8.709  0.00  0.00    +0.001 A 
ATOM     15  C   UNL A   1     -29.814  -8.522   7.412  0.00  0.00    +0.011 A 
ATOM     16  C   UNL A   1     -29.608  -7.430   6.524  0.00  0.00    +0.058 A 
ATOM     17  C   UNL A   1     -29.376  -6.160   6.996  0.00  0.00    +0.011 A 
ATOM     18  C   UNL A   1     -28.859  -7.207   9.209  0.00  0.00    +0.000 A 
ATOM     19  C   UNL A   1     -28.771  -6.094   8.281  0.00  0.00    +0.001 A 
ATOM     20 CL   UNL A   1     -30.228  -7.527   4.925  0.00  0.00    -0.082 Cl
ENDBRANCH   5  14
BRANCH   6  21
ATOM     21  C   UNL A   1     -27.224 -10.409   8.944  0.00  0.00    +0.388 C 
ATOM     22  O   UNL A   1     -26.269  -9.939   9.665  0.00  0.00    -0.241 OA
ATOM     23  O   UNL A   1     -26.889 -11.279   7.991  0.00  0.00    -0.241 OA
ENDBRANCH   6  21
BRANCH   3  24
ATOM     24  C   UNL A   1     -29.990 -13.033  12.054  0.00  0.00    +0.347 C 
ATOM     25  O   UNL A   1     -30.152 -13.059  13.230  0.00  0.00    -0.245 OA
BRANCH  24  26
ATOM     26  O   UNL A   1     -29.528 -14.140  11.451  0.00  0.00    -0.370 OA
BRANCH  26  27
ATOM     27  C   UNL A   1     -30.059 -15.158  11.393  0.00  0.00    +0.577 C 
ATOM     28  F   UNL A   1     -30.051 -15.878  12.396  0.00  0.00    -0.133 F 
ATOM     29  F   UNL A   1     -29.557 -15.907  10.365  0.00  0.00    -0.133 F 
ATOM     30  F   UNL A   1     -31.418 -14.935  11.009  0.00  0.00    -0.133 F 
ENDBRANCH  26  27
ENDBRANCH  24  26
ENDBRANCH   3  24
TORSDOF 6
ENDMDL
ENDMDL
