REMARK  Name = No_4003-gen_results/8p0m/2024-11-26-14-13-15/
REMARK  6 active torsions:
REMARK  status: ('A' for Active; 'I' for Inactive)
REMARK    1  A    between atoms: C_2  and  C_3
REMARK    2  A    between atoms: C_5  and  C_13
REMARK    3  A    between atoms: C_7  and  C_20
REMARK    4  A    between atoms: C_8  and  C_28
REMARK    5  A    between atoms: C_13  and  O_15
REMARK    6  A    between atoms: O_15  and  C_16
REMARK                            x       y       z     vdW  Elec       q    Type
REMARK                         _______ _______ _______ _____ _____    ______ ____
ROOT
ATOM      1  C   UNL A   1     -28.016  -0.814  28.878  0.00  0.00    +0.006 A 
ATOM      2  C   UNL A   1     -27.064  -0.119  28.608  0.00  0.00    +0.000 A 
ATOM      3  C   UNL A   1     -28.059  -1.396  30.214  0.00  0.00    +0.076 A 
ATOM      4  C   UNL A   1     -26.895  -1.608  30.918  0.00  0.00    +0.013 A 
ATOM      5  C   UNL A   1     -25.784  -0.225  29.376  0.00  0.00    +0.006 A 
ATOM      6  C   UNL A   1     -25.752  -0.958  30.532  0.00  0.00    +0.080 A 
ENDROOT
BRANCH   2   7
ATOM      7  C   UNL A   1     -27.001   0.691  27.491  0.00  0.00    +0.001 A 
ATOM      8  C   UNL A   1     -27.178   1.904  27.563  0.00  0.00    +0.007 A 
ATOM      9  C   UNL A   1     -27.117   2.795  26.362  0.00  0.00    +0.035 A 
ATOM     10  C   UNL A   1     -26.851   2.209  25.124  0.00  0.00    +0.007 A 
ATOM     11  C   UNL A   1     -26.668   0.169  26.164  0.00  0.00    +0.000 A 
ATOM     12  C   UNL A   1     -26.611   0.919  25.036  0.00  0.00    +0.001 A 
ATOM     13 BR   UNL A   1     -27.482   4.660  26.544  0.00  0.00    -0.049 Br
ENDBRANCH   2   7
BRANCH   5  14
ATOM     14  C   UNL A   1     -24.569   0.488  28.957  0.00  0.00    +0.001 A 
ATOM     15  C   UNL A   1     -23.374  -0.186  28.950  0.00  0.00    +0.011 A 
ATOM     16  C   UNL A   1     -22.152   0.468  28.627  0.00  0.00    +0.058 A 
ATOM     17  C   UNL A   1     -22.137   1.630  27.893  0.00  0.00    +0.011 A 
ATOM     18  C   UNL A   1     -24.574   1.850  28.416  0.00  0.00    +0.000 A 
ATOM     19  C   UNL A   1     -23.309   2.428  28.001  0.00  0.00    +0.001 A 
ATOM     20 CL   UNL A   1     -20.698  -0.447  28.601  0.00  0.00    -0.082 Cl
ENDBRANCH   5  14
BRANCH   6  21
ATOM     21  C   UNL A   1     -24.558  -1.061  31.395  0.00  0.00    +0.388 C 
ATOM     22  O   UNL A   1     -24.708  -0.614  32.591  0.00  0.00    -0.241 OA
ATOM     23  O   UNL A   1     -23.736  -2.099  31.237  0.00  0.00    -0.241 OA
ENDBRANCH   6  21
BRANCH   3  24
ATOM     24  C   UNL A   1     -29.290  -2.178  30.643  0.00  0.00    +0.347 C 
ATOM     25  O   UNL A   1     -29.297  -3.326  30.949  0.00  0.00    -0.245 OA
BRANCH  24  26
ATOM     26  O   UNL A   1     -30.445  -1.618  30.250  0.00  0.00    -0.370 OA
BRANCH  26  27
ATOM     27  C   UNL A   1     -30.850  -0.591  30.572  0.00  0.00    +0.577 C 
ATOM     28  F   UNL A   1     -30.154   0.102  31.320  0.00  0.00    -0.133 F 
ATOM     29  F   UNL A   1     -32.070  -0.721  31.175  0.00  0.00    -0.133 F 
ATOM     30  F   UNL A   1     -31.140   0.167  29.395  0.00  0.00    -0.133 F 
ENDBRANCH  26  27
ENDBRANCH  24  26
ENDBRANCH   3  24
TORSDOF 6
