MODEL 4004
MODEL 1
REMARK VINA RESULT:    -6.006      0.000      0.000
REMARK INTER + INTRA:         -14.786
REMARK INTER:                 -11.625
REMARK INTRA:                  -3.161
REMARK UNBOUND:                -3.161
REMARK  Name = No_4004-gen_results/8p0m/2024-11-26-14-13-15/
REMARK  16 active torsions:
REMARK  status: ('A' for Active; 'I' for Inactive)
REMARK    1  A    between atoms: C_2  and  C_14
REMARK    2  A    between atoms: C_3  and  C_7
REMARK    3  A    between atoms: C_6  and  C_11
REMARK    4  A    between atoms: C_14  and  O_16
REMARK    5  A    between atoms: O_16  and  C_17
REMARK    6  A    between atoms: C_17  and  C_18
REMARK    7  A    between atoms: C_18  and  O_19
REMARK    8  A    between atoms: O_19  and  C_20
REMARK    9  A    between atoms: C_20  and  C_21
REMARK   10  A    between atoms: C_20  and  C_23
REMARK   11  A    between atoms: C_23  and  C_25
REMARK   12  A    between atoms: C_23  and  O_29
REMARK   13  A    between atoms: C_25  and  C_27
REMARK   14  A    between atoms: C_27  and  C_30
REMARK   15  A    between atoms: C_30  and  C_31
REMARK   16  A    between atoms: C_31  and  C_32
REMARK                            x       y       z     vdW  Elec       q    Type
REMARK                         _______ _______ _______ _____ _____    ______ ____
ROOT
ATOM      1  C   UNL A   1     -23.622  -1.365  30.860  0.00  0.00    +0.314 C 
ATOM      2  O   UNL A   1     -23.921  -1.130  32.185  0.00  0.00    -0.186 OA
ENDROOT
BRANCH   1   3
ATOM      3  O   UNL A   1     -24.682  -1.190  30.176  0.00  0.00    -0.319 OA
BRANCH   3   4
ATOM      4  C   UNL A   1     -25.456  -2.258  29.891  0.00  0.00    +0.197 C 
BRANCH   4   5
ATOM      5  C   UNL A   1     -25.299  -3.189  29.071  0.00  0.00    +0.143 C 
ATOM      6  C   UNL A   1     -24.853  -4.329  29.571  0.00  0.00    +0.002 C 
ATOM      7  C   UNL A   1     -24.763  -5.599  28.769  0.00  0.00    +0.033 C 
ATOM      8  F   UNL A   1     -24.650  -2.940  27.961  0.00  0.00    -0.207 F 
ENDBRANCH   4   5
BRANCH   4   9
ATOM      9  C   UNL A   1     -26.865  -1.817  30.343  0.00  0.00    +0.179 C 
BRANCH   9  10
ATOM     10  O   UNL A   1     -27.902  -2.732  30.069  0.00  0.00    -0.348 OA
ATOM     11  C   UNL A   1     -28.468  -3.417  31.181  0.00  0.00    +0.174 C 
ENDBRANCH   9  10
BRANCH   9  12
ATOM     12  C   UNL A   1     -27.099  -0.604  29.636  0.00  0.00    +0.182 C 
ATOM     13  O   UNL A   1     -28.255  -0.516  28.857  0.00  0.00    -0.220 OA
BRANCH  12  14
ATOM     14  C   UNL A   1     -27.484   0.294  30.701  0.00  0.00    +0.036 C 
BRANCH  14  15
ATOM     15  C   UNL A   1     -26.672   1.467  30.926  0.00  0.00    +0.011 C 
BRANCH  15  16
ATOM     16  C   UNL A   1     -26.397   2.200  29.684  0.00  0.00    +0.072 C 
BRANCH  16  17
ATOM     17  C   UNL A   1     -26.119   3.468  29.699  0.00  0.00    +0.207 C 
ATOM     18  O   UNL A   1     -25.305   4.015  30.535  0.00  0.00    -0.288 OA
ENDBRANCH  16  17
ENDBRANCH  15  16
ENDBRANCH  14  15
ENDBRANCH  12  14
ENDBRANCH   9  12
ENDBRANCH   4   9
ENDBRANCH   3   4
ENDBRANCH   1   3
BRANCH   1  19
ATOM     19  C   UNL A   1     -22.598  -0.414  30.212  0.00  0.00    +0.273 C 
BRANCH  19  20
ATOM     20  O   UNL A   1     -22.787  -0.606  28.920  0.00  0.00    -0.440 OA
BRANCH  20  21
ATOM     21  C   UNL A   1     -22.313   0.461  28.120  0.00  0.00    +0.341 C 
ATOM     22  O   UNL A   1     -21.280   0.729  28.236  0.00  0.00    -0.245 OA
BRANCH  21  24
ATOM     23  C   UNL A   1     -24.213   0.434  26.801  0.00  0.00    +0.010 A 
ATOM     24  C   UNL A   1     -23.515   1.121  27.190  0.00  0.00    +0.075 A 
ATOM     25  C   UNL A   1     -25.228   1.055  25.942  0.00  0.00    +0.071 A 
ATOM     26  C   UNL A   1     -25.355   2.377  25.824  0.00  0.00    +0.005 A 
ATOM     27  C   UNL A   1     -23.458   2.562  27.217  0.00  0.00    +0.008 A 
ATOM     28  C   UNL A   1     -24.424   3.121  26.434  0.00  0.00    +0.044 A 
BRANCH  25  29
ATOM     29  C   UNL A   1     -26.206   0.102  25.259  0.00  0.00    +0.419 C 
ATOM     30  F   UNL A   1     -25.700  -1.104  25.060  0.00  0.00    -0.166 F 
ATOM     31  F   UNL A   1     -26.555   0.543  23.994  0.00  0.00    -0.166 F 
ATOM     32  F   UNL A   1     -27.339   0.062  26.075  0.00  0.00    -0.166 F 
ENDBRANCH  25  29
BRANCH  28  33
ATOM     33  C   UNL A   1     -24.469   4.619  26.380  0.00  0.00    +0.341 C 
ATOM     34  F   UNL A   1     -24.089   5.145  25.517  0.00  0.00    -0.193 F 
ATOM     35  F   UNL A   1     -24.740   5.202  27.388  0.00  0.00    -0.193 F 
ENDBRANCH  28  33
ENDBRANCH  21  24
ENDBRANCH  20  21
ENDBRANCH  19  20
ENDBRANCH   1  19
TORSDOF 16
ENDMDL
ENDMDL
