REMARK  Name = No_4004-gen_results/8p0m/2024-11-26-14-13-15/
REMARK  16 active torsions:
REMARK  status: ('A' for Active; 'I' for Inactive)
REMARK    1  A    between atoms: C_2  and  C_14
REMARK    2  A    between atoms: C_3  and  C_7
REMARK    3  A    between atoms: C_6  and  C_11
REMARK    4  A    between atoms: C_14  and  O_16
REMARK    5  A    between atoms: O_16  and  C_17
REMARK    6  A    between atoms: C_17  and  C_18
REMARK    7  A    between atoms: C_18  and  O_19
REMARK    8  A    between atoms: O_19  and  C_20
REMARK    9  A    between atoms: C_20  and  C_21
REMARK   10  A    between atoms: C_20  and  C_23
REMARK   11  A    between atoms: C_23  and  C_25
REMARK   12  A    between atoms: C_23  and  O_29
REMARK   13  A    between atoms: C_25  and  C_27
REMARK   14  A    between atoms: C_27  and  C_30
REMARK   15  A    between atoms: C_30  and  C_31
REMARK   16  A    between atoms: C_31  and  C_32
REMARK                            x       y       z     vdW  Elec       q    Type
REMARK                         _______ _______ _______ _____ _____    ______ ____
ROOT
ATOM      1  C   UNL A   1     -29.288  -5.361  30.482  0.00  0.00    +0.314 C 
ATOM      2  O   UNL A   1     -29.198  -6.587  31.108  0.00  0.00    -0.186 OA
ENDROOT
BRANCH   1   3
ATOM      3  O   UNL A   1     -30.257  -4.719  31.003  0.00  0.00    -0.319 OA
BRANCH   3   4
ATOM      4  C   UNL A   1     -31.513  -5.175  30.817  0.00  0.00    +0.197 C 
BRANCH   4   5
ATOM      5  C   UNL A   1     -32.490  -5.228  31.596  0.00  0.00    +0.143 C 
ATOM      6  C   UNL A   1     -32.386  -4.510  32.702  0.00  0.00    +0.002 C 
ATOM      7  C   UNL A   1     -33.523  -4.321  33.669  0.00  0.00    +0.033 C 
ATOM      8  F   UNL A   1     -32.976  -6.403  31.908  0.00  0.00    -0.207 F 
ENDBRANCH   4   5
BRANCH   4   9
ATOM      9  C   UNL A   1     -31.370  -6.167  29.642  0.00  0.00    +0.179 C 
BRANCH   9  10
ATOM     10  O   UNL A   1     -31.054  -7.492  30.004  0.00  0.00    -0.348 OA
ATOM     11  C   UNL A   1     -31.928  -8.514  29.536  0.00  0.00    +0.174 C 
ENDBRANCH   9  10
BRANCH   9  12
ATOM     12  C   UNL A   1     -30.319  -5.625  28.849  0.00  0.00    +0.182 C 
ATOM     13  O   UNL A   1     -30.053  -6.230  27.619  0.00  0.00    -0.220 OA
BRANCH  12  14
ATOM     14  C   UNL A   1     -30.910  -4.398  28.366  0.00  0.00    +0.036 C 
BRANCH  14  15
ATOM     15  C   UNL A   1     -32.218  -4.468  27.759  0.00  0.00    +0.011 C 
BRANCH  15  16
ATOM     16  C   UNL A   1     -32.930  -3.185  27.823  0.00  0.00    +0.072 C 
BRANCH  16  17
ATOM     17  C   UNL A   1     -32.306  -2.084  28.114  0.00  0.00    +0.207 C 
ATOM     18  O   UNL A   1     -32.872  -0.927  28.157  0.00  0.00    -0.288 OA
ENDBRANCH  16  17
ENDBRANCH  15  16
ENDBRANCH  14  15
ENDBRANCH  12  14
ENDBRANCH   9  12
ENDBRANCH   4   9
ENDBRANCH   3   4
ENDBRANCH   1   3
BRANCH   1  19
ATOM     19  C   UNL A   1     -28.082  -4.418  30.652  0.00  0.00    +0.273 C 
BRANCH  19  20
ATOM     20  O   UNL A   1     -28.461  -3.329  30.011  0.00  0.00    -0.440 OA
BRANCH  20  21
ATOM     21  C   UNL A   1     -28.260  -2.142  30.755  0.00  0.00    +0.341 C 
ATOM     22  O   UNL A   1     -28.043  -2.259  31.800  0.00  0.00    -0.245 OA
BRANCH  21  24
ATOM     23  C   UNL A   1     -28.016  -0.814  28.878  0.00  0.00    +0.010 A 
ATOM     24  C   UNL A   1     -28.469  -0.785  29.829  0.00  0.00    +0.075 A 
ATOM     25  C   UNL A   1     -28.182   0.428  28.113  0.00  0.00    +0.071 A 
ATOM     26  C   UNL A   1     -28.984   1.415  28.515  0.00  0.00    +0.005 A 
ATOM     27  C   UNL A   1     -29.380   0.138  30.461  0.00  0.00    +0.008 A 
ATOM     28  C   UNL A   1     -29.541   1.274  29.724  0.00  0.00    +0.044 A 
BRANCH  25  29
ATOM     29  C   UNL A   1     -27.459   0.493  26.770  0.00  0.00    +0.419 C 
ATOM     30  F   UNL A   1     -26.368  -0.254  26.733  0.00  0.00    -0.166 F 
ATOM     31  F   UNL A   1     -27.012   1.772  26.488  0.00  0.00    -0.166 F 
ATOM     32  F   UNL A   1     -28.393   0.097  25.810  0.00  0.00    -0.166 F 
ENDBRANCH  25  29
BRANCH  28  33
ATOM     33  C   UNL A   1     -30.469   2.314  30.277  0.00  0.00    +0.341 C 
ATOM     34  F   UNL A   1     -31.425   2.497  29.808  0.00  0.00    -0.193 F 
ATOM     35  F   UNL A   1     -30.037   3.059  31.106  0.00  0.00    -0.193 F 
ENDBRANCH  28  33
ENDBRANCH  21  24
ENDBRANCH  20  21
ENDBRANCH  19  20
ENDBRANCH   1  19
TORSDOF 16
