REMARK  Name = No_4006-gen_results/8p0m/2024-11-26-14-13-15/
REMARK  7 active torsions:
REMARK  status: ('A' for Active; 'I' for Inactive)
REMARK    1  A    between atoms: C_4  and  N_8
REMARK    2  A    between atoms: N_8  and  C_9
REMARK    3  A    between atoms: C_9  and  C_11
REMARK    4  A    between atoms: C_11  and  C_13
REMARK    5  A    between atoms: C_13  and  C_14
REMARK    6  A    between atoms: C_15  and  C_16
REMARK    7  A    between atoms: C_16  and  C_17
REMARK                            x       y       z     vdW  Elec       q    Type
REMARK                         _______ _______ _______ _____ _____    ______ ____
ROOT
ATOM      1  C   UNL A   1     -23.817   0.469  30.140  0.00  0.00    +0.073 C 
ATOM      2  C   UNL A   1     -24.233   1.592  30.245  0.00  0.00    +0.021 C 
ENDROOT
BRANCH   1   3
ATOM      3  N   UNL A   1     -24.455  -0.815  30.126  0.00  0.00    -0.307 N 
ATOM      4  C   UNL A   1     -23.835  -1.603  31.224  0.00  0.00    +0.112 C 
BRANCH   3   8
ATOM      5  C   UNL A   1     -28.016  -0.814  28.878  0.00  0.00    +0.013 A 
ATOM      6  C   UNL A   1     -28.469  -0.785  29.829  0.00  0.00    +0.058 A 
ATOM      7  C   UNL A   1     -26.504  -0.778  28.877  0.00  0.00    +0.015 A 
ATOM      8  C   UNL A   1     -25.810  -0.853  30.103  0.00  0.00    +0.048 A 
ATOM      9  C   UNL A   1     -27.991  -0.892  31.226  0.00  0.00    +0.013 A 
ATOM     10  C   UNL A   1     -26.604  -0.868  31.265  0.00  0.00    +0.015 A 
ATOM     11 CL   UNL A   1     -30.294  -0.838  29.835  0.00  0.00    -0.082 Cl
ENDBRANCH   3   8
ENDBRANCH   1   3
BRANCH   1  12
ATOM     12  C   UNL A   1     -22.693   0.368  29.065  0.00  0.00    +0.024 C 
BRANCH  12  13
ATOM     13  C   UNL A   1     -22.088   1.472  28.482  0.00  0.00    +0.027 C 
BRANCH  13  14
ATOM     14  C   UNL A   1     -22.745   1.867  27.406  0.00  0.00    -0.030 C 
ATOM     15  C   UNL A   1     -24.112   1.684  27.086  0.00  0.00    -0.026 C 
BRANCH  15  16
ATOM     16  C   UNL A   1     -24.598   2.182  25.843  0.00  0.00    +0.052 C 
BRANCH  16  17
ATOM     17  C   UNL A   1     -25.895   1.948  25.470  0.00  0.00    -0.018 A 
ATOM     18  C   UNL A   1     -26.231   0.687  25.169  0.00  0.00    -0.004 A 
ATOM     19  C   UNL A   1     -27.520   0.262  24.776  0.00  0.00    -0.000 A 
ATOM     20  C   UNL A   1     -28.503   1.213  24.686  0.00  0.00    -0.000 A 
ATOM     21  C   UNL A   1     -28.243   2.587  25.006  0.00  0.00    -0.000 A 
ATOM     22  C   UNL A   1     -26.944   2.969  25.388  0.00  0.00    -0.004 A 
ENDBRANCH  16  17
ENDBRANCH  15  16
ENDBRANCH  13  14
ENDBRANCH  12  13
ENDBRANCH   1  12
TORSDOF 7
