MODEL 4006
MODEL 1
REMARK VINA RESULT:    -4.751      0.000      0.000
REMARK INTER + INTRA:          -9.467
REMARK INTER:                  -6.695
REMARK INTRA:                  -2.772
REMARK UNBOUND:                -2.772
REMARK  Name = No_4006-gen_results/8p0m/2024-11-26-14-13-15/
REMARK  7 active torsions:
REMARK  status: ('A' for Active; 'I' for Inactive)
REMARK    1  A    between atoms: C_4  and  N_8
REMARK    2  A    between atoms: N_8  and  C_9
REMARK    3  A    between atoms: C_9  and  C_11
REMARK    4  A    between atoms: C_11  and  C_13
REMARK    5  A    between atoms: C_13  and  C_14
REMARK    6  A    between atoms: C_15  and  C_16
REMARK    7  A    between atoms: C_16  and  C_17
REMARK                            x       y       z     vdW  Elec       q    Type
REMARK                         _______ _______ _______ _____ _____    ______ ____
ROOT
ATOM      1  C   UNL A   1     -30.107   1.825  24.058  0.00  0.00    +0.073 C 
ATOM      2  C   UNL A   1     -30.672   1.872  22.998  0.00  0.00    +0.021 C 
ENDROOT
BRANCH   1   3
ATOM      3  N   UNL A   1     -30.274   2.539  25.290  0.00  0.00    -0.307 N 
ATOM      4  C   UNL A   1     -31.362   1.848  26.032  0.00  0.00    +0.112 C 
BRANCH   3   8
ATOM      5  C   UNL A   1     -26.833   3.722  26.291  0.00  0.00    +0.013 A 
ATOM      6  C   UNL A   1     -26.847   3.303  27.258  0.00  0.00    +0.058 A 
ATOM      7  C   UNL A   1     -28.059   3.449  25.448  0.00  0.00    +0.015 A 
ATOM      8  C   UNL A   1     -29.168   2.800  26.030  0.00  0.00    +0.048 A 
ATOM      9  C   UNL A   1     -27.862   2.632  28.100  0.00  0.00    +0.013 A 
ATOM     10  C   UNL A   1     -29.007   2.370  27.360  0.00  0.00    +0.015 A 
ATOM     11 CL   UNL A   1     -25.373   3.639  28.283  0.00  0.00    -0.082 Cl
ENDBRANCH   3   8
ENDBRANCH   1   3
BRANCH   1  12
ATOM     12  C   UNL A   1     -29.803   0.357  24.486  0.00  0.00    +0.024 C 
BRANCH  12  13
ATOM     13  C   UNL A   1     -28.907  -0.466  23.820  0.00  0.00    +0.027 C 
BRANCH  13  14
ATOM     14  C   UNL A   1     -27.681   0.024  23.866  0.00  0.00    -0.030 C 
ATOM     15  C   UNL A   1     -26.761   0.010  24.942  0.00  0.00    -0.026 C 
BRANCH  15  16
ATOM     16  C   UNL A   1     -25.490   0.627  24.766  0.00  0.00    +0.052 C 
BRANCH  16  17
ATOM     17  C   UNL A   1     -24.639   0.763  25.831  0.00  0.00    -0.018 A 
ATOM     18  C   UNL A   1     -23.645   1.652  25.716  0.00  0.00    -0.004 A 
ATOM     19  C   UNL A   1     -22.683   1.929  26.714  0.00  0.00    -0.000 A 
ATOM     20  C   UNL A   1     -22.767   1.229  27.889  0.00  0.00    -0.000 A 
ATOM     21  C   UNL A   1     -23.809   0.268  28.112  0.00  0.00    -0.000 A 
ATOM     22  C   UNL A   1     -24.743   0.018  27.090  0.00  0.00    -0.004 A 
ENDBRANCH  16  17
ENDBRANCH  15  16
ENDBRANCH  13  14
ENDBRANCH  12  13
ENDBRANCH   1  12
TORSDOF 7
ENDMDL
ENDMDL
