REMARK  Name = No_4007-gen_results/8p0m/2024-11-26-14-13-15/
REMARK  3 active torsions:
REMARK  status: ('A' for Active; 'I' for Inactive)
REMARK    1  A    between atoms: C_3  and  C_4
REMARK    2  A    between atoms: C_4  and  C_8
REMARK    3  A    between atoms: C_9  and  C_10
REMARK                            x       y       z     vdW  Elec       q    Type
REMARK                         _______ _______ _______ _____ _____    ______ ____
ROOT
ATOM      1  C   UNL A   1     -28.016  -0.814  28.878  0.00  0.00    -0.004 A 
ATOM      2  C   UNL A   1     -28.469  -0.785  29.829  0.00  0.00    -0.000 A 
ATOM      3  C   UNL A   1     -27.087   0.290  28.638  0.00  0.00    -0.018 A 
ATOM      4  C   UNL A   1     -28.391   0.104  30.980  0.00  0.00    -0.000 A 
ATOM      5  C   UNL A   1     -27.533   1.167  30.787  0.00  0.00    -0.000 A 
ATOM      6  C   UNL A   1     -26.828   1.256  29.645  0.00  0.00    -0.004 A 
ENDROOT
BRANCH   3   7
ATOM      7  C   UNL A   1     -26.252   0.411  27.422  0.00  0.00    +0.052 C 
BRANCH   7   8
ATOM      8  C   UNL A   1     -24.967   0.411  27.525  0.00  0.00    -0.021 C 
ATOM      9  C   UNL A   1     -24.155  -0.021  28.581  0.00  0.00    -0.005 C 
BRANCH   9  10
ATOM     10  C   UNL A   1     -22.757   0.166  28.574  0.00  0.00    -0.005 C 
ATOM     11  C   UNL A   1     -21.896  -0.489  29.461  0.00  0.00    -0.026 C 
ATOM     12  C   UNL A   1     -22.500  -1.247  30.475  0.00  0.00    +0.031 C 
ENDBRANCH   9  10
ENDBRANCH   7   8
ENDBRANCH   3   7
TORSDOF 3
