MODEL 4007
MODEL 1
REMARK VINA RESULT:    -6.227      0.000      0.000
REMARK INTER + INTRA:          -7.729
REMARK INTER:                  -7.320
REMARK INTRA:                  -0.409
REMARK UNBOUND:                -0.409
REMARK  Name = No_4007-gen_results/8p0m/2024-11-26-14-13-15/
REMARK  3 active torsions:
REMARK  status: ('A' for Active; 'I' for Inactive)
REMARK    1  A    between atoms: C_3  and  C_4
REMARK    2  A    between atoms: C_4  and  C_8
REMARK    3  A    between atoms: C_9  and  C_10
REMARK                            x       y       z     vdW  Elec       q    Type
REMARK                         _______ _______ _______ _____ _____    ______ ____
ROOT
ATOM      1  C   UNL A   1     -24.403   0.340  27.039  0.00  0.00    -0.004 A 
ATOM      2  C   UNL A   1     -24.253   1.106  26.331  0.00  0.00    -0.000 A 
ATOM      3  C   UNL A   1     -23.314   0.217  28.008  0.00  0.00    -0.018 A 
ATOM      4  C   UNL A   1     -23.205   2.087  26.082  0.00  0.00    -0.000 A 
ATOM      5  C   UNL A   1     -22.153   1.994  26.969  0.00  0.00    -0.000 A 
ATOM      6  C   UNL A   1     -22.205   1.102  27.974  0.00  0.00    -0.004 A 
ENDROOT
BRANCH   3   7
ATOM      7  C   UNL A   1     -23.340  -0.713  29.160  0.00  0.00    +0.052 C 
BRANCH   7   8
ATOM      8  C   UNL A   1     -23.277  -1.984  28.958  0.00  0.00    -0.021 C 
ATOM      9  C   UNL A   1     -24.309  -2.913  28.774  0.00  0.00    -0.005 C 
BRANCH   9  10
ATOM     10  C   UNL A   1     -24.061  -4.298  28.685  0.00  0.00    -0.005 C 
ATOM     11  C   UNL A   1     -25.006  -5.266  29.042  0.00  0.00    -0.026 C 
ATOM     12  C   UNL A   1     -26.186  -4.798  29.640  0.00  0.00    +0.031 C 
ENDBRANCH   9  10
ENDBRANCH   7   8
ENDBRANCH   3   7
TORSDOF 3
ENDMDL
ENDMDL
