MODEL 4008
MODEL 1
REMARK VINA RESULT:    -6.790      0.000      0.000
REMARK INTER + INTRA:          -9.806
REMARK INTER:                  -9.172
REMARK INTRA:                  -0.634
REMARK UNBOUND:                -0.634
REMARK  Name = No_4008-gen_results/8p0m/2024-11-26-14-13-15/
REMARK  6 active torsions:
REMARK  status: ('A' for Active; 'I' for Inactive)
REMARK    1  A    between atoms: C_2  and  O_14
REMARK    2  A    between atoms: C_9  and  C_11
REMARK    3  A    between atoms: O_14  and  C_15
REMARK    4  A    between atoms: C_15  and  C_16
REMARK    5  A    between atoms: C_17  and  C_18
REMARK    6  A    between atoms: C_19  and  C_20
REMARK                            x       y       z     vdW  Elec       q    Type
REMARK                         _______ _______ _______ _____ _____    ______ ____
ROOT
ATOM      1  C   UNL A   1     -23.581  -2.118  29.809  0.00  0.00    +0.037 A 
ATOM      2  C   UNL A   1     -23.558  -1.191  30.310  0.00  0.00    +0.139 A 
ATOM      3  C   UNL A   1     -24.924  -2.814  29.790  0.00  0.00    +0.003 A 
ATOM      4  C   UNL A   1     -25.189  -4.145  29.305  0.00  0.00    +0.000 A 
ATOM      5  C   UNL A   1     -24.630  -0.323  30.814  0.00  0.00    +0.037 A 
ATOM      6  C   UNL A   1     -25.892  -0.878  30.804  0.00  0.00    +0.003 A 
ATOM      7  C   UNL A   1     -26.096  -2.124  30.268  0.00  0.00    +0.000 A 
ATOM      8  C   UNL A   1     -26.375  -4.805  29.639  0.00  0.00    +0.005 A 
ATOM      9  C   UNL A   1     -27.487  -4.057  30.082  0.00  0.00    +0.057 A 
ATOM     10  C   UNL A   1     -27.347  -2.796  30.462  0.00  0.00    +0.005 A 
ENDROOT
BRANCH   9  11
ATOM     11  C   UNL A   1     -28.770  -4.796  30.251  0.00  0.00    +0.284 C 
ATOM     12  N   UNL A   1     -29.934  -4.920  29.789  0.00  0.00    -0.084 NA
ATOM     13  O   UNL A   1     -28.617  -5.582  31.402  0.00  0.00    -0.267 OA
ENDBRANCH   9  11
BRANCH   2  14
ATOM     14  O   UNL A   1     -22.288  -0.477  30.301  0.00  0.00    -0.471 OA
BRANCH  14  15
ATOM     15  C   UNL A   1     -21.558  -0.651  29.247  0.00  0.00    +0.232 C 
BRANCH  15  16
ATOM     16  C   UNL A   1     -21.617   0.351  28.285  0.00  0.00    +0.021 C 
ATOM     17  C   UNL A   1     -22.563   0.913  27.887  0.00  0.00    -0.001 C 
BRANCH  17  18
ATOM     18  C   UNL A   1     -22.602   2.005  26.866  0.00  0.00    -0.000 C 
ATOM     19  C   UNL A   1     -23.560   2.147  25.856  0.00  0.00    -0.000 C 
BRANCH  19  20
ATOM     20  C   UNL A   1     -24.537   1.093  25.811  0.00  0.00    -0.000 C 
ATOM     21  C   UNL A   1     -24.812   0.332  24.724  0.00  0.00    -0.000 C 
ENDBRANCH  19  20
ENDBRANCH  17  18
ENDBRANCH  15  16
ENDBRANCH  14  15
ENDBRANCH   2  14
TORSDOF 6
ENDMDL
ENDMDL
