REMARK  Name = No_4008-gen_results/8p0m/2024-11-26-14-13-15/
REMARK  6 active torsions:
REMARK  status: ('A' for Active; 'I' for Inactive)
REMARK    1  A    between atoms: C_2  and  O_14
REMARK    2  A    between atoms: C_9  and  C_11
REMARK    3  A    between atoms: O_14  and  C_15
REMARK    4  A    between atoms: C_15  and  C_16
REMARK    5  A    between atoms: C_17  and  C_18
REMARK    6  A    between atoms: C_19  and  C_20
REMARK                            x       y       z     vdW  Elec       q    Type
REMARK                         _______ _______ _______ _____ _____    ______ ____
ROOT
ATOM      1  C   UNL A   1     -28.016  -0.814  28.878  0.00  0.00    +0.037 A 
ATOM      2  C   UNL A   1     -28.469  -0.785  29.829  0.00  0.00    +0.139 A 
ATOM      3  C   UNL A   1     -26.504  -0.778  28.877  0.00  0.00    +0.003 A 
ATOM      4  C   UNL A   1     -25.654  -0.660  27.719  0.00  0.00    +0.000 A 
ATOM      5  C   UNL A   1     -27.918  -0.937  31.182  0.00  0.00    +0.037 A 
ATOM      6  C   UNL A   1     -26.542  -0.940  31.261  0.00  0.00    +0.003 A 
ATOM      7  C   UNL A   1     -25.783  -0.893  30.120  0.00  0.00    +0.000 A 
ATOM      8  C   UNL A   1     -24.310  -0.301  27.853  0.00  0.00    +0.005 A 
ATOM      9  C   UNL A   1     -23.667  -0.460  29.099  0.00  0.00    +0.057 A 
ATOM     10  C   UNL A   1     -24.370  -0.664  30.203  0.00  0.00    +0.005 A 
ENDROOT
BRANCH   9  11
ATOM     11  C   UNL A   1     -22.195  -0.229  29.131  0.00  0.00    +0.284 C 
ATOM     12  N   UNL A   1     -21.288   0.567  28.772  0.00  0.00    -0.084 NA
ATOM     13  O   UNL A   1     -21.635  -1.371  29.720  0.00  0.00    -0.267 OA
ENDBRANCH   9  11
BRANCH   2  14
ATOM     14  O   UNL A   1     -29.924  -0.867  29.861  0.00  0.00    -0.471 OA
BRANCH  14  15
ATOM     15  C   UNL A   1     -30.543  -0.106  29.018  0.00  0.00    +0.232 C 
BRANCH  15  16
ATOM     16  C   UNL A   1     -31.787   0.371  29.417  0.00  0.00    +0.021 C 
ATOM     17  C   UNL A   1     -32.327   0.205  30.442  0.00  0.00    -0.001 C 
BRANCH  17  18
ATOM     18  C   UNL A   1     -33.657   0.747  30.859  0.00  0.00    -0.000 C 
ATOM     19  C   UNL A   1     -34.260   0.563  32.109  0.00  0.00    -0.000 C 
BRANCH  19  20
ATOM     20  C   UNL A   1     -33.514  -0.272  33.011  0.00  0.00    -0.000 C 
ATOM     21  C   UNL A   1     -32.314  -0.839  32.734  0.00  0.00    -0.000 C 
ENDBRANCH  19  20
ENDBRANCH  17  18
ENDBRANCH  15  16
ENDBRANCH  14  15
ENDBRANCH   2  14
TORSDOF 6
