MODEL 4009
MODEL 1
REMARK VINA RESULT:    -5.196      0.000      0.000
REMARK INTER + INTRA:          -8.092
REMARK INTER:                  -7.323
REMARK INTRA:                  -0.769
REMARK UNBOUND:                -0.769
REMARK  Name = No_4009-gen_results/8p0m/2024-11-26-14-13-15/
REMARK  7 active torsions:
REMARK  status: ('A' for Active; 'I' for Inactive)
REMARK    1  A    between atoms: C_2  and  O_13
REMARK    2  A    between atoms: C_6  and  O_7
REMARK    3  A    between atoms: O_7  and  C_9
REMARK    4  A    between atoms: C_9  and  C_10
REMARK    5  A    between atoms: C_10  and  N_12
REMARK    6  A    between atoms: N_12  and  C_15
REMARK    7  A    between atoms: C_15  and  C_16
REMARK                            x       y       z     vdW  Elec       q    Type
REMARK                         _______ _______ _______ _____ _____    ______ ____
ROOT
ATOM      1  C   UNL A   1     -25.644   2.972  26.725  0.00  0.00    +0.239 C 
ENDROOT
BRANCH   1   2
ATOM      2  C   UNL A   1     -24.224   3.191  26.720  0.00  0.00    +0.196 C 
ATOM      3 CL   UNL A   1     -23.437   2.870  25.615  0.00  0.00    -0.092 Cl
BRANCH   2   4
ATOM      4  N   UNL A   1     -23.654   2.589  27.962  0.00  0.00    -0.194 NA
BRANCH   4   5
ATOM      5  C   UNL A   1     -22.687   1.588  27.844  0.00  0.00    +0.137 C 
BRANCH   5   6
ATOM      6  C   UNL A   1     -23.135   0.336  28.295  0.00  0.00    +0.096 A 
ATOM      7  N   UNL A   1     -24.282  -0.093  27.948  0.00  0.00    -0.243 NA
ATOM      8  C   UNL A   1     -24.771  -1.362  28.295  0.00  0.00    +0.119 A 
ATOM      9  C   UNL A   1     -23.869  -2.187  28.975  0.00  0.00    +0.119 A 
ATOM     10  C   UNL A   1     -22.286  -0.630  28.946  0.00  0.00    +0.115 A 
ATOM     11  N   UNL A   1     -22.659  -1.803  29.302  0.00  0.00    -0.239 NA
ENDBRANCH   5   6
ENDBRANCH   4   5
ENDBRANCH   2   4
ENDBRANCH   1   2
BRANCH   1  12
ATOM     12  O   UNL A   1     -26.211   2.981  25.512  0.00  0.00    -0.472 OA
BRANCH  12  18
ATOM     13  C   UNL A   1     -28.224   2.052  24.442  0.00  0.00    +0.075 A 
ATOM     14  C   UNL A   1     -28.820   1.116  23.964  0.00  0.00    +0.152 A 
ATOM     15  C   UNL A   1     -28.301  -0.173  24.024  0.00  0.00    +0.092 A 
ATOM     16  C   UNL A   1     -27.013  -0.425  24.617  0.00  0.00    +0.018 A 
ATOM     17  C   UNL A   1     -26.381   0.718  25.124  0.00  0.00    +0.038 A 
ATOM     18  C   UNL A   1     -26.908   1.917  25.028  0.00  0.00    +0.142 A 
ATOM     19 CL   UNL A   1     -29.067  -1.595  23.377  0.00  0.00    -0.079 Cl
BRANCH  14  20
ATOM     20  O   UNL A   1     -30.002   1.385  23.342  0.00  0.00    -0.470 OA
ATOM     21  C   UNL A   1     -31.168   1.340  23.931  0.00  0.00    +0.253 C 
ENDBRANCH  14  20
ENDBRANCH  12  18
ENDBRANCH   1  12
TORSDOF 7
ENDMDL
ENDMDL
