REMARK  Name = No_4009-gen_results/8p0m/2024-11-26-14-13-15/
REMARK  7 active torsions:
REMARK  status: ('A' for Active; 'I' for Inactive)
REMARK    1  A    between atoms: C_2  and  O_13
REMARK    2  A    between atoms: C_6  and  O_7
REMARK    3  A    between atoms: O_7  and  C_9
REMARK    4  A    between atoms: C_9  and  C_10
REMARK    5  A    between atoms: C_10  and  N_12
REMARK    6  A    between atoms: N_12  and  C_15
REMARK    7  A    between atoms: C_15  and  C_16
REMARK                            x       y       z     vdW  Elec       q    Type
REMARK                         _______ _______ _______ _____ _____    ______ ____
ROOT
ATOM      1  C   UNL A   1     -28.884  -3.943  30.599  0.00  0.00    +0.239 C 
ENDROOT
BRANCH   1   2
ATOM      2  C   UNL A   1     -30.111  -4.691  30.620  0.00  0.00    +0.196 C 
ATOM      3 CL   UNL A   1     -31.219  -4.260  31.347  0.00  0.00    -0.092 Cl
BRANCH   2   4
ATOM      4  N   UNL A   1     -29.787  -6.111  30.951  0.00  0.00    -0.194 NA
BRANCH   4   5
ATOM      5  C   UNL A   1     -30.606  -6.798  31.851  0.00  0.00    +0.137 C 
BRANCH   5   6
ATOM      6  C   UNL A   1     -30.849  -8.126  31.467  0.00  0.00    +0.096 A 
ATOM      7  N   UNL A   1     -30.833  -8.447  30.235  0.00  0.00    -0.243 NA
ATOM      8  C   UNL A   1     -30.992  -9.764  29.777  0.00  0.00    +0.119 A 
ATOM      9  C   UNL A   1     -31.072 -10.741  30.774  0.00  0.00    +0.119 A 
ATOM     10  C   UNL A   1     -30.885  -9.231  32.392  0.00  0.00    +0.115 A 
ATOM     11  N   UNL A   1     -31.036 -10.458  32.054  0.00  0.00    -0.239 NA
ENDBRANCH   5   6
ENDBRANCH   4   5
ENDBRANCH   2   4
ENDBRANCH   1   2
BRANCH   1  12
ATOM     12  O   UNL A   1     -29.000  -2.701  30.115  0.00  0.00    -0.472 OA
BRANCH  12  18
ATOM     13  C   UNL A   1     -28.016  -0.814  28.878  0.00  0.00    +0.075 A 
ATOM     14  C   UNL A   1     -27.064  -0.119  28.608  0.00  0.00    +0.152 A 
ATOM     15  C   UNL A   1     -25.792  -0.430  29.076  0.00  0.00    +0.092 A 
ATOM     16  C   UNL A   1     -25.576  -1.565  29.936  0.00  0.00    +0.018 A 
ATOM     17  C   UNL A   1     -26.735  -2.300  30.217  0.00  0.00    +0.038 A 
ATOM     18  C   UNL A   1     -27.918  -1.954  29.763  0.00  0.00    +0.142 A 
ATOM     19 CL   UNL A   1     -24.350   0.489  28.750  0.00  0.00    -0.079 Cl
BRANCH  14  20
ATOM     20  O   UNL A   1     -27.300   0.991  27.854  0.00  0.00    -0.470 OA
ATOM     21  C   UNL A   1     -27.690   0.962  26.607  0.00  0.00    +0.253 C 
ENDBRANCH  14  20
ENDBRANCH  12  18
ENDBRANCH   1  12
TORSDOF 7
