MODEL 400
MODEL 1
REMARK VINA RESULT:    -6.548      0.000      0.000
REMARK INTER + INTRA:          -7.852
REMARK INTER:                  -7.313
REMARK INTRA:                  -0.539
REMARK UNBOUND:                -0.539
REMARK  Name = No_400-gen_results/8p0m/2024-11-26-14-13-15/
REMARK  2 active torsions:
REMARK  status: ('A' for Active; 'I' for Inactive)
REMARK    1  A    between atoms: C_3  and  C_7
REMARK    2  A    between atoms: C_7  and  C_8
REMARK                            x       y       z     vdW  Elec       q    Type
REMARK                         _______ _______ _______ _____ _____    ______ ____
ROOT
ATOM      1  C   UNL A   1     -23.700  -1.299  29.787  0.00  0.00    +0.053 C 
ENDROOT
BRANCH   1   4
ATOM      2  C   UNL A   1     -23.848  -3.710  28.920  0.00  0.00    -0.004 A 
ATOM      3  C   UNL A   1     -24.428  -4.585  28.829  0.00  0.00    -0.000 A 
ATOM      4  C   UNL A   1     -24.431  -2.596  29.563  0.00  0.00    -0.018 A 
ATOM      5  C   UNL A   1     -25.723  -2.628  30.051  0.00  0.00    -0.004 A 
ATOM      6  C   UNL A   1     -26.412  -3.819  29.895  0.00  0.00    -0.000 A 
ATOM      7  C   UNL A   1     -25.775  -4.888  29.292  0.00  0.00    -0.000 A 
ENDBRANCH   1   4
BRANCH   1   8
ATOM      8  C   UNL A   1     -23.038  -0.820  28.882  0.00  0.00    -0.018 A 
ATOM      9  C   UNL A   1     -21.656  -0.371  28.976  0.00  0.00    -0.004 A 
ATOM     10  C   UNL A   1     -21.187   0.696  28.174  0.00  0.00    -0.000 A 
ATOM     11  C   UNL A   1     -22.106   1.482  27.427  0.00  0.00    -0.000 A 
ATOM     12  C   UNL A   1     -23.443   1.157  27.425  0.00  0.00    -0.000 A 
ATOM     13  C   UNL A   1     -23.926   0.128  28.095  0.00  0.00    -0.004 A 
ENDBRANCH   1   8
TORSDOF 2
ENDMDL
ENDMDL
