REMARK  Name = No_401-gen_results/8p0m/2024-11-26-14-13-15/
REMARK  6 active torsions:
REMARK  status: ('A' for Active; 'I' for Inactive)
REMARK    1  A    between atoms: C_1  and  N_8
REMARK    2  A    between atoms: C_5  and  C_9
REMARK    3  A    between atoms: C_7  and  C_18
REMARK    4  A    between atoms: C_12  and  C_13
REMARK    5  A    between atoms: C_13  and  C_14
REMARK    6  A    between atoms: C_22  and  C_24
REMARK                            x       y       z     vdW  Elec       q    Type
REMARK                         _______ _______ _______ _____ _____    ______ ____
ROOT
ATOM      1  C   UNL A   1     -28.016  -0.814  28.878  0.00  0.00    +0.053 C 
ATOM      2  C   UNL A   1     -27.064  -0.119  28.608  0.00  0.00    -0.026 C 
ATOM      3  C   UNL A   1     -25.765  -0.390  29.036  0.00  0.00    +0.024 C 
ATOM      4  C   UNL A   1     -24.552   0.406  28.765  0.00  0.00    +0.016 C 
ATOM      5  C   UNL A   1     -24.696   1.448  27.799  0.00  0.00    +0.104 C 
ATOM      6  C   UNL A   1     -25.976   1.725  27.308  0.00  0.00    +0.020 C 
ATOM      7  C   UNL A   1     -27.072   1.013  27.654  0.00  0.00    +0.042 C 
ENDROOT
BRANCH   1   8
ATOM      8  N   UNL A   1     -28.608  -0.591  30.110  0.00  0.00    -0.308 N 
ATOM      9  C   UNL A   1     -28.143   0.181  30.905  0.00  0.00    +0.077 C 
ATOM     10  C   UNL A   1     -29.809  -1.588  30.389  0.00  0.00    +0.091 C 
ATOM     11  C   UNL A   1     -30.694  -1.096  31.338  0.00  0.00    +0.021 C 
ATOM     12  C   UNL A   1     -30.149  -0.416  32.420  0.00  0.00    +0.004 C 
ATOM     13  C   UNL A   1     -29.117   0.348  32.236  0.00  0.00    +0.020 C 
BRANCH   9  14
ATOM     14  C   UNL A   1     -27.428   1.066  30.822  0.00  0.00    +0.045 C 
BRANCH  14  15
ATOM     15  C   UNL A   1     -27.084   1.988  31.570  0.00  0.00    -0.032 C 
ATOM     16  C   UNL A   1     -26.311   3.203  31.251  0.00  0.00    -0.031 C 
ATOM     17  C   UNL A   1     -25.837   3.171  29.913  0.00  0.00    +0.110 C 
ATOM     18  N   UNL A   1     -25.191   4.337  29.607  0.00  0.00    -0.214 NA
ATOM     19  C   UNL A   1     -25.876   5.583  29.434  0.00  0.00    +0.089 C 
ATOM     20  C   UNL A   1     -26.113   6.088  30.756  0.00  0.00    +0.019 C 
ATOM     21  C   UNL A   1     -26.944   5.440  31.731  0.00  0.00    +0.006 C 
ATOM     22  C   UNL A   1     -26.481   4.220  32.140  0.00  0.00    +0.023 C 
ENDBRANCH  14  15
ENDBRANCH   9  14
ENDBRANCH   1   8
BRANCH   7  23
ATOM     23  C   UNL A   1     -28.364   1.397  27.046  0.00  0.00    -0.018 A 
ATOM     24  C   UNL A   1     -28.480   2.426  26.341  0.00  0.00    -0.004 A 
ATOM     25  C   UNL A   1     -29.726   2.804  25.808  0.00  0.00    -0.000 A 
ATOM     26  C   UNL A   1     -30.790   2.012  25.838  0.00  0.00    +0.004 A 
ATOM     27  C   UNL A   1     -30.648   0.794  26.532  0.00  0.00    +0.055 A 
ATOM     28  C   UNL A   1     -29.480   0.503  27.136  0.00  0.00    +0.001 A 
BRANCH  27  29
ATOM     29  C   UNL A   1     -31.913   0.134  26.704  0.00  0.00    +0.265 C 
ATOM     30  N   UNL A   1     -32.410  -0.527  25.918  0.00  0.00    -0.200 NA
ATOM     31  C   UNL A   1     -33.306  -1.409  25.973  0.00  0.00    +0.139 C 
ATOM     32  O   UNL A   1     -32.057  -0.249  28.018  0.00  0.00    -0.268 OA
ENDBRANCH  27  29
ENDBRANCH   7  23
BRANCH   5  33
ATOM     33  C   UNL A   1     -23.494   2.169  27.479  0.00  0.00    +0.364 C 
ATOM     34  O   UNL A   1     -23.551   3.151  26.758  0.00  0.00    -0.246 OA
ATOM     35  O   UNL A   1     -22.328   1.921  28.071  0.00  0.00    -0.246 OA
ENDBRANCH   5  33
TORSDOF 6
