MODEL 4010
MODEL 1
REMARK VINA RESULT:    -5.307      0.000      0.000
REMARK INTER + INTRA:          -5.690
REMARK INTER:                  -5.617
REMARK INTRA:                  -0.073
REMARK UNBOUND:                -0.073
REMARK  Name = No_4010-gen_results/8p0m/2024-11-26-14-13-15/
REMARK  1 active torsions:
REMARK  status: ('A' for Active; 'I' for Inactive)
REMARK    1  A    between atoms: C_2  and  C_3
REMARK                            x       y       z     vdW  Elec       q    Type
REMARK                         _______ _______ _______ _____ _____    ______ ____
ROOT
ATOM      1  C   UNL A   1     -24.301  -2.716  29.027  0.00  0.00    +0.055 A 
ATOM      2  C   UNL A   1     -23.948  -3.869  28.743  0.00  0.00    +0.005 A 
ATOM      3  C   UNL A   1     -25.735  -2.599  29.620  0.00  0.00    +0.005 A 
ATOM      4  C   UNL A   1     -26.470  -3.678  29.899  0.00  0.00    +0.000 A 
ATOM      5  C   UNL A   1     -24.743  -5.110  28.973  0.00  0.00    +0.000 A 
ATOM      6  C   UNL A   1     -25.983  -4.983  29.518  0.00  0.00    +0.000 A 
ENDROOT
BRANCH   1   8
ATOM      7  O   UNL A   1     -24.310  -0.578  28.667  0.00  0.00    -0.268 OA
ATOM      8  C   UNL A   1     -23.646  -1.504  28.803  0.00  0.00    +0.265 C 
ATOM      9  N   UNL A   1     -22.349  -1.443  29.092  0.00  0.00    -0.200 NA
ATOM     10  C   UNL A   1     -21.634  -0.352  28.997  0.00  0.00    +0.139 C 
ENDBRANCH   1   8
TORSDOF 1
ENDMDL
ENDMDL
