REMARK  Name = No_4010-gen_results/8p0m/2024-11-26-14-13-15/
REMARK  1 active torsions:
REMARK  status: ('A' for Active; 'I' for Inactive)
REMARK    1  A    between atoms: C_2  and  C_3
REMARK                            x       y       z     vdW  Elec       q    Type
REMARK                         _______ _______ _______ _____ _____    ______ ____
ROOT
ATOM      1  C   UNL A   1     -27.666   0.113  30.035  0.00  0.00    +0.055 A 
ATOM      2  C   UNL A   1     -27.899   0.958  30.911  0.00  0.00    +0.005 A 
ATOM      3  C   UNL A   1     -26.174  -0.312  29.918  0.00  0.00    +0.005 A 
ATOM      4  C   UNL A   1     -25.249   0.125  30.776  0.00  0.00    +0.000 A 
ATOM      5  C   UNL A   1     -26.903   1.531  31.862  0.00  0.00    +0.000 A 
ATOM      6  C   UNL A   1     -25.610   1.122  31.756  0.00  0.00    +0.000 A 
ENDROOT
BRANCH   1   8
ATOM      7  O   UNL A   1     -28.123  -1.335  28.487  0.00  0.00    -0.268 OA
ATOM      8  C   UNL A   1     -28.521  -0.436  29.078  0.00  0.00    +0.265 C 
ATOM      9  N   UNL A   1     -29.811  -0.116  29.150  0.00  0.00    -0.200 NA
ATOM     10  C   UNL A   1     -30.728  -0.615  28.362  0.00  0.00    +0.139 C 
ENDBRANCH   1   8
TORSDOF 1
