MODEL 4011
MODEL 1
REMARK VINA RESULT:    -7.309      0.000      0.000
REMARK INTER + INTRA:          -9.876
REMARK INTER:                  -8.590
REMARK INTRA:                  -1.286
REMARK UNBOUND:                -1.286
REMARK  Name = No_4011-gen_results/8p0m/2024-11-26-14-13-15/
REMARK  3 active torsions:
REMARK  status: ('A' for Active; 'I' for Inactive)
REMARK    1  A    between atoms: C_2  and  C_10
REMARK    2  A    between atoms: C_5  and  C_7
REMARK    3  A    between atoms: C_11  and  C_16
REMARK                            x       y       z     vdW  Elec       q    Type
REMARK                         _______ _______ _______ _____ _____    ______ ____
ROOT
ATOM      1  C   UNL A   1     -23.398   0.219  28.244  0.00  0.00    +0.000 A 
ATOM      2  C   UNL A   1     -23.801   0.952  27.063  0.00  0.00    +0.000 A 
ATOM      3  C   UNL A   1     -22.778   1.655  26.461  0.00  0.00    +0.000 A 
ATOM      4  C   UNL A   1     -21.502   1.841  27.020  0.00  0.00    +0.000 A 
ATOM      5  C   UNL A   1     -21.194   1.108  28.142  0.00  0.00    +0.000 A 
ATOM      6  C   UNL A   1     -22.090   0.215  28.742  0.00  0.00    +0.000 A 
ENDROOT
BRANCH   1   8
ATOM      7  C   UNL A   1     -25.385  -0.895  29.163  0.00  0.00    +0.000 A 
ATOM      8  C   UNL A   1     -24.293  -1.038  28.664  0.00  0.00    +0.000 A 
ATOM      9  C   UNL A   1     -23.632  -2.247  28.526  0.00  0.00    +0.000 A 
ATOM     10  C   UNL A   1     -24.312  -3.414  28.984  0.00  0.00    +0.007 A 
ATOM     11  C   UNL A   1     -25.584  -3.237  29.395  0.00  0.00    +0.080 A 
ATOM     12  C   UNL A   1     -26.158  -2.032  29.406  0.00  0.00    +0.007 A 
BRANCH  11  13
ATOM     13  C   UNL A   1     -26.282  -4.467  29.816  0.00  0.00    +0.388 C 
ATOM     14  O   UNL A   1     -25.738  -5.421  29.771  0.00  0.00    -0.241 OA
ATOM     15  O   UNL A   1     -27.629  -4.446  29.746  0.00  0.00    -0.241 OA
ENDBRANCH  11  13
ENDBRANCH   1   8
BRANCH   2  16
ATOM     16  C   UNL A   1     -25.090   0.913  26.476  0.00  0.00    +0.000 A 
ATOM     17  C   UNL A   1     -25.930   1.542  26.784  0.00  0.00    +0.000 A 
ATOM     18  C   UNL A   1     -27.254   1.562  26.076  0.00  0.00    +0.000 A 
ATOM     19  C   UNL A   1     -27.456   0.652  25.108  0.00  0.00    +0.000 A 
ATOM     20  C   UNL A   1     -26.451  -0.226  24.792  0.00  0.00    +0.000 A 
ATOM     21  C   UNL A   1     -25.255  -0.111  25.400  0.00  0.00    +0.000 A 
ENDBRANCH   2  16
TORSDOF 3
ENDMDL
ENDMDL
