REMARK  Name = No_4011-gen_results/8p0m/2024-11-26-14-13-15/
REMARK  3 active torsions:
REMARK  status: ('A' for Active; 'I' for Inactive)
REMARK    1  A    between atoms: C_2  and  C_10
REMARK    2  A    between atoms: C_5  and  C_7
REMARK    3  A    between atoms: C_11  and  C_16
REMARK                            x       y       z     vdW  Elec       q    Type
REMARK                         _______ _______ _______ _____ _____    ______ ____
ROOT
ATOM      1  C   UNL A   1     -25.700  -0.216  29.438  0.00  0.00    +0.000 A 
ATOM      2  C   UNL A   1     -25.150   1.020  29.953  0.00  0.00    +0.000 A 
ATOM      3  C   UNL A   1     -23.792   0.976  30.188  0.00  0.00    +0.000 A 
ATOM      4  C   UNL A   1     -23.013  -0.193  30.146  0.00  0.00    +0.000 A 
ATOM      5  C   UNL A   1     -23.607  -1.326  29.643  0.00  0.00    +0.000 A 
ATOM      6  C   UNL A   1     -24.933  -1.361  29.196  0.00  0.00    +0.000 A 
ENDROOT
BRANCH   1   8
ATOM      7  C   UNL A   1     -28.016  -0.814  28.878  0.00  0.00    +0.000 A 
ATOM      8  C   UNL A   1     -27.064  -0.119  28.608  0.00  0.00    +0.000 A 
ATOM      9  C   UNL A   1     -26.972   0.714  27.506  0.00  0.00    +0.000 A 
ATOM     10  C   UNL A   1     -28.105   0.774  26.642  0.00  0.00    +0.007 A 
ATOM     11  C   UNL A   1     -29.201   0.104  27.053  0.00  0.00    +0.080 A 
ATOM     12  C   UNL A   1     -29.210  -0.603  28.185  0.00  0.00    +0.007 A 
BRANCH  11  13
ATOM     13  C   UNL A   1     -30.375   0.223  26.167  0.00  0.00    +0.388 C 
ATOM     14  O   UNL A   1     -31.246  -0.419  26.360  0.00  0.00    -0.241 OA
ATOM     15  O   UNL A   1     -30.145   0.706  24.928  0.00  0.00    -0.241 OA
ENDBRANCH  11  13
ENDBRANCH   1   8
BRANCH   2  16
ATOM     16  C   UNL A   1     -25.873   2.226  30.129  0.00  0.00    +0.000 A 
ATOM     17  C   UNL A   1     -26.957   2.284  30.263  0.00  0.00    +0.000 A 
ATOM     18  C   UNL A   1     -27.689   3.562  30.558  0.00  0.00    +0.000 A 
ATOM     19  C   UNL A   1     -26.986   4.707  30.508  0.00  0.00    +0.000 A 
ATOM     20  C   UNL A   1     -25.646   4.660  30.221  0.00  0.00    +0.000 A 
ATOM     21  C   UNL A   1     -25.041   3.466  30.073  0.00  0.00    +0.000 A 
ENDBRANCH   2  16
TORSDOF 3
