MODEL 4012
MODEL 1
REMARK VINA RESULT:    -8.103      0.000      0.000
REMARK INTER + INTRA:         -12.134
REMARK INTER:                 -10.945
REMARK INTRA:                  -1.189
REMARK UNBOUND:                -1.189
REMARK  Name = No_4012-gen_results/8p0m/2024-11-26-14-13-15/
REMARK  6 active torsions:
REMARK  status: ('A' for Active; 'I' for Inactive)
REMARK    1  A    between atoms: C_5  and  C_14
REMARK    2  A    between atoms: C_7  and  C_8
REMARK    3  A    between atoms: N_16  and  C_17
REMARK    4  A    between atoms: C_17  and  C_18
REMARK    5  A    between atoms: C_17  and  C_27
REMARK    6  A    between atoms: C_21  and  C_24
REMARK                            x       y       z     vdW  Elec       q    Type
REMARK                         _______ _______ _______ _____ _____    ______ ____
ROOT
ATOM      1  C   UNL A   1     -24.253  -0.670  31.806  0.00  0.00    +0.265 C 
ATOM      2  O   UNL A   1     -23.121  -0.997  31.900  0.00  0.00    -0.268 OA
ATOM      3  N   UNL A   1     -24.947  -1.052  30.676  0.00  0.00    -0.194 NA
ENDROOT
BRANCH   1   8
ATOM      4 CL   UNL A   1     -27.091   1.112  36.415  0.00  0.00    -0.082 Cl
ATOM      5  C   UNL A   1     -26.496   0.634  35.288  0.00  0.00    +0.058 A 
ATOM      6  C   UNL A   1     -26.536   1.346  34.129  0.00  0.00    +0.011 A 
ATOM      7  C   UNL A   1     -25.844   0.942  32.899  0.00  0.00    +0.005 A 
ATOM      8  C   UNL A   1     -25.028  -0.228  32.993  0.00  0.00    +0.055 A 
ATOM      9  C   UNL A   1     -24.920  -0.875  34.184  0.00  0.00    +0.005 A 
ATOM     10  C   UNL A   1     -25.584  -0.464  35.298  0.00  0.00    +0.011 A 
BRANCH  10  11
ATOM     11  C   UNL A   1     -25.381  -1.249  36.514  0.00  0.00    +0.001 A 
ATOM     12  C   UNL A   1     -24.461  -0.850  37.483  0.00  0.00    +0.000 A 
ATOM     13  C   UNL A   1     -24.790  -0.962  38.793  0.00  0.00    +0.000 A 
ATOM     14  C   UNL A   1     -25.665  -1.994  39.182  0.00  0.00    +0.000 A 
ATOM     15  C   UNL A   1     -26.256  -2.777  38.207  0.00  0.00    +0.000 A 
ATOM     16  C   UNL A   1     -26.158  -2.402  36.873  0.00  0.00    +0.000 A 
ENDBRANCH  10  11
ENDBRANCH   1   8
BRANCH   3  17
ATOM     17  C   UNL A   1     -24.250  -1.536  29.506  0.00  0.00    +0.140 C 
BRANCH  17  18
ATOM     18  C   UNL A   1     -24.028  -0.629  28.607  0.00  0.00    +0.002 A 
ATOM     19  C   UNL A   1     -24.908  -0.359  27.589  0.00  0.00    -0.002 A 
ATOM     20  C   UNL A   1     -24.723   0.764  26.623  0.00  0.00    +0.004 A 
ATOM     21  C   UNL A   1     -23.540   1.493  26.672  0.00  0.00    +0.057 A 
ATOM     22  C   UNL A   1     -22.609   1.213  27.717  0.00  0.00    +0.004 A 
ATOM     23  C   UNL A   1     -22.852   0.232  28.604  0.00  0.00    -0.002 A 
BRANCH  21  24
ATOM     24  C   UNL A   1     -23.350   2.536  25.682  0.00  0.00    +0.284 C 
ATOM     25  N   UNL A   1     -24.037   3.522  25.679  0.00  0.00    -0.084 NA
ATOM     26  O   UNL A   1     -22.451   2.335  24.791  0.00  0.00    -0.267 OA
ENDBRANCH  21  24
ENDBRANCH  17  18
BRANCH  17  27
ATOM     27  C   UNL A   1     -24.002  -2.879  29.499  0.00  0.00    -0.005 C 
ATOM     28  C   UNL A   1     -24.451  -3.699  28.589  0.00  0.00    -0.028 C 
ATOM     29  C   UNL A   1     -24.217  -5.106  28.661  0.00  0.00    +0.030 C 
ENDBRANCH  17  27
ENDBRANCH   3  17
TORSDOF 6
ENDMDL
ENDMDL
