REMARK  Name = No_4012-gen_results/8p0m/2024-11-26-14-13-15/
REMARK  6 active torsions:
REMARK  status: ('A' for Active; 'I' for Inactive)
REMARK    1  A    between atoms: C_5  and  C_14
REMARK    2  A    between atoms: C_7  and  C_8
REMARK    3  A    between atoms: N_16  and  C_17
REMARK    4  A    between atoms: C_17  and  C_18
REMARK    5  A    between atoms: C_17  and  C_27
REMARK    6  A    between atoms: C_21  and  C_24
REMARK                            x       y       z     vdW  Elec       q    Type
REMARK                         _______ _______ _______ _____ _____    ______ ____
ROOT
ATOM      1  C   UNL A   1     -26.421   4.575  29.526  0.00  0.00    +0.265 C 
ATOM      2  O   UNL A   1     -25.854   5.128  28.648  0.00  0.00    -0.268 OA
ATOM      3  N   UNL A   1     -26.945   5.344  30.545  0.00  0.00    -0.194 NA
ENDROOT
BRANCH   1   8
ATOM      4 CL   UNL A   1     -28.149  -0.820  28.908  0.00  0.00    -0.082 Cl
ATOM      5  C   UNL A   1     -27.834   0.496  29.060  0.00  0.00    +0.058 A 
ATOM      6  C   UNL A   1     -27.602   1.013  30.297  0.00  0.00    +0.011 A 
ATOM      7  C   UNL A   1     -27.170   2.396  30.534  0.00  0.00    +0.005 A 
ATOM      8  C   UNL A   1     -26.913   3.183  29.368  0.00  0.00    +0.055 A 
ATOM      9  C   UNL A   1     -27.055   2.622  28.138  0.00  0.00    +0.005 A 
ATOM     10  C   UNL A   1     -27.462   1.335  27.967  0.00  0.00    +0.011 A 
BRANCH  10  11
ATOM     11  C   UNL A   1     -27.575   0.856  26.591  0.00  0.00    +0.001 A 
ATOM     12  C   UNL A   1     -26.596   1.154  25.643  0.00  0.00    +0.000 A 
ATOM     13  C   UNL A   1     -26.204   0.191  24.773  0.00  0.00    +0.000 A 
ATOM     14  C   UNL A   1     -27.138  -0.789  24.388  0.00  0.00    +0.000 A 
ATOM     15  C   UNL A   1     -28.378  -0.814  25.000  0.00  0.00    +0.000 A 
ATOM     16  C   UNL A   1     -28.604  -0.029  26.124  0.00  0.00    +0.000 A 
ENDBRANCH  10  11
ENDBRANCH   1   8
BRANCH   3  17
ATOM     17  C   UNL A   1     -26.540   6.720  30.719  0.00  0.00    +0.140 C 
BRANCH  17  18
ATOM     18  C   UNL A   1     -25.443   6.870  31.393  0.00  0.00    +0.002 A 
ATOM     19  C   UNL A   1     -24.998   5.947  32.306  0.00  0.00    -0.002 A 
ATOM     20  C   UNL A   1     -23.678   6.047  32.995  0.00  0.00    +0.004 A 
ATOM     21  C   UNL A   1     -22.916   7.194  32.804  0.00  0.00    +0.057 A 
ATOM     22  C   UNL A   1     -23.373   8.169  31.867  0.00  0.00    +0.004 A 
ATOM     23  C   UNL A   1     -24.541   8.001  31.222  0.00  0.00    -0.002 A 
BRANCH  21  24
ATOM     24  C   UNL A   1     -21.667   7.303  33.535  0.00  0.00    +0.284 C 
ATOM     25  N   UNL A   1     -21.286   6.415  34.249  0.00  0.00    -0.084 NA
ATOM     26  O   UNL A   1     -21.019   8.402  33.418  0.00  0.00    -0.267 OA
ENDBRANCH  21  24
ENDBRANCH  17  18
BRANCH  17  27
ATOM     27  C   UNL A   1     -27.410   7.644  30.214  0.00  0.00    -0.005 C 
ATOM     28  C   UNL A   1     -27.779   7.692  28.964  0.00  0.00    -0.028 C 
ATOM     29  C   UNL A   1     -28.643   8.718  28.472  0.00  0.00    +0.030 C 
ENDBRANCH  17  27
ENDBRANCH   3  17
TORSDOF 6
