MODEL 4013
MODEL 1
REMARK VINA RESULT:    -8.205      0.000      0.000
REMARK INTER + INTRA:          -9.147
REMARK INTER:                  -8.685
REMARK INTRA:                  -0.463
REMARK UNBOUND:                -0.463
REMARK  Name = No_4013-gen_results/8p0m/2024-11-26-14-13-15/
REMARK  1 active torsions:
REMARK  status: ('A' for Active; 'I' for Inactive)
REMARK    1  A    between atoms: C_3  and  C_9
REMARK                            x       y       z     vdW  Elec       q    Type
REMARK                         _______ _______ _______ _____ _____    ______ ____
ROOT
ATOM      1  C   UNL A   1     -23.682  -1.394  28.619  0.00  0.00    -0.002 A 
ATOM      2  C   UNL A   1     -22.515  -1.139  29.276  0.00  0.00    -0.000 A 
ATOM      3  C   UNL A   1     -21.713   0.008  28.919  0.00  0.00    +0.000 A 
ATOM      4  C   UNL A   1     -22.370   1.092  28.280  0.00  0.00    +0.004 A 
ATOM      5  C   UNL A   1     -23.665   0.900  27.787  0.00  0.00    +0.050 A 
ATOM      6  C   UNL A   1     -24.333  -0.335  27.884  0.00  0.00    -0.016 A 
ATOM      7  C   UNL A   1     -24.200   2.028  27.020  0.00  0.00    +0.249 C 
ATOM      8  N   UNL A   1     -25.382   1.813  26.358  0.00  0.00    -0.274 N 
ATOM      9  O   UNL A   1     -23.663   3.088  26.863  0.00  0.00    -0.270 OA
ATOM     10  C   UNL A   1     -26.151   0.627  26.319  0.00  0.00    +0.098 C 
ATOM     11  C   UNL A   1     -25.721  -0.406  26.714  0.00  0.00    +0.048 C 
ATOM     12  C   UNL A   1     -26.018   2.941  25.625  0.00  0.00    +0.115 C 
ENDROOT
BRANCH   1  15
ATOM     13  C   UNL A   1     -26.390  -3.340  30.079  0.00  0.00    +0.032 A 
ATOM     14  C   UNL A   1     -25.696  -2.420  29.713  0.00  0.00    +0.140 A 
ATOM     15  C   UNL A   1     -24.567  -2.569  28.975  0.00  0.00    +0.029 A 
ATOM     16  C   UNL A   1     -24.172  -3.870  28.611  0.00  0.00    +0.032 A 
ATOM     17  C   UNL A   1     -26.099  -4.689  29.663  0.00  0.00    +0.032 A 
ATOM     18  C   UNL A   1     -24.959  -4.895  28.946  0.00  0.00    +0.140 A 
ATOM     19  F   UNL A   1     -26.012  -1.137  30.026  0.00  0.00    -0.204 F 
ATOM     20  F   UNL A   1     -24.862  -6.185  28.549  0.00  0.00    -0.204 F 
ENDBRANCH   1  15
TORSDOF 1
ENDMDL
ENDMDL
