REMARK  Name = No_4014-gen_results/8p0m/2024-11-26-14-13-15/
REMARK  5 active torsions:
REMARK  status: ('A' for Active; 'I' for Inactive)
REMARK    1  A    between atoms: C_1  and  C_20
REMARK    2  A    between atoms: C_5  and  P_7
REMARK    3  A    between atoms: C_20  and  O_22
REMARK    4  A    between atoms: O_22  and  C_23
REMARK    5  A    between atoms: C_23  and  C_24
REMARK                            x       y       z     vdW  Elec       q    Type
REMARK                         _______ _______ _______ _____ _____    ______ ____
ROOT
ATOM      1  C   UNL A   1     -28.016  -0.814  28.878  0.00  0.00    +0.073 A 
ATOM      2  C   UNL A   1     -27.064  -0.119  28.608  0.00  0.00    +0.004 A 
ATOM      3  C   UNL A   1     -26.972   0.714  27.506  0.00  0.00    -0.001 A 
ATOM      4  C   UNL A   1     -28.105   0.774  26.642  0.00  0.00    +0.003 A 
ATOM      5  C   UNL A   1     -29.204   0.118  27.048  0.00  0.00    +0.029 A 
ATOM      6  C   UNL A   1     -29.213  -0.609  28.128  0.00  0.00    +0.009 A 
ATOM      7  C   UNL A   1     -25.651   1.413  27.151  0.00  0.00    +0.013 A 
ATOM      8  C   UNL A   1     -25.358   2.163  26.484  0.00  0.00    +0.001 A 
ATOM      9  C   UNL A   1     -23.994   2.784  26.281  0.00  0.00    +0.000 A 
ATOM     10  C   UNL A   1     -22.935   2.257  27.000  0.00  0.00    +0.006 A 
ATOM     11  C   UNL A   1     -23.255   1.134  27.826  0.00  0.00    +0.068 A 
ATOM     12  C   UNL A   1     -24.569   0.693  27.995  0.00  0.00    +0.054 A 
ATOM     13  C   UNL A   1     -22.135   0.553  28.613  0.00  0.00    +0.268 C 
ATOM     14  N   UNL A   1     -22.403  -0.685  29.171  0.00  0.00    -0.179 NA
ATOM     15  O   UNL A   1     -20.993   0.946  28.512  0.00  0.00    -0.268 OA
ATOM     16  C   UNL A   1     -23.607  -1.251  29.475  0.00  0.00    +0.210 C 
ATOM     17  N   UNL A   1     -24.684  -0.612  28.768  0.00  0.00    -0.285 N 
ATOM     18  C   UNL A   1     -26.016  -0.971  28.980  0.00  0.00    +0.119 C 
ENDROOT
BRANCH   5  19
ATOM     19  P   UNL A   1     -30.607   0.268  25.972  0.00  0.00    +0.140 P 
ATOM     20  O   UNL A   1     -30.152  -0.072  24.597  0.00  0.00    -0.456 OA
ATOM     21  O   UNL A   1     -31.568  -0.842  26.467  0.00  0.00    -0.354 OA
ATOM     22  O   UNL A   1     -31.151   1.642  26.121  0.00  0.00    -0.354 OA
ENDBRANCH   5  19
BRANCH   1  23
ATOM     23  C   UNL A   1     -28.075  -1.630  30.131  0.00  0.00    +0.342 C 
ATOM     24  O   UNL A   1     -27.157  -2.419  30.333  0.00  0.00    -0.245 OA
BRANCH  23  25
ATOM     25  O   UNL A   1     -29.238  -1.922  30.647  0.00  0.00    -0.433 OA
BRANCH  25  26
ATOM     26  C   UNL A   1     -29.442  -2.779  31.496  0.00  0.00    +0.322 C 
BRANCH  26  27
ATOM     27  C   UNL A   1     -29.742  -4.112  30.980  0.00  0.00    +0.409 C 
ATOM     28  O   UNL A   1     -29.609  -4.287  29.894  0.00  0.00    -0.241 OA
ATOM     29  O   UNL A   1     -30.055  -5.084  31.804  0.00  0.00    -0.241 OA
ENDBRANCH  26  27
ENDBRANCH  25  26
ENDBRANCH  23  25
ENDBRANCH   1  23
TORSDOF 5
