MODEL 4015
MODEL 1
REMARK VINA RESULT:    -6.295      0.000      0.000
REMARK INTER + INTRA:          -9.003
REMARK INTER:                  -8.134
REMARK INTRA:                  -0.869
REMARK UNBOUND:                -0.869
REMARK  Name = No_4015-gen_results/8p0m/2024-11-26-14-13-15/
REMARK  5 active torsions:
REMARK  status: ('A' for Active; 'I' for Inactive)
REMARK    1  A    between atoms: C_2  and  C_8
REMARK    2  A    between atoms: C_8  and  O_9
REMARK    3  A    between atoms: O_9  and  C_12
REMARK    4  A    between atoms: C_13  and  C_14
REMARK    5  A    between atoms: C_15  and  C_16
REMARK                            x       y       z     vdW  Elec       q    Type
REMARK                         _______ _______ _______ _____ _____    ______ ____
ROOT
ATOM      1  C   UNL A   1     -22.816  -0.095  29.113  0.00  0.00    +0.346 C 
ATOM      2  O   UNL A   1     -21.631  -0.072  29.651  0.00  0.00    -0.244 OA
ENDROOT
BRANCH   1   4
ATOM      3  C   UNL A   1     -23.373  -2.287  28.925  0.00  0.00    +0.037 A 
ATOM      4  C   UNL A   1     -23.787  -1.388  29.288  0.00  0.00    +0.078 A 
ATOM      5  C   UNL A   1     -24.256  -3.508  29.059  0.00  0.00    +0.151 A 
ATOM      6  C   UNL A   1     -25.584  -3.356  29.508  0.00  0.00    +0.085 A 
ATOM      7  C   UNL A   1     -24.992  -1.063  29.744  0.00  0.00    +0.007 A 
ATOM      8  C   UNL A   1     -25.923  -2.071  29.898  0.00  0.00    +0.014 A 
ATOM      9 CL   UNL A   1     -26.581  -4.650  29.711  0.00  0.00    -0.080 Cl
ATOM     10  F   UNL A   1     -23.902  -4.773  28.707  0.00  0.00    -0.203 F 
ENDBRANCH   1   4
BRANCH   1  11
ATOM     11  O   UNL A   1     -23.205   0.823  28.462  0.00  0.00    -0.418 OA
BRANCH  11  12
ATOM     12  C   UNL A   1     -22.793   1.448  27.630  0.00  0.00    +0.183 C 
ATOM     13  C   UNL A   1     -23.533   1.839  26.584  0.00  0.00    +0.041 C 
BRANCH  13  14
ATOM     14  C   UNL A   1     -24.606   1.140  26.209  0.00  0.00    +0.003 C 
ATOM     15  C   UNL A   1     -24.673   0.335  25.173  0.00  0.00    -0.000 C 
BRANCH  15  16
ATOM     16  C   UNL A   1     -25.918  -0.309  24.785  0.00  0.00    -0.005 C 
ATOM     17  C   UNL A   1     -26.988   0.562  24.476  0.00  0.00    -0.026 C 
ATOM     18  C   UNL A   1     -28.271  -0.016  24.102  0.00  0.00    +0.031 C 
ENDBRANCH  15  16
ENDBRANCH  13  14
ENDBRANCH  11  12
ENDBRANCH   1  11
TORSDOF 5
ENDMDL
ENDMDL
