REMARK  Name = No_4015-gen_results/8p0m/2024-11-26-14-13-15/
REMARK  5 active torsions:
REMARK  status: ('A' for Active; 'I' for Inactive)
REMARK    1  A    between atoms: C_2  and  C_8
REMARK    2  A    between atoms: C_8  and  O_9
REMARK    3  A    between atoms: O_9  and  C_12
REMARK    4  A    between atoms: C_13  and  C_14
REMARK    5  A    between atoms: C_15  and  C_16
REMARK                            x       y       z     vdW  Elec       q    Type
REMARK                         _______ _______ _______ _____ _____    ______ ____
ROOT
ATOM      1  C   UNL A   1     -30.094  -0.841  29.790  0.00  0.00    +0.346 C 
ATOM      2  O   UNL A   1     -30.758  -1.566  30.642  0.00  0.00    -0.244 OA
ENDROOT
BRANCH   1   4
ATOM      3  C   UNL A   1     -28.016  -0.814  28.878  0.00  0.00    +0.037 A 
ATOM      4  C   UNL A   1     -28.469  -0.785  29.829  0.00  0.00    +0.078 A 
ATOM      5  C   UNL A   1     -26.504  -0.778  28.877  0.00  0.00    +0.151 A 
ATOM      6  C   UNL A   1     -25.810  -0.853  30.103  0.00  0.00    +0.085 A 
ATOM      7  C   UNL A   1     -27.986  -0.842  31.066  0.00  0.00    +0.007 A 
ATOM      8  C   UNL A   1     -26.615  -0.843  31.230  0.00  0.00    +0.014 A 
ATOM      9 CL   UNL A   1     -24.167  -0.780  30.171  0.00  0.00    -0.080 Cl
ATOM     10  F   UNL A   1     -25.721  -0.752  27.766  0.00  0.00    -0.203 F 
ENDBRANCH   1   4
BRANCH   1  11
ATOM     11  O   UNL A   1     -30.665  -0.185  28.976  0.00  0.00    -0.418 OA
BRANCH  11  12
ATOM     12  C   UNL A   1     -30.547   0.842  28.548  0.00  0.00    +0.183 C 
ATOM     13  C   UNL A   1     -30.773   1.954  29.261  0.00  0.00    +0.041 C 
BRANCH  13  14
ATOM     14  C   UNL A   1     -31.596   1.934  30.311  0.00  0.00    +0.003 C 
ATOM     15  C   UNL A   1     -32.476   0.996  30.578  0.00  0.00    -0.000 C 
BRANCH  15  16
ATOM     16  C   UNL A   1     -33.400   1.111  31.696  0.00  0.00    -0.005 C 
ATOM     17  C   UNL A   1     -33.264   2.276  32.486  0.00  0.00    -0.026 C 
ATOM     18  C   UNL A   1     -34.142   2.445  33.635  0.00  0.00    +0.031 C 
ENDBRANCH  15  16
ENDBRANCH  13  14
ENDBRANCH  11  12
ENDBRANCH   1  11
TORSDOF 5
