REMARK  Name = No_4016-gen_results/8p0m/2024-11-26-14-13-15/
REMARK  4 active torsions:
REMARK  status: ('A' for Active; 'I' for Inactive)
REMARK    1  A    between atoms: C_6  and  O_8
REMARK    2  A    between atoms: O_8  and  C_9
REMARK    3  A    between atoms: C_10  and  C_11
REMARK    4  A    between atoms: C_12  and  C_13
REMARK                            x       y       z     vdW  Elec       q    Type
REMARK                         _______ _______ _______ _____ _____    ______ ____
ROOT
ATOM      1  O   UNL A   1     -28.621  -0.954  32.350  0.00  0.00    -0.450 OA
ENDROOT
BRANCH   1   7
ATOM      2  C   UNL A   1     -28.016  -0.814  28.878  0.00  0.00    +0.015 A 
ATOM      3  C   UNL A   1     -28.469  -0.785  29.829  0.00  0.00    +0.038 A 
ATOM      4  C   UNL A   1     -26.546  -0.876  28.850  0.00  0.00    +0.058 A 
ATOM      5  C   UNL A   1     -25.804  -1.032  30.057  0.00  0.00    +0.015 A 
ATOM      6  C   UNL A   1     -26.537  -1.039  31.217  0.00  0.00    +0.038 A 
ATOM      7  C   UNL A   1     -27.893  -0.960  31.174  0.00  0.00    +0.145 A 
ATOM      8 CL   UNL A   1     -25.613  -0.803  27.424  0.00  0.00    -0.082 Cl
ENDBRANCH   1   7
BRANCH   1   9
ATOM      9  C   UNL A   1     -29.296  -1.984  32.705  0.00  0.00    +0.179 C 
ATOM     10  C   UNL A   1     -29.633  -2.057  34.089  0.00  0.00    +0.041 C 
BRANCH  10  11
ATOM     11  C   UNL A   1     -30.574  -1.844  34.503  0.00  0.00    +0.003 C 
ATOM     12  C   UNL A   1     -31.494  -0.969  33.937  0.00  0.00    -0.000 C 
BRANCH  12  13
ATOM     13  C   UNL A   1     -31.199   0.165  33.513  0.00  0.00    -0.005 C 
ATOM     14  C   UNL A   1     -32.130   1.090  32.816  0.00  0.00    -0.026 C 
ATOM     15  C   UNL A   1     -33.417   0.550  32.685  0.00  0.00    +0.031 C 
ENDBRANCH  12  13
ENDBRANCH  10  11
ENDBRANCH   1   9
TORSDOF 4
