MODEL 4016
MODEL 1
REMARK VINA RESULT:    -5.712      0.000      0.000
REMARK INTER + INTRA:          -7.539
REMARK INTER:                  -7.047
REMARK INTRA:                  -0.492
REMARK UNBOUND:                -0.492
REMARK  Name = No_4016-gen_results/8p0m/2024-11-26-14-13-15/
REMARK  4 active torsions:
REMARK  status: ('A' for Active; 'I' for Inactive)
REMARK    1  A    between atoms: C_6  and  O_8
REMARK    2  A    between atoms: O_8  and  C_9
REMARK    3  A    between atoms: C_10  and  C_11
REMARK    4  A    between atoms: C_12  and  C_13
REMARK                            x       y       z     vdW  Elec       q    Type
REMARK                         _______ _______ _______ _____ _____    ______ ____
ROOT
ATOM      1  O   UNL A   1     -22.764  -0.162  30.089  0.00  0.00    -0.450 OA
ENDROOT
BRANCH   1   7
ATOM      2  C   UNL A   1     -24.138  -3.196  28.927  0.00  0.00    +0.015 A 
ATOM      3  C   UNL A   1     -23.492  -2.388  29.128  0.00  0.00    +0.038 A 
ATOM      4  C   UNL A   1     -25.384  -3.253  29.706  0.00  0.00    +0.058 A 
ATOM      5  C   UNL A   1     -25.743  -2.184  30.579  0.00  0.00    +0.015 A 
ATOM      6  C   UNL A   1     -24.828  -1.168  30.693  0.00  0.00    +0.038 A 
ATOM      7  C   UNL A   1     -23.686  -1.185  29.956  0.00  0.00    +0.145 A 
ATOM      8 CL   UNL A   1     -26.503  -4.538  29.628  0.00  0.00    -0.082 Cl
ENDBRANCH   1   7
BRANCH   1   9
ATOM      9  C   UNL A   1     -22.032   0.190  29.098  0.00  0.00    +0.179 C 
ATOM     10  C   UNL A   1     -22.733   0.608  27.928  0.00  0.00    +0.041 C 
BRANCH  10  11
ATOM     11  C   UNL A   1     -22.866   1.602  27.616  0.00  0.00    +0.003 C 
ATOM     12  C   UNL A   1     -23.747   1.992  26.615  0.00  0.00    -0.000 C 
BRANCH  12  13
ATOM     13  C   UNL A   1     -23.838   1.420  25.511  0.00  0.00    -0.005 C 
ATOM     14  C   UNL A   1     -24.927   0.492  25.112  0.00  0.00    -0.026 C 
ATOM     15  C   UNL A   1     -25.881   0.324  26.126  0.00  0.00    +0.031 C 
ENDBRANCH  12  13
ENDBRANCH  10  11
ENDBRANCH   1   9
TORSDOF 4
ENDMDL
ENDMDL
