REMARK  Name = No_4017-gen_results/8p0m/2024-11-26-14-13-15/
REMARK  2 active torsions:
REMARK  status: ('A' for Active; 'I' for Inactive)
REMARK    1  A    between atoms: C_6  and  C_13
REMARK    2  A    between atoms: C_12  and  O_16
REMARK                            x       y       z     vdW  Elec       q    Type
REMARK                         _______ _______ _______ _____ _____    ______ ____
ROOT
ATOM      1  C   UNL A   1     -28.016  -0.814  28.878  0.00  0.00    +0.007 A 
ATOM      2  C   UNL A   1     -27.064  -0.119  28.608  0.00  0.00    +0.000 A 
ATOM      3  C   UNL A   1     -25.792  -0.430  29.076  0.00  0.00    +0.000 A 
ATOM      4  C   UNL A   1     -24.546   0.349  28.823  0.00  0.00    +0.003 A 
ATOM      5  C   UNL A   1     -23.241   0.022  29.332  0.00  0.00    +0.000 A 
ATOM      6  C   UNL A   1     -27.882  -1.899  29.863  0.00  0.00    +0.080 A 
ATOM      7  C   UNL A   1     -26.653  -2.314  30.314  0.00  0.00    +0.007 A 
ATOM      8  C   UNL A   1     -25.515  -1.561  29.979  0.00  0.00    +0.000 A 
ATOM      9  C   UNL A   1     -22.165   0.794  28.952  0.00  0.00    +0.003 A 
ATOM     10  C   UNL A   1     -22.124   1.748  27.989  0.00  0.00    +0.037 A 
ATOM     11  C   UNL A   1     -24.523   1.378  27.795  0.00  0.00    +0.034 A 
ATOM     12  C   UNL A   1     -23.339   2.042  27.430  0.00  0.00    +0.139 A 
ATOM     13  C   UNL A   1     -27.169   1.023  27.657  0.00  0.00    +0.000 A 
ATOM     14  C   UNL A   1     -25.882   1.721  27.269  0.00  0.00    +0.003 A 
ENDROOT
BRANCH   6  15
ATOM     15  C   UNL A   1     -29.050  -2.728  30.296  0.00  0.00    +0.388 C 
ATOM     16  O   UNL A   1     -30.082  -2.418  30.105  0.00  0.00    -0.241 OA
ATOM     17  O   UNL A   1     -28.759  -3.813  30.980  0.00  0.00    -0.241 OA
ENDBRANCH   6  15
BRANCH  12  18
ATOM     18  O   UNL A   1     -23.450   2.993  26.468  0.00  0.00    -0.471 OA
ATOM     19  C   UNL A   1     -24.762   3.368  26.121  0.00  0.00    +0.253 C 
ENDBRANCH  12  18
TORSDOF 2
