MODEL 4017
MODEL 1
REMARK VINA RESULT:    -7.096      0.000      0.000
REMARK INTER + INTRA:          -8.094
REMARK INTER:                  -7.926
REMARK INTRA:                  -0.167
REMARK UNBOUND:                -0.167
REMARK  Name = No_4017-gen_results/8p0m/2024-11-26-14-13-15/
REMARK  2 active torsions:
REMARK  status: ('A' for Active; 'I' for Inactive)
REMARK    1  A    between atoms: C_6  and  C_13
REMARK    2  A    between atoms: C_12  and  O_16
REMARK                            x       y       z     vdW  Elec       q    Type
REMARK                         _______ _______ _______ _____ _____    ______ ____
ROOT
ATOM      1  C   UNL A   1     -29.362 -10.148  32.446  0.00  0.00    +0.007 A 
ATOM      2  C   UNL A   1     -29.707 -10.100  31.288  0.00  0.00    +0.000 A 
ATOM      3  C   UNL A   1     -29.235 -11.021  30.359  0.00  0.00    +0.000 A 
ATOM      4  C   UNL A   1     -29.575 -11.060  28.908  0.00  0.00    +0.003 A 
ATOM      5  C   UNL A   1     -29.061 -12.009  27.957  0.00  0.00    +0.000 A 
ATOM      6  C   UNL A   1     -28.289 -11.067  32.859  0.00  0.00    +0.080 A 
ATOM      7  C   UNL A   1     -27.824 -12.052  32.023  0.00  0.00    +0.007 A 
ATOM      8  C   UNL A   1     -28.242 -12.060  30.681  0.00  0.00    +0.000 A 
ATOM      9  C   UNL A   1     -29.525 -11.971  26.660  0.00  0.00    +0.003 A 
ATOM     10  C   UNL A   1     -30.568 -11.256  26.170  0.00  0.00    +0.037 A 
ATOM     11  C   UNL A   1     -30.689 -10.277  28.396  0.00  0.00    +0.034 A 
ATOM     12  C   UNL A   1     -31.130 -10.387  27.066  0.00  0.00    +0.139 A 
ATOM     13  C   UNL A   1     -30.752  -9.148  30.819  0.00  0.00    +0.000 A 
ATOM     14  C   UNL A   1     -31.221  -9.286  29.385  0.00  0.00    +0.003 A 
ENDROOT
BRANCH   6  15
ATOM     15  C   UNL A   1     -27.766 -11.099  34.260  0.00  0.00    +0.388 C 
ATOM     16  O   UNL A   1     -27.759 -10.209  34.896  0.00  0.00    -0.241 OA
ATOM     17  O   UNL A   1     -27.253 -12.245  34.653  0.00  0.00    -0.241 OA
ENDBRANCH   6  15
BRANCH  12  18
ATOM     18  O   UNL A   1     -32.170  -9.592  26.705  0.00  0.00    -0.471 OA
ATOM     19  C   UNL A   1     -33.353 -10.257  26.332  0.00  0.00    +0.253 C 
ENDBRANCH  12  18
TORSDOF 2
ENDMDL
ENDMDL
