MODEL 4018
MODEL 1
REMARK VINA RESULT:    -4.599      0.000      0.000
REMARK INTER + INTRA:          -4.599
REMARK INTER:                  -4.599
REMARK INTRA:                   0.000
REMARK UNBOUND:                 0.000
REMARK  Name = No_4018-gen_results/8p0m/2024-11-26-14-13-15/
REMARK  0 active torsions:
REMARK  status: ('A' for Active; 'I' for Inactive)
REMARK                            x       y       z     vdW  Elec       q    Type
REMARK                         _______ _______ _______ _____ _____    ______ ____
ROOT
ATOM      1  C   UNL A   1     -24.084  -4.551  28.729  0.00  0.00    +0.042 A 
ATOM      2  C   UNL A   1     -25.001  -5.290  29.000  0.00  0.00    +0.003 A 
ATOM      3  C   UNL A   1     -26.173  -4.802  29.569  0.00  0.00    +0.000 A 
ATOM      4  C   UNL A   1     -26.312  -3.406  29.894  0.00  0.00    +0.003 A 
ATOM      5  C   UNL A   1     -25.194  -2.627  29.569  0.00  0.00    +0.042 A 
ATOM      6  C   UNL A   1     -24.103  -3.140  29.048  0.00  0.00    +0.196 A 
ATOM      7  O   UNL A   1     -23.047  -2.320  28.797  0.00  0.00    -0.287 OA
ENDROOT
TORSDOF 0
ENDMDL
ENDMDL
