MODEL 4019
MODEL 1
REMARK VINA RESULT:    -6.434      0.000      0.000
REMARK INTER + INTRA:          -6.917
REMARK INTER:                  -6.810
REMARK INTRA:                  -0.107
REMARK UNBOUND:                -0.107
REMARK  Name = No_4019-gen_results/8p0m/2024-11-26-14-13-15/
REMARK  1 active torsions:
REMARK  status: ('A' for Active; 'I' for Inactive)
REMARK    1  A    between atoms: C_9  and  C_11
REMARK                            x       y       z     vdW  Elec       q    Type
REMARK                         _______ _______ _______ _____ _____    ______ ____
ROOT
ATOM      1  C   UNL A   1     -30.938  -9.765  29.429  0.00  0.00    +0.030 A 
ATOM      2  C   UNL A   1     -30.953 -10.261  28.499  0.00  0.00    +0.146 A 
ATOM      3  C   UNL A   1     -29.934 -10.293  30.430  0.00  0.00    +0.002 A 
ATOM      4  C   UNL A   1     -29.813  -9.893  31.809  0.00  0.00    -0.000 A 
ATOM      5  C   UNL A   1     -30.035 -11.233  27.892  0.00  0.00    +0.062 A 
ATOM      6  C   UNL A   1     -29.072 -11.742  28.736  0.00  0.00    +0.009 A 
ATOM      7  C   UNL A   1     -28.903 -11.309  30.119  0.00  0.00    +0.000 A 
ATOM      8  C   UNL A   1     -29.109 -10.658  32.741  0.00  0.00    -0.000 A 
ATOM      9  C   UNL A   1     -28.173 -11.607  32.287  0.00  0.00    +0.028 A 
ATOM     10  C   UNL A   1     -28.126 -11.978  30.999  0.00  0.00    -0.000 A 
ATOM     11  F   UNL A   1     -31.842  -9.741  27.494  0.00  0.00    -0.204 F 
ATOM     12 BR   UNL A   1     -30.104 -11.822  26.084  0.00  0.00    -0.047 Br
ENDROOT
BRANCH   9  13
ATOM     13  C   UNL A   1     -27.326 -12.274  33.333  0.00  0.00    +0.274 C 
ATOM     14  N   UNL A   1     -27.633 -12.192  34.525  0.00  0.00    -0.090 NA
ATOM     15  F   UNL A   1     -26.440 -13.092  32.879  0.00  0.00    -0.211 F 
ENDBRANCH   9  13
TORSDOF 1
ENDMDL
ENDMDL
