REMARK  Name = No_4019-gen_results/8p0m/2024-11-26-14-13-15/
REMARK  1 active torsions:
REMARK  status: ('A' for Active; 'I' for Inactive)
REMARK    1  A    between atoms: C_9  and  C_11
REMARK                            x       y       z     vdW  Elec       q    Type
REMARK                         _______ _______ _______ _____ _____    ______ ____
ROOT
ATOM      1  C   UNL A   1     -28.016  -0.814  28.878  0.00  0.00    +0.030 A 
ATOM      2  C   UNL A   1     -28.469  -0.785  29.829  0.00  0.00    +0.146 A 
ATOM      3  C   UNL A   1     -26.504  -0.778  28.877  0.00  0.00    +0.002 A 
ATOM      4  C   UNL A   1     -25.654  -0.660  27.719  0.00  0.00    -0.000 A 
ATOM      5  C   UNL A   1     -27.918  -0.937  31.182  0.00  0.00    +0.062 A 
ATOM      6  C   UNL A   1     -26.542  -0.940  31.261  0.00  0.00    +0.009 A 
ATOM      7  C   UNL A   1     -25.668  -0.875  30.095  0.00  0.00    +0.000 A 
ATOM      8  C   UNL A   1     -24.311  -0.291  27.823  0.00  0.00    -0.000 A 
ATOM      9  C   UNL A   1     -23.656  -0.419  29.063  0.00  0.00    +0.028 A 
ATOM     10  C   UNL A   1     -24.342  -0.635  30.195  0.00  0.00    -0.000 A 
ATOM     11  F   UNL A   1     -29.903  -0.892  29.875  0.00  0.00    -0.204 F 
ATOM     12 BR   UNL A   1     -28.950  -1.107  32.771  0.00  0.00    -0.047 Br
ENDROOT
BRANCH   9  13
ATOM     13  C   UNL A   1     -22.174  -0.171  29.072  0.00  0.00    +0.274 C 
ATOM     14  N   UNL A   1     -21.407  -1.015  29.542  0.00  0.00    -0.090 NA
ATOM     15  F   UNL A   1     -21.784   0.834  28.366  0.00  0.00    -0.211 F 
ENDBRANCH   9  13
TORSDOF 1
