MODEL 401
MODEL 1
REMARK VINA RESULT:    -7.833      0.000      0.000
REMARK INTER + INTRA:         -13.508
REMARK INTER:                 -10.581
REMARK INTRA:                  -2.927
REMARK UNBOUND:                -2.927
REMARK  Name = No_401-gen_results/8p0m/2024-11-26-14-13-15/
REMARK  6 active torsions:
REMARK  status: ('A' for Active; 'I' for Inactive)
REMARK    1  A    between atoms: C_1  and  N_8
REMARK    2  A    between atoms: C_5  and  C_9
REMARK    3  A    between atoms: C_7  and  C_18
REMARK    4  A    between atoms: C_12  and  C_13
REMARK    5  A    between atoms: C_13  and  C_14
REMARK    6  A    between atoms: C_22  and  C_24
REMARK                            x       y       z     vdW  Elec       q    Type
REMARK                         _______ _______ _______ _____ _____    ______ ____
ROOT
ATOM      1  C   UNL A   1     -11.347   2.076  38.204  0.00  0.00    +0.053 C 
ATOM      2  C   UNL A   1     -12.440   2.418  37.815  0.00  0.00    -0.026 C 
ATOM      3  C   UNL A   1     -13.470   2.819  38.664  0.00  0.00    +0.024 C 
ATOM      4  C   UNL A   1     -14.832   3.239  38.279  0.00  0.00    +0.016 C 
ATOM      5  C   UNL A   1     -15.046   3.446  36.882  0.00  0.00    +0.104 C 
ATOM      6  C   UNL A   1     -14.021   3.100  35.996  0.00  0.00    +0.020 C 
ATOM      7  C   UNL A   1     -12.816   2.640  36.400  0.00  0.00    +0.042 C 
ENDROOT
BRANCH   1   8
ATOM      8  N   UNL A   1     -11.228   0.759  38.615  0.00  0.00    -0.308 N 
ATOM      9  C   UNL A   1     -10.475  -0.007  38.076  0.00  0.00    +0.077 C 
ATOM     10  C   UNL A   1     -12.307   0.371  39.710  0.00  0.00    +0.091 C 
ATOM     11  C   UNL A   1     -11.921  -0.727  40.466  0.00  0.00    +0.021 C 
ATOM     12  C   UNL A   1     -11.271  -1.758  39.800  0.00  0.00    +0.004 C 
ATOM     13  C   UNL A   1     -10.439  -1.474  38.846  0.00  0.00    +0.020 C 
BRANCH   9  14
ATOM     14  C   UNL A   1      -9.546   0.124  37.426  0.00  0.00    +0.045 C 
BRANCH  14  15
ATOM     15  C   UNL A   1      -9.206  -0.250  36.298  0.00  0.00    -0.032 C 
ATOM     16  C   UNL A   1      -7.915  -0.063  35.608  0.00  0.00    -0.031 C 
ATOM     17  C   UNL A   1      -7.048   0.770  36.363  0.00  0.00    +0.110 C 
ATOM     18  N   UNL A   1      -5.829   0.870  35.750  0.00  0.00    -0.214 NA
ATOM     19  C   UNL A   1      -4.895  -0.214  35.697  0.00  0.00    +0.089 C 
ATOM     20  C   UNL A   1      -5.337  -1.062  34.628  0.00  0.00    +0.019 C 
ATOM     21  C   UNL A   1      -6.589  -1.765  34.620  0.00  0.00    +0.006 C 
ATOM     22  C   UNL A   1      -7.688  -0.952  34.603  0.00  0.00    +0.023 C 
ENDBRANCH  14  15
ENDBRANCH   9  14
ENDBRANCH   1   8
BRANCH   7  23
ATOM     23  C   UNL A   1     -11.811   2.329  35.361  0.00  0.00    -0.018 A 
ATOM     24  C   UNL A   1     -12.017   1.456  34.486  0.00  0.00    -0.004 A 
ATOM     25  C   UNL A   1     -11.033   1.138  33.532  0.00  0.00    -0.000 A 
ATOM     26  C   UNL A   1      -9.935   1.863  33.365  0.00  0.00    +0.004 A 
ATOM     27  C   UNL A   1      -9.738   2.925  34.270  0.00  0.00    +0.055 A 
ATOM     28  C   UNL A   1     -10.635   3.140  35.251  0.00  0.00    +0.001 A 
BRANCH  27  29
ATOM     29  C   UNL A   1      -8.419   3.483  34.149  0.00  0.00    +0.265 C 
ATOM     30  N   UNL A   1      -7.887   4.069  34.971  0.00  0.00    -0.200 NA
ATOM     31  C   UNL A   1      -6.680   4.354  35.184  0.00  0.00    +0.139 C 
ATOM     32  O   UNL A   1      -7.640   2.659  33.370  0.00  0.00    -0.268 OA
ENDBRANCH  27  29
ENDBRANCH   7  23
BRANCH   5  33
ATOM     33  C   UNL A   1     -16.349   3.932  36.518  0.00  0.00    +0.364 C 
ATOM     34  O   UNL A   1     -16.775   3.737  35.393  0.00  0.00    -0.246 OA
ATOM     35  O   UNL A   1     -17.199   4.444  37.406  0.00  0.00    -0.246 OA
ENDBRANCH   5  33
TORSDOF 6
ENDMDL
ENDMDL
