REMARK  Name = No_402-gen_results/8p0m/2024-11-26-14-13-15/
REMARK  2 active torsions:
REMARK  status: ('A' for Active; 'I' for Inactive)
REMARK    1  A    between atoms: C_4  and  C_7
REMARK    2  A    between atoms: C_7  and  C_8
REMARK                            x       y       z     vdW  Elec       q    Type
REMARK                         _______ _______ _______ _____ _____    ______ ____
ROOT
ATOM      1  C   UNL A   1     -28.016  -0.814  28.878  0.00  0.00    -0.000 A 
ATOM      2  C   UNL A   1     -28.469  -0.785  29.829  0.00  0.00    -0.000 A 
ATOM      3  C   UNL A   1     -26.546  -0.876  28.850  0.00  0.00    -0.004 A 
ATOM      4  C   UNL A   1     -25.804  -1.032  30.057  0.00  0.00    -0.018 A 
ATOM      5  C   UNL A   1     -26.537  -1.039  31.217  0.00  0.00    -0.004 A 
ATOM      6  C   UNL A   1     -27.884  -0.953  31.186  0.00  0.00    -0.000 A 
ENDROOT
BRANCH   4   7
ATOM      7  C   UNL A   1     -24.366  -1.113  30.048  0.00  0.00    +0.054 C 
BRANCH   7   8
ATOM      8  C   UNL A   1     -23.692   0.119  29.919  0.00  0.00    -0.002 C 
ATOM      9  C   UNL A   1     -23.986   1.274  30.452  0.00  0.00    +0.102 C 
ATOM     10  N   UNL A   1     -23.301   2.356  29.992  0.00  0.00    -0.127 NA
ENDBRANCH   7   8
ENDBRANCH   4   7
TORSDOF 2
