MODEL 4020
MODEL 1
REMARK VINA RESULT:    -7.691      0.000      0.000
REMARK INTER + INTRA:         -12.692
REMARK INTER:                 -10.388
REMARK INTRA:                  -2.304
REMARK UNBOUND:                -2.304
REMARK  Name = No_4020-gen_results/8p0m/2024-11-26-14-13-15/
REMARK  6 active torsions:
REMARK  status: ('A' for Active; 'I' for Inactive)
REMARK    1  A    between atoms: C_2  and  C_13
REMARK    2  A    between atoms: C_4  and  C_7
REMARK    3  A    between atoms: C_17  and  C_33
REMARK    4  A    between atoms: C_19  and  C_21
REMARK    5  A    between atoms: N_22  and  C_24
REMARK    6  A    between atoms: C_24  and  C_26
REMARK                            x       y       z     vdW  Elec       q    Type
REMARK                         _______ _______ _______ _____ _____    ______ ____
ROOT
ATOM      1  C   UNL A   1     -11.068   2.415  34.854  0.00  0.00    +0.249 C 
ATOM      2  O   UNL A   1     -10.501   3.258  34.340  0.00  0.00    -0.270 OA
ATOM      3  N   UNL A   1     -10.493   1.199  35.236  0.00  0.00    -0.275 N 
ATOM      4  C   UNL A   1      -9.231   0.835  34.683  0.00  0.00    +0.098 C 
ATOM      5  C   UNL A   1      -8.593   0.042  35.344  0.00  0.00    +0.042 C 
ATOM      6  C   UNL A   1      -9.140  -0.732  36.430  0.00  0.00    +0.017 C 
ATOM      7  C   UNL A   1     -10.384  -0.354  36.984  0.00  0.00    +0.097 C 
ATOM      8  C   UNL A   1     -11.123   0.375  36.295  0.00  0.00    +0.103 C 
ENDROOT
BRANCH   1  10
ATOM      9  C   UNL A   1     -13.320   2.499  35.289  0.00  0.00    +0.004 A 
ATOM     10  C   UNL A   1     -12.400   2.929  35.569  0.00  0.00    +0.054 A 
ATOM     11  C   UNL A   1     -14.515   2.975  36.004  0.00  0.00    +0.000 A 
ATOM     12  C   UNL A   1     -14.425   4.062  36.922  0.00  0.00    +0.000 A 
ATOM     13  C   UNL A   1     -13.166   4.562  37.141  0.00  0.00    +0.000 A 
ATOM     14  C   UNL A   1     -12.100   4.070  36.476  0.00  0.00    +0.004 A 
BRANCH  12  15
ATOM     15  C   UNL A   1     -15.586   4.554  37.617  0.00  0.00    +0.000 A 
ATOM     16  C   UNL A   1     -15.789   5.507  37.910  0.00  0.00    +0.000 A 
ATOM     17  C   UNL A   1     -16.927   5.989  38.834  0.00  0.00    +0.000 A 
ATOM     18  C   UNL A   1     -17.773   4.957  39.192  0.00  0.00    +0.000 A 
ATOM     19  C   UNL A   1     -16.546   3.545  38.277  0.00  0.00    +0.000 A 
ATOM     20  C   UNL A   1     -17.512   3.782  38.993  0.00  0.00    +0.000 A 
ENDBRANCH  12  15
ENDBRANCH   1  10
BRANCH   7  21
ATOM     21  C   UNL A   1     -10.828  -1.061  38.202  0.00  0.00    +0.227 C 
ATOM     22  N   UNL A   1     -10.629  -0.727  39.345  0.00  0.00    -0.274 N 
ATOM     23  C   UNL A   1     -10.379  -1.513  40.342  0.00  0.00    +0.115 C 
ATOM     24  O   UNL A   1     -11.485  -2.205  37.881  0.00  0.00    -0.275 OA
BRANCH  22  25
ATOM     25  C   UNL A   1     -10.685   0.682  39.668  0.00  0.00    +0.120 C 
BRANCH  25  26
ATOM     26  C   UNL A   1     -11.861   1.263  40.109  0.00  0.00    -0.002 A 
ATOM     27  C   UNL A   1     -11.936   2.499  39.809  0.00  0.00    -0.003 A 
ATOM     28  C   UNL A   1     -13.113   3.257  40.338  0.00  0.00    +0.001 A 
ATOM     29  C   UNL A   1     -14.016   2.582  41.157  0.00  0.00    +0.011 A 
ATOM     30  C   UNL A   1     -13.826   1.222  41.438  0.00  0.00    +0.057 A 
ATOM     31  C   UNL A   1     -12.715   0.550  40.976  0.00  0.00    +0.009 A 
ATOM     32 CL   UNL A   1     -14.970   0.420  42.456  0.00  0.00    -0.082 Cl
ENDBRANCH  25  26
ENDBRANCH  22  25
ENDBRANCH   7  21
BRANCH   5  33
ATOM     33  C   UNL A   1      -7.193  -0.380  34.915  0.00  0.00    -0.029 C 
ATOM     34  C   UNL A   1      -6.810  -1.557  34.587  0.00  0.00    -0.030 C 
ATOM     35  C   UNL A   1      -5.458  -1.876  34.274  0.00  0.00    +0.030 C 
ENDBRANCH   5  33
TORSDOF 6
ENDMDL
ENDMDL
