REMARK  Name = No_4020-gen_results/8p0m/2024-11-26-14-13-15/
REMARK  6 active torsions:
REMARK  status: ('A' for Active; 'I' for Inactive)
REMARK    1  A    between atoms: C_2  and  C_13
REMARK    2  A    between atoms: C_4  and  C_7
REMARK    3  A    between atoms: C_17  and  C_33
REMARK    4  A    between atoms: C_19  and  C_21
REMARK    5  A    between atoms: N_22  and  C_24
REMARK    6  A    between atoms: C_24  and  C_26
REMARK                            x       y       z     vdW  Elec       q    Type
REMARK                         _______ _______ _______ _____ _____    ______ ____
ROOT
ATOM      1  C   UNL A   1     -30.060  -0.673  29.913  0.00  0.00    +0.249 C 
ATOM      2  O   UNL A   1     -30.509  -0.199  28.980  0.00  0.00    -0.270 OA
ATOM      3  N   UNL A   1     -30.772  -1.479  30.806  0.00  0.00    -0.275 N 
ATOM      4  C   UNL A   1     -32.196  -1.461  30.759  0.00  0.00    +0.098 C 
ATOM      5  C   UNL A   1     -32.735  -2.451  31.208  0.00  0.00    +0.042 C 
ATOM      6  C   UNL A   1     -32.066  -3.443  32.012  0.00  0.00    +0.017 C 
ATOM      7  C   UNL A   1     -30.653  -3.465  32.041  0.00  0.00    +0.097 C 
ATOM      8  C   UNL A   1     -30.054  -2.430  31.689  0.00  0.00    +0.103 C 
ENDROOT
BRANCH   1  10
ATOM      9  C   UNL A   1     -28.016  -0.814  28.878  0.00  0.00    +0.004 A 
ATOM     10  C   UNL A   1     -28.469  -0.785  29.829  0.00  0.00    +0.054 A 
ATOM     11  C   UNL A   1     -26.546  -0.876  28.850  0.00  0.00    +0.000 A 
ATOM     12  C   UNL A   1     -25.804  -1.032  30.057  0.00  0.00    +0.000 A 
ATOM     13  C   UNL A   1     -26.537  -1.039  31.217  0.00  0.00    +0.000 A 
ATOM     14  C   UNL A   1     -27.884  -0.953  31.186  0.00  0.00    +0.004 A 
BRANCH  12  15
ATOM     15  C   UNL A   1     -24.366  -1.113  30.048  0.00  0.00    +0.000 A 
ATOM     16  C   UNL A   1     -23.745  -1.369  30.812  0.00  0.00    +0.000 A 
ATOM     17  C   UNL A   1     -22.207  -1.250  30.858  0.00  0.00    +0.000 A 
ATOM     18  C   UNL A   1     -21.686  -0.819  29.653  0.00  0.00    +0.000 A 
ATOM     19  C   UNL A   1     -23.589  -0.488  28.874  0.00  0.00    +0.000 A 
ATOM     20  C   UNL A   1     -22.375  -0.368  28.753  0.00  0.00    +0.000 A 
ENDBRANCH  12  15
ENDBRANCH   1  10
BRANCH   7  21
ATOM     21  C   UNL A   1     -30.005  -4.596  32.734  0.00  0.00    +0.227 C 
ATOM     22  N   UNL A   1     -30.077  -5.764  32.435  0.00  0.00    -0.274 N 
ATOM     23  C   UNL A   1     -30.139  -6.764  33.254  0.00  0.00    +0.115 C 
ATOM     24  O   UNL A   1     -29.316  -4.163  33.820  0.00  0.00    -0.275 OA
BRANCH  22  25
ATOM     25  C   UNL A   1     -30.080  -6.114  31.031  0.00  0.00    +0.120 C 
BRANCH  25  26
ATOM     26  C   UNL A   1     -31.232  -5.997  30.273  0.00  0.00    -0.002 A 
ATOM     27  C   UNL A   1     -31.995  -7.010  30.387  0.00  0.00    -0.003 A 
ATOM     28  C   UNL A   1     -33.215  -7.044  29.521  0.00  0.00    +0.001 A 
ATOM     29  C   UNL A   1     -33.410  -6.000  28.618  0.00  0.00    +0.011 A 
ATOM     30  C   UNL A   1     -32.494  -4.941  28.563  0.00  0.00    +0.057 A 
ATOM     31  C   UNL A   1     -31.355  -4.946  29.340  0.00  0.00    +0.009 A 
ATOM     32 CL   UNL A   1     -32.773  -3.664  27.432  0.00  0.00    -0.082 Cl
ENDBRANCH  25  26
ENDBRANCH  22  25
ENDBRANCH   7  21
BRANCH   5  33
ATOM     33  C   UNL A   1     -34.250  -2.605  31.154  0.00  0.00    -0.029 C 
ATOM     34  C   UNL A   1     -34.969  -3.396  31.858  0.00  0.00    -0.030 C 
ATOM     35  C   UNL A   1     -36.377  -3.530  31.685  0.00  0.00    +0.030 C 
ENDBRANCH   5  33
TORSDOF 6
