MODEL 4021
MODEL 1
REMARK VINA RESULT:    -7.740      0.000      0.000
REMARK INTER + INTRA:         -10.882
REMARK INTER:                 -10.003
REMARK INTRA:                  -0.880
REMARK UNBOUND:                -0.880
REMARK  Name = No_4021-gen_results/8p0m/2024-11-26-14-13-15/
REMARK  5 active torsions:
REMARK  status: ('A' for Active; 'I' for Inactive)
REMARK    1  A    between atoms: C_4  and  C_7
REMARK    2  A    between atoms: C_7  and  C_8
REMARK    3  A    between atoms: C_12  and  C_14
REMARK    4  A    between atoms: C_14  and  C_15
REMARK    5  A    between atoms: C_16  and  C_17
REMARK                            x       y       z     vdW  Elec       q    Type
REMARK                         _______ _______ _______ _____ _____    ______ ____
ROOT
ATOM      1  C   UNL A   1     -24.080  -0.495  28.238  0.00  0.00    -0.018 A 
ATOM      2  C   UNL A   1     -23.237   0.674  28.414  0.00  0.00    -0.004 A 
ATOM      3  C   UNL A   1     -22.954   1.441  27.265  0.00  0.00    -0.001 A 
ATOM      4  C   UNL A   1     -23.800   1.307  26.132  0.00  0.00    -0.004 A 
ATOM      5  C   UNL A   1     -24.800   0.347  26.075  0.00  0.00    -0.018 A 
ATOM      6  C   UNL A   1     -25.029  -0.489  27.147  0.00  0.00    -0.008 A 
ENDROOT
BRANCH   1   7
ATOM      7  C   UNL A   1     -24.450  -1.188  29.332  0.00  0.00    +0.053 C 
BRANCH   7  11
ATOM      8  C   UNL A   1     -24.277  -4.934  28.700  0.00  0.00    -0.000 A 
ATOM      9  C   UNL A   1     -25.224  -5.183  29.088  0.00  0.00    -0.000 A 
ATOM     10  C   UNL A   1     -23.903  -3.471  28.787  0.00  0.00    -0.004 A 
ATOM     11  C   UNL A   1     -24.704  -2.681  29.221  0.00  0.00    -0.018 A 
ATOM     12  C   UNL A   1     -26.307  -4.427  29.723  0.00  0.00    -0.000 A 
ATOM     13  C   UNL A   1     -25.989  -3.077  29.758  0.00  0.00    -0.004 A 
ENDBRANCH   7  11
ENDBRANCH   1   7
BRANCH   5  14
ATOM     14  C   UNL A   1     -25.631   0.331  24.880  0.00  0.00    +0.052 C 
BRANCH  14  15
ATOM     15  C   UNL A   1     -26.987   0.191  25.030  0.00  0.00    -0.021 C 
ATOM     16  C   UNL A   1     -27.781  -0.183  24.004  0.00  0.00    -0.005 C 
BRANCH  16  17
ATOM     17  C   UNL A   1     -29.208  -0.309  24.108  0.00  0.00    -0.005 C 
ATOM     18  C   UNL A   1     -29.937  -1.430  23.708  0.00  0.00    -0.026 C 
ATOM     19  C   UNL A   1     -31.291  -1.469  23.445  0.00  0.00    +0.031 C 
ENDBRANCH  16  17
ENDBRANCH  14  15
ENDBRANCH   5  14
TORSDOF 5
ENDMDL
ENDMDL
