REMARK  Name = No_4021-gen_results/8p0m/2024-11-26-14-13-15/
REMARK  5 active torsions:
REMARK  status: ('A' for Active; 'I' for Inactive)
REMARK    1  A    between atoms: C_4  and  C_7
REMARK    2  A    between atoms: C_7  and  C_8
REMARK    3  A    between atoms: C_12  and  C_14
REMARK    4  A    between atoms: C_14  and  C_15
REMARK    5  A    between atoms: C_16  and  C_17
REMARK                            x       y       z     vdW  Elec       q    Type
REMARK                         _______ _______ _______ _____ _____    ______ ____
ROOT
ATOM      1  C   UNL A   1     -23.675  -0.149  28.995  0.00  0.00    -0.018 A 
ATOM      2  C   UNL A   1     -22.236  -0.036  29.155  0.00  0.00    -0.004 A 
ATOM      3  C   UNL A   1     -21.513   0.523  28.081  0.00  0.00    -0.001 A 
ATOM      4  C   UNL A   1     -22.212   1.307  27.124  0.00  0.00    -0.004 A 
ATOM      5  C   UNL A   1     -23.595   1.416  27.138  0.00  0.00    -0.018 A 
ATOM      6  C   UNL A   1     -24.337   0.791  28.117  0.00  0.00    -0.008 A 
ENDROOT
BRANCH   1   7
ATOM      7  C   UNL A   1     -24.403  -0.585  30.042  0.00  0.00    +0.053 C 
BRANCH   7  11
ATOM      8  C   UNL A   1     -28.016  -0.814  28.878  0.00  0.00    -0.000 A 
ATOM      9  C   UNL A   1     -28.469  -0.785  29.829  0.00  0.00    -0.000 A 
ATOM     10  C   UNL A   1     -26.504  -0.778  28.877  0.00  0.00    -0.004 A 
ATOM     11  C   UNL A   1     -25.915  -0.658  29.923  0.00  0.00    -0.018 A 
ATOM     12  C   UNL A   1     -27.969  -0.724  31.205  0.00  0.00    -0.000 A 
ATOM     13  C   UNL A   1     -26.585  -0.639  31.206  0.00  0.00    -0.004 A 
ENDBRANCH   7  11
ENDBRANCH   1   7
BRANCH   5  14
ATOM     14  C   UNL A   1     -24.198   2.280  26.133  0.00  0.00    +0.052 C 
BRANCH  14  15
ATOM     15  C   UNL A   1     -25.247   3.081  26.506  0.00  0.00    -0.021 C 
ATOM     16  C   UNL A   1     -25.053   4.326  26.991  0.00  0.00    -0.005 C 
BRANCH  16  17
ATOM     17  C   UNL A   1     -26.120   5.185  27.425  0.00  0.00    -0.005 C 
ATOM     18  C   UNL A   1     -25.941   6.454  27.977  0.00  0.00    -0.026 C 
ATOM     19  C   UNL A   1     -26.864   7.152  28.729  0.00  0.00    +0.031 C 
ENDBRANCH  16  17
ENDBRANCH  14  15
ENDBRANCH   5  14
TORSDOF 5
