MODEL 4022
MODEL 1
REMARK VINA RESULT:    -7.801      0.000      0.000
REMARK INTER + INTRA:          -9.987
REMARK INTER:                  -9.625
REMARK INTRA:                  -0.362
REMARK UNBOUND:                -0.362
REMARK  Name = No_4022-gen_results/8p0m/2024-11-26-14-13-15/
REMARK  4 active torsions:
REMARK  status: ('A' for Active; 'I' for Inactive)
REMARK    1  A    between atoms: C_2  and  C_3
REMARK    2  A    between atoms: C_3  and  C_5
REMARK    3  A    between atoms: C_3  and  C_6
REMARK    4  A    between atoms: C_15  and  C_22
REMARK                            x       y       z     vdW  Elec       q    Type
REMARK                         _______ _______ _______ _____ _____    ______ ____
ROOT
ATOM      1  C   UNL A   1     -24.010  -0.954  30.262  0.00  0.00    +0.121 C 
ENDROOT
BRANCH   1   3
ATOM      2  O   UNL A   1     -21.890  -0.395  29.963  0.00  0.00    -0.274 OA
ATOM      3  C   UNL A   1     -22.991  -0.252  29.651  0.00  0.00    +0.233 C 
ATOM      4  N   UNL A   1     -23.409   0.559  28.493  0.00  0.00    -0.279 N 
ATOM      5  C   UNL A   1     -22.400   1.293  27.761  0.00  0.00    +0.093 C 
ATOM      6  C   UNL A   1     -22.686   1.485  26.650  0.00  0.00    +0.022 C 
ATOM      7  C   UNL A   1     -24.034   1.403  26.061  0.00  0.00    +0.012 C 
ATOM      8  C   UNL A   1     -24.972   0.669  26.874  0.00  0.00    +0.115 C 
ATOM      9  C   UNL A   1     -24.601   0.211  28.063  0.00  0.00    +0.102 C 
BRANCH   8  10
ATOM     10  C   UNL A   1     -26.312   0.459  26.259  0.00  0.00    +0.399 C 
ATOM     11  F   UNL A   1     -27.112   0.006  26.947  0.00  0.00    -0.170 F 
ATOM     12  F   UNL A   1     -26.105  -0.410  25.151  0.00  0.00    -0.170 F 
ATOM     13  F   UNL A   1     -26.780   1.614  25.657  0.00  0.00    -0.170 F 
ENDBRANCH   8  10
ENDBRANCH   1   3
BRANCH   1  14
ATOM     14  C   UNL A   1     -24.580  -0.415  31.341  0.00  0.00    -0.010 A 
ATOM     15  C   UNL A   1     -25.383   0.363  31.493  0.00  0.00    -0.004 A 
ATOM     16  C   UNL A   1     -26.122   0.886  32.695  0.00  0.00    -0.000 A 
ATOM     17  C   UNL A   1     -25.500   0.300  33.836  0.00  0.00    -0.000 A 
ATOM     18  C   UNL A   1     -24.145  -1.102  32.648  0.00  0.00    -0.004 A 
ATOM     19  C   UNL A   1     -24.569  -0.631  33.836  0.00  0.00    -0.000 A 
ENDBRANCH   1  14
BRANCH   1  20
ATOM     20  C   UNL A   1     -24.442  -2.227  29.753  0.00  0.00    -0.010 A 
ATOM     21  C   UNL A   1     -23.677  -2.965  29.023  0.00  0.00    -0.004 A 
ATOM     22  C   UNL A   1     -25.733  -2.705  30.110  0.00  0.00    -0.004 A 
ATOM     23  C   UNL A   1     -26.141  -3.955  29.686  0.00  0.00    -0.000 A 
ATOM     24  C   UNL A   1     -23.974  -4.274  28.618  0.00  0.00    -0.000 A 
ATOM     25  C   UNL A   1     -25.256  -4.745  28.933  0.00  0.00    -0.000 A 
ENDBRANCH   1  20
TORSDOF 4
ENDMDL
ENDMDL
