REMARK  Name = No_4022-gen_results/8p0m/2024-11-26-14-13-15/
REMARK  4 active torsions:
REMARK  status: ('A' for Active; 'I' for Inactive)
REMARK    1  A    between atoms: C_2  and  C_3
REMARK    2  A    between atoms: C_3  and  C_5
REMARK    3  A    between atoms: C_3  and  C_6
REMARK    4  A    between atoms: C_15  and  C_22
REMARK                            x       y       z     vdW  Elec       q    Type
REMARK                         _______ _______ _______ _____ _____    ______ ____
ROOT
ATOM      1  C   UNL A   1     -26.380  -0.087  27.939  0.00  0.00    +0.121 C 
ENDROOT
BRANCH   1   3
ATOM      2  O   UNL A   1     -28.123  -1.335  28.487  0.00  0.00    -0.274 OA
ATOM      3  C   UNL A   1     -27.481  -0.404  28.709  0.00  0.00    +0.233 C 
ATOM      4  N   UNL A   1     -27.666   0.447  29.899  0.00  0.00    -0.279 N 
ATOM      5  C   UNL A   1     -28.768   0.160  30.791  0.00  0.00    +0.093 C 
ATOM      6  C   UNL A   1     -28.577   0.508  31.885  0.00  0.00    +0.022 C 
ATOM      7  C   UNL A   1     -27.569   1.483  32.335  0.00  0.00    +0.012 C 
ATOM      8  C   UNL A   1     -26.524   1.716  31.370  0.00  0.00    +0.115 C 
ATOM      9  C   UNL A   1     -26.579   1.130  30.180  0.00  0.00    +0.102 C 
BRANCH   8  10
ATOM     10  C   UNL A   1     -25.420   2.602  31.834  0.00  0.00    +0.399 C 
ATOM     11  F   UNL A   1     -25.340   3.619  31.307  0.00  0.00    -0.170 F 
ATOM     12  F   UNL A   1     -24.216   1.873  31.624  0.00  0.00    -0.170 F 
ATOM     13  F   UNL A   1     -25.444   2.762  33.208  0.00  0.00    -0.170 F 
ENDBRANCH   8  10
ENDBRANCH   1   3
BRANCH   1  14
ATOM     14  C   UNL A   1     -25.177  -0.439  28.395  0.00  0.00    -0.010 A 
ATOM     15  C   UNL A   1     -24.181   0.089  28.457  0.00  0.00    -0.004 A 
ATOM     16  C   UNL A   1     -22.854  -0.247  29.082  0.00  0.00    -0.000 A 
ATOM     17  C   UNL A   1     -22.956  -1.591  29.545  0.00  0.00    -0.000 A 
ATOM     18  C   UNL A   1     -25.188  -1.801  29.112  0.00  0.00    -0.004 A 
ATOM     19  C   UNL A   1     -24.040  -2.338  29.566  0.00  0.00    -0.000 A 
ENDBRANCH   1  14
BRANCH   1  20
ATOM     20  C   UNL A   1     -26.526   0.604  26.687  0.00  0.00    -0.010 A 
ATOM     21  C   UNL A   1     -26.205   0.057  25.564  0.00  0.00    -0.004 A 
ATOM     22  C   UNL A   1     -27.090   1.909  26.688  0.00  0.00    -0.004 A 
ATOM     23  C   UNL A   1     -27.301   2.564  25.489  0.00  0.00    -0.000 A 
ATOM     24  C   UNL A   1     -26.457   0.611  24.301  0.00  0.00    -0.000 A 
ATOM     25  C   UNL A   1     -26.980   1.911  24.287  0.00  0.00    -0.000 A 
ENDBRANCH   1  20
TORSDOF 4
