MODEL 4023
MODEL 1
REMARK VINA RESULT:    -4.260      0.000      0.000
REMARK INTER + INTRA:          -4.260
REMARK INTER:                  -4.260
REMARK INTRA:                   0.000
REMARK UNBOUND:                 0.000
REMARK  Name = No_4023-gen_results/8p0m/2024-11-26-14-13-15/
REMARK  0 active torsions:
REMARK  status: ('A' for Active; 'I' for Inactive)
REMARK                            x       y       z     vdW  Elec       q    Type
REMARK                         _______ _______ _______ _____ _____    ______ ____
ROOT
ATOM      1  C   UNL A   1     -26.055  -4.856  29.651  0.00  0.00    +0.000 A 
ATOM      2  C   UNL A   1     -26.223  -3.660  29.707  0.00  0.00    +0.000 A 
ATOM      3  C   UNL A   1     -25.274  -2.735  29.315  0.00  0.00    +0.000 A 
ATOM      4  C   UNL A   1     -24.050  -3.223  28.779  0.00  0.00    +0.000 A 
ATOM      5  C   UNL A   1     -23.978  -4.559  28.578  0.00  0.00    +0.000 A 
ATOM      6  C   UNL A   1     -24.954  -5.367  28.948  0.00  0.00    +0.000 A 
ENDROOT
TORSDOF 0
ENDMDL
ENDMDL
