MODEL 4024
MODEL 1
REMARK VINA RESULT:    -4.266      0.000      0.000
REMARK INTER + INTRA:          -4.266
REMARK INTER:                  -4.266
REMARK INTRA:                   0.000
REMARK UNBOUND:                 0.000
REMARK  Name = No_4024-gen_results/8p0m/2024-11-26-14-13-15/
REMARK  0 active torsions:
REMARK  status: ('A' for Active; 'I' for Inactive)
REMARK                            x       y       z     vdW  Elec       q    Type
REMARK                         _______ _______ _______ _____ _____    ______ ____
ROOT
ATOM      1  C   UNL A   1     -26.039  -4.868  29.650  0.00  0.00    +0.000 A 
ATOM      2  C   UNL A   1     -26.203  -3.672  29.717  0.00  0.00    +0.000 A 
ATOM      3  C   UNL A   1     -25.253  -2.748  29.329  0.00  0.00    +0.000 A 
ATOM      4  C   UNL A   1     -24.032  -3.235  28.785  0.00  0.00    +0.000 A 
ATOM      5  C   UNL A   1     -23.965  -4.570  28.572  0.00  0.00    +0.000 A 
ATOM      6  C   UNL A   1     -24.942  -5.377  28.939  0.00  0.00    +0.000 A 
ENDROOT
TORSDOF 0
ENDMDL
ENDMDL
