MODEL 4025
MODEL 1
REMARK VINA RESULT:    -7.193      0.000      0.000
REMARK INTER + INTRA:         -10.402
REMARK INTER:                  -9.296
REMARK INTRA:                  -1.106
REMARK UNBOUND:                -1.106
REMARK  Name = No_4025-gen_results/8p0m/2024-11-26-14-13-15/
REMARK  5 active torsions:
REMARK  status: ('A' for Active; 'I' for Inactive)
REMARK    1  A    between atoms: C_1  and  C_2
REMARK    2  A    between atoms: C_1  and  N_8
REMARK    3  A    between atoms: C_5  and  C_14
REMARK    4  A    between atoms: C_11  and  C_12
REMARK    5  A    between atoms: C_12  and  C_17
REMARK                            x       y       z     vdW  Elec       q    Type
REMARK                         _______ _______ _______ _____ _____    ______ ____
ROOT
ATOM      1  N   UNL A   1     -23.864   0.586  29.028  0.00  0.00    -0.304 N 
ATOM      2  C   UNL A   1     -24.521   1.619  28.427  0.00  0.00    +0.057 C 
ATOM      3  C   UNL A   1     -25.176   1.375  27.222  0.00  0.00    -0.009 C 
ATOM      4  C   UNL A   1     -23.981  -0.619  28.273  0.00  0.00    +0.082 C 
ATOM      5  C   UNL A   1     -24.812  -0.249  27.132  0.00  0.00    +0.047 C 
ENDROOT
BRANCH   1   6
ATOM      6  C   UNL A   1     -23.155   0.660  30.217  0.00  0.00    +0.118 C 
BRANCH   6   7
ATOM      7  C   UNL A   1     -23.686   0.329  31.252  0.00  0.00    -0.002 A 
ATOM      8  C   UNL A   1     -24.736   1.018  31.826  0.00  0.00    -0.002 A 
ATOM      9  C   UNL A   1     -25.355   0.707  33.101  0.00  0.00    +0.006 A 
ATOM     10  C   UNL A   1     -24.873  -0.396  33.840  0.00  0.00    +0.080 A 
ATOM     11  C   UNL A   1     -23.769  -1.115  33.258  0.00  0.00    +0.006 A 
ATOM     12  C   UNL A   1     -23.173  -0.779  32.065  0.00  0.00    -0.002 A 
BRANCH  10  13
ATOM     13  C   UNL A   1     -25.378  -0.769  35.153  0.00  0.00    +0.388 C 
ATOM     14  O   UNL A   1     -24.583  -0.980  36.058  0.00  0.00    -0.241 OA
ATOM     15  O   UNL A   1     -26.654  -0.817  35.411  0.00  0.00    -0.241 OA
ENDBRANCH  10  13
ENDBRANCH   6   7
ENDBRANCH   1   6
BRANCH   4  16
ATOM     16  C   UNL A   1     -23.477  -1.779  28.766  0.00  0.00    +0.046 C 
BRANCH  16  17
ATOM     17  C   UNL A   1     -24.535  -2.789  29.129  0.00  0.00    -0.021 A 
ATOM     18  C   UNL A   1     -25.422  -2.563  29.558  0.00  0.00    -0.004 A 
ATOM     19  C   UNL A   1     -26.446  -3.639  29.898  0.00  0.00    -0.000 A 
ATOM     20  C   UNL A   1     -24.154  -4.131  28.768  0.00  0.00    -0.004 A 
ATOM     21  C   UNL A   1     -24.969  -5.198  28.966  0.00  0.00    -0.000 A 
ATOM     22  C   UNL A   1     -26.186  -4.897  29.593  0.00  0.00    -0.000 A 
ENDBRANCH  16  17
ENDBRANCH   4  16
TORSDOF 5
ENDMDL
ENDMDL
