REMARK  Name = No_4025-gen_results/8p0m/2024-11-26-14-13-15/
REMARK  5 active torsions:
REMARK  status: ('A' for Active; 'I' for Inactive)
REMARK    1  A    between atoms: C_1  and  C_2
REMARK    2  A    between atoms: C_1  and  N_8
REMARK    3  A    between atoms: C_5  and  C_14
REMARK    4  A    between atoms: C_11  and  C_12
REMARK    5  A    between atoms: C_12  and  C_17
REMARK                            x       y       z     vdW  Elec       q    Type
REMARK                         _______ _______ _______ _____ _____    ______ ____
ROOT
ATOM      1  N   UNL A   1     -28.757  -0.548  30.019  0.00  0.00    -0.304 N 
ATOM      2  C   UNL A   1     -29.760  -1.326  30.517  0.00  0.00    +0.057 C 
ATOM      3  C   UNL A   1     -30.396  -0.917  31.688  0.00  0.00    -0.009 C 
ATOM      4  C   UNL A   1     -28.537   0.605  30.830  0.00  0.00    +0.082 C 
ATOM      5  C   UNL A   1     -29.532   0.494  31.891  0.00  0.00    +0.047 C 
ENDROOT
BRANCH   1   6
ATOM      6  C   UNL A   1     -28.016  -0.814  28.878  0.00  0.00    +0.118 C 
BRANCH   6   7
ATOM      7  C   UNL A   1     -27.064  -0.119  28.608  0.00  0.00    -0.002 A 
ATOM      8  C   UNL A   1     -27.001   0.691  27.491  0.00  0.00    -0.002 A 
ATOM      9  C   UNL A   1     -25.855   1.482  27.083  0.00  0.00    +0.006 A 
ATOM     10  C   UNL A   1     -24.690   1.453  27.881  0.00  0.00    +0.080 A 
ATOM     11  C   UNL A   1     -24.738   0.601  29.042  0.00  0.00    +0.006 A 
ATOM     12  C   UNL A   1     -25.823  -0.169  29.389  0.00  0.00    -0.002 A 
BRANCH  10  13
ATOM     13  C   UNL A   1     -23.464   2.160  27.543  0.00  0.00    +0.388 C 
ATOM     14  O   UNL A   1     -23.510   3.080  26.739  0.00  0.00    -0.241 OA
ATOM     15  O   UNL A   1     -22.330   1.887  28.124  0.00  0.00    -0.241 OA
ENDBRANCH  10  13
ENDBRANCH   6   7
ENDBRANCH   1   6
BRANCH   4  16
ATOM     16  C   UNL A   1     -27.645   1.550  30.437  0.00  0.00    +0.046 C 
BRANCH  16  17
ATOM     17  C   UNL A   1     -28.287   2.852  30.031  0.00  0.00    -0.021 A 
ATOM     18  C   UNL A   1     -28.081   3.749  30.449  0.00  0.00    -0.004 A 
ATOM     19  C   UNL A   1     -28.770   5.027  29.987  0.00  0.00    -0.000 A 
ATOM     20  C   UNL A   1     -29.221   2.684  28.947  0.00  0.00    -0.004 A 
ATOM     21  C   UNL A   1     -29.889   3.728  28.392  0.00  0.00    -0.000 A 
ATOM     22  C   UNL A   1     -29.635   4.970  28.991  0.00  0.00    -0.000 A 
ENDBRANCH  16  17
ENDBRANCH   4  16
TORSDOF 5
