MODEL 4026
MODEL 1
REMARK VINA RESULT:    -5.891      0.000      0.000
REMARK INTER + INTRA:          -6.414
REMARK INTER:                  -6.236
REMARK INTRA:                  -0.179
REMARK UNBOUND:                -0.179
REMARK  Name = No_4026-gen_results/8p0m/2024-11-26-14-13-15/
REMARK  1 active torsions:
REMARK  status: ('A' for Active; 'I' for Inactive)
REMARK    1  A    between atoms: C_5  and  C_11
REMARK                            x       y       z     vdW  Elec       q    Type
REMARK                         _______ _______ _______ _____ _____    ______ ____
ROOT
ATOM      1  C   UNL A   1     -26.460  -3.862  29.907  0.00  0.00    +0.099 A 
ATOM      2  C   UNL A   1     -25.663  -2.959  29.801  0.00  0.00    +0.019 A 
ATOM      3  C   UNL A   1     -24.457  -3.141  29.132  0.00  0.00    +0.003 A 
ATOM      4  C   UNL A   1     -23.392  -2.114  28.943  0.00  0.00    +0.004 A 
ATOM      5  C   UNL A   1     -23.722  -0.790  29.357  0.00  0.00    +0.071 A 
ATOM      6  C   UNL A   1     -24.974  -0.615  29.979  0.00  0.00    +0.004 A 
ATOM      7  C   UNL A   1     -25.872  -1.593  30.169  0.00  0.00    +0.002 A 
ATOM      8  N   UNL A   1     -26.072  -5.204  29.673  0.00  0.00    -0.242 NA
ATOM      9  C   UNL A   1     -24.946  -5.458  28.909  0.00  0.00    +0.099 A 
ATOM     10  C   UNL A   1     -24.023  -4.452  28.678  0.00  0.00    +0.021 A 
ENDROOT
BRANCH   5  11
ATOM     11  C   UNL A   1     -22.738   0.276  29.150  0.00  0.00    +0.419 C 
ATOM     12  F   UNL A   1     -22.593   0.584  28.027  0.00  0.00    -0.166 F 
ATOM     13  F   UNL A   1     -23.078   1.425  29.807  0.00  0.00    -0.166 F 
ATOM     14  F   UNL A   1     -21.523  -0.001  29.728  0.00  0.00    -0.166 F 
ENDBRANCH   5  11
TORSDOF 1
ENDMDL
ENDMDL
