REMARK  Name = No_4027-gen_results/8p0m/2024-11-26-14-13-15/
REMARK  7 active torsions:
REMARK  status: ('A' for Active; 'I' for Inactive)
REMARK    1  A    between atoms: N_1  and  C_2
REMARK    2  A    between atoms: N_1  and  C_8
REMARK    3  A    between atoms: C_5  and  C_12
REMARK    4  A    between atoms: C_8  and  CA_9
REMARK    5  A    between atoms: CA_9  and  N_10
REMARK    6  A    between atoms: CA_9  and  C_11
REMARK    7  A    between atoms: N_10  and  C_17
REMARK                            x       y       z     vdW  Elec       q    Type
REMARK                         _______ _______ _______ _____ _____    ______ ____
ROOT
ATOM      1  N   UNL A   1     -28.054  -1.050  28.725  0.00  0.00    -0.235 NA
ENDROOT
BRANCH   1   2
ATOM      2  C   UNL A   1     -26.966  -0.472  28.771  0.00  0.00    +0.065 A 
ATOM      3  C   UNL A   1     -26.549   0.388  27.831  0.00  0.00    +0.016 A 
ATOM      4  C   UNL A   1     -25.266   1.068  27.806  0.00  0.00    +0.008 A 
ATOM      5  C   UNL A   1     -24.357   0.776  28.846  0.00  0.00    +0.080 A 
ATOM      6  C   UNL A   1     -24.775  -0.174  29.830  0.00  0.00    +0.008 A 
ATOM      7  C   UNL A   1     -25.984  -0.811  29.805  0.00  0.00    +0.016 A 
BRANCH   5   8
ATOM      8  C   UNL A   1     -23.059   1.409  28.888  0.00  0.00    +0.388 C 
ATOM      9  O   UNL A   1     -22.329   1.282  29.793  0.00  0.00    -0.241 OA
ATOM     10  O   UNL A   1     -22.649   2.073  27.814  0.00  0.00    -0.241 OA
ENDBRANCH   5   8
ENDBRANCH   1   2
BRANCH   1  11
ATOM     11  C   UNL A   1     -29.006  -0.650  29.688  0.00  0.00    +0.145 C 
BRANCH  11  12
ATOM     12  CA  UNL A   1     -30.256  -1.446  29.662  0.00  0.00    +0.216 C 
BRANCH  12  13
ATOM     13  C   UNL A   1     -30.983  -1.479  28.353  0.00  0.00    +0.386 C 
ATOM     14  O   UNL A   1     -30.862  -0.542  27.589  0.00  0.00    -0.244 OA
ATOM     15  OXT UNL A   1     -31.761  -2.412  28.088  0.00  0.00    -0.244 OA
ENDBRANCH  12  13
BRANCH  12  16
ATOM     16  N   UNL A   1     -30.055  -2.546  30.124  0.00  0.00    -0.225 NA
BRANCH  16  17
ATOM     17  C   UNL A   1     -30.953  -3.443  30.517  0.00  0.00    +0.076 C 
ATOM     18  C   UNL A   1     -30.423  -4.757  30.982  0.00  0.00    -0.008 C 
ATOM     19  C   UNL A   1     -29.029  -4.713  31.015  0.00  0.00    +0.032 C 
ENDBRANCH  16  17
ENDBRANCH  12  16
ENDBRANCH  11  12
ENDBRANCH   1  11
TORSDOF 7
