MODEL 4027
MODEL 1
REMARK VINA RESULT:    -5.368      0.000      0.000
REMARK INTER + INTRA:          -8.184
REMARK INTER:                  -7.565
REMARK INTRA:                  -0.619
REMARK UNBOUND:                -0.619
REMARK  Name = No_4027-gen_results/8p0m/2024-11-26-14-13-15/
REMARK  7 active torsions:
REMARK  status: ('A' for Active; 'I' for Inactive)
REMARK    1  A    between atoms: N_1  and  C_2
REMARK    2  A    between atoms: N_1  and  C_8
REMARK    3  A    between atoms: C_5  and  C_12
REMARK    4  A    between atoms: C_8  and  CA_9
REMARK    5  A    between atoms: CA_9  and  N_10
REMARK    6  A    between atoms: CA_9  and  C_11
REMARK    7  A    between atoms: N_10  and  C_17
REMARK                            x       y       z     vdW  Elec       q    Type
REMARK                         _______ _______ _______ _____ _____    ______ ____
ROOT
ATOM      1  N   UNL A   1     -19.740 -20.477   5.444  0.00  0.00    -0.235 NA
ENDROOT
BRANCH   1   2
ATOM      2  C   UNL A   1     -18.865 -20.843   6.232  0.00  0.00    +0.065 A 
ATOM      3  C   UNL A   1     -17.615 -20.360   6.219  0.00  0.00    +0.016 A 
ATOM      4  C   UNL A   1     -16.531 -20.778   7.091  0.00  0.00    +0.008 A 
ATOM      5  C   UNL A   1     -16.803 -21.809   8.017  0.00  0.00    +0.080 A 
ATOM      6  C   UNL A   1     -18.122 -22.361   8.008  0.00  0.00    +0.008 A 
ATOM      7  C   UNL A   1     -19.109 -21.956   7.154  0.00  0.00    +0.016 A 
BRANCH   5   8
ATOM      8  C   UNL A   1     -15.775 -22.282   8.915  0.00  0.00    +0.388 C 
ATOM      9  O   UNL A   1     -14.724 -22.627   8.537  0.00  0.00    -0.241 OA
ATOM     10  O   UNL A   1     -16.007 -22.223  10.221  0.00  0.00    -0.241 OA
ENDBRANCH   5   8
ENDBRANCH   1   2
BRANCH   1  11
ATOM     11  C   UNL A   1     -21.031 -20.311   5.989  0.00  0.00    +0.145 C 
BRANCH  11  12
ATOM     12  CA  UNL A   1     -21.132 -19.199   6.964  0.00  0.00    +0.216 C 
BRANCH  12  13
ATOM     13  C   UNL A   1     -21.200 -17.821   6.380  0.00  0.00    +0.386 C 
ATOM     14  O   UNL A   1     -20.184 -17.317   5.943  0.00  0.00    -0.244 OA
ATOM     15  OXT UNL A   1     -22.261 -17.174   6.415  0.00  0.00    -0.244 OA
ENDBRANCH  12  13
BRANCH  12  16
ATOM     16  N   UNL A   1     -22.017 -19.424   7.758  0.00  0.00    -0.225 NA
BRANCH  16  17
ATOM     17  C   UNL A   1     -22.805 -20.492   7.821  0.00  0.00    +0.076 C 
ATOM     18  C   UNL A   1     -22.774 -21.269   9.093  0.00  0.00    -0.008 C 
ATOM     19  C   UNL A   1     -21.975 -20.607  10.026  0.00  0.00    +0.032 C 
ENDBRANCH  16  17
ENDBRANCH  12  16
ENDBRANCH  11  12
ENDBRANCH   1  11
TORSDOF 7
ENDMDL
ENDMDL
