MODEL 4028
MODEL 1
REMARK VINA RESULT:    -6.617      0.000      0.000
REMARK INTER + INTRA:          -7.381
REMARK INTER:                  -7.004
REMARK INTRA:                  -0.377
REMARK UNBOUND:                -0.377
REMARK  Name = No_4028-gen_results/8p0m/2024-11-26-14-13-15/
REMARK  1 active torsions:
REMARK  status: ('A' for Active; 'I' for Inactive)
REMARK    1  A    between atoms: C_4  and  C_7
REMARK                            x       y       z     vdW  Elec       q    Type
REMARK                         _______ _______ _______ _____ _____    ______ ____
ROOT
ATOM      1  C   UNL A   1     -24.465  -5.201  28.882  0.00  0.00    +0.000 A 
ATOM      2  C   UNL A   1     -25.446  -5.195  29.266  0.00  0.00    +0.000 A 
ATOM      3  C   UNL A   1     -23.870  -3.892  28.571  0.00  0.00    +0.000 A 
ATOM      4  C   UNL A   1     -24.551  -2.687  28.913  0.00  0.00    +0.000 A 
ATOM      5  C   UNL A   1     -25.798  -2.837  29.465  0.00  0.00    +0.000 A 
ATOM      6  C   UNL A   1     -26.307  -4.064  29.705  0.00  0.00    +0.000 A 
ENDROOT
BRANCH   4   7
ATOM      7  C   UNL A   1     -23.976  -1.396  28.634  0.00  0.00    +0.000 A 
ATOM      8  C   UNL A   1     -24.342  -0.662  28.032  0.00  0.00    +0.000 A 
ATOM      9  C   UNL A   1     -23.624   0.625  27.572  0.00  0.00    +0.000 A 
ATOM     10  C   UNL A   1     -22.380   0.761  28.158  0.00  0.00    +0.000 A 
ATOM     11  C   UNL A   1     -22.599  -1.205  29.204  0.00  0.00    +0.000 A 
ATOM     12  C   UNL A   1     -21.860  -0.155  28.916  0.00  0.00    +0.000 A 
ENDBRANCH   4   7
TORSDOF 1
ENDMDL
ENDMDL
