REMARK  Name = No_4029-gen_results/8p0m/2024-11-26-14-13-15/
REMARK  4 active torsions:
REMARK  status: ('A' for Active; 'I' for Inactive)
REMARK    1  A    between atoms: C_4  and  C_15
REMARK    2  A    between atoms: C_11  and  C_12
REMARK    3  A    between atoms: C_15  and  N_16
REMARK    4  A    between atoms: C_27  and  C_28
REMARK                            x       y       z     vdW  Elec       q    Type
REMARK                         _______ _______ _______ _____ _____    ______ ____
ROOT
ATOM      1  C   UNL A   1     -27.770   1.667  25.915  0.00  0.00    +0.083 C 
ATOM      2  C   UNL A   1     -29.268   1.854  25.841  0.00  0.00    -0.009 A 
ATOM      3  C   UNL A   1     -29.993   0.961  25.030  0.00  0.00    -0.024 A 
ATOM      4  C   UNL A   1     -30.018   2.626  26.748  0.00  0.00    -0.003 A 
ATOM      5  C   UNL A   1     -31.386   2.622  26.772  0.00  0.00    +0.006 A 
ATOM      6  C   UNL A   1     -31.347   0.876  25.042  0.00  0.00    +0.002 A 
ATOM      7  C   UNL A   1     -32.035   1.731  25.878  0.00  0.00    +0.079 A 
ATOM      8  C   UNL A   1     -29.216   0.027  24.182  0.00  0.00    +0.026 C 
ATOM      9  C   UNL A   1     -27.306   1.306  24.483  0.00  0.00    +0.023 C 
ATOM     10  C   UNL A   1     -27.944   0.300  23.838  0.00  0.00    +0.007 C 
ENDROOT
BRANCH   1  14
ATOM     11  C   UNL A   1     -28.016  -0.814  28.878  0.00  0.00    +0.050 A 
ATOM     12  C   UNL A   1     -28.469  -0.785  29.829  0.00  0.00    +0.249 C 
ATOM     13  C   UNL A   1     -28.182   0.428  28.113  0.00  0.00    +0.002 A 
ATOM     14  C   UNL A   1     -27.450   0.643  26.850  0.00  0.00    -0.005 A 
ATOM     15  C   UNL A   1     -26.181   0.036  26.715  0.00  0.00    -0.003 A 
ATOM     16  C   UNL A   1     -25.780  -0.933  27.694  0.00  0.00    -0.003 A 
ATOM     17  C   UNL A   1     -26.557  -1.213  28.741  0.00  0.00    -0.002 A 
ATOM     18  N   UNL A   1     -28.302  -1.978  30.661  0.00  0.00    -0.273 N 
ATOM     19  O   UNL A   1     -29.533  -0.161  30.278  0.00  0.00    -0.270 OA
ATOM     20  C   UNL A   1     -27.327  -2.905  30.403  0.00  0.00    +0.113 C 
ATOM     21  C   UNL A   1     -26.192  -2.461  29.500  0.00  0.00    +0.133 C 
ATOM     22  C   UNL A   1     -29.183  -2.361  31.849  0.00  0.00    +0.115 C 
BRANCH  21  23
ATOM     23  C   UNL A   1     -25.059  -3.262  29.308  0.00  0.00    +0.078 C 
ATOM     24  N   UNL A   1     -24.058  -3.457  29.112  0.00  0.00    -0.196 NA
ENDBRANCH  21  23
ENDBRANCH   1  14
BRANCH   1  25
ATOM     25  N   UNL A   1     -27.209   2.787  26.124  0.00  0.00    -0.268 NA
ATOM     26  C   UNL A   1     -27.850   4.011  26.373  0.00  0.00    +0.073 C 
ATOM     27  C   UNL A   1     -25.746   2.915  26.021  0.00  0.00    +0.073 C 
ATOM     28  C   UNL A   1     -25.074   3.903  26.801  0.00  0.00    +0.017 C 
ATOM     29  C   UNL A   1     -25.685   5.167  27.035  0.00  0.00    +0.003 C 
ATOM     30  C   UNL A   1     -27.116   5.140  27.000  0.00  0.00    +0.017 C 
ENDBRANCH   1  25
BRANCH   7  31
ATOM     31  C   UNL A   1     -33.520   1.619  25.896  0.00  0.00    +0.388 C 
ATOM     32  O   UNL A   1     -34.279   2.256  26.577  0.00  0.00    -0.241 OA
ATOM     33  O   UNL A   1     -34.040   0.720  25.080  0.00  0.00    -0.241 OA
ENDBRANCH   7  31
TORSDOF 4
