MODEL 4029
MODEL 1
REMARK VINA RESULT:    -7.317      0.000      0.000
REMARK INTER + INTRA:         -10.042
REMARK INTER:                  -9.028
REMARK INTRA:                  -1.013
REMARK UNBOUND:                -1.013
REMARK  Name = No_4029-gen_results/8p0m/2024-11-26-14-13-15/
REMARK  4 active torsions:
REMARK  status: ('A' for Active; 'I' for Inactive)
REMARK    1  A    between atoms: C_4  and  C_15
REMARK    2  A    between atoms: C_11  and  C_12
REMARK    3  A    between atoms: C_15  and  N_16
REMARK    4  A    between atoms: C_27  and  C_28
REMARK                            x       y       z     vdW  Elec       q    Type
REMARK                         _______ _______ _______ _____ _____    ______ ____
ROOT
ATOM      1  C   UNL A   1       0.024 -23.123  29.266  0.00  0.00    +0.083 C 
ATOM      2  C   UNL A   1      -0.927 -23.975  28.457  0.00  0.00    -0.009 A 
ATOM      3  C   UNL A   1      -2.276 -23.576  28.413  0.00  0.00    -0.024 A 
ATOM      4  C   UNL A   1      -0.524 -24.929  27.503  0.00  0.00    -0.003 A 
ATOM      5  C   UNL A   1      -1.401 -25.545  26.653  0.00  0.00    +0.006 A 
ATOM      6  C   UNL A   1      -3.184 -24.115  27.560  0.00  0.00    +0.002 A 
ATOM      7  C   UNL A   1      -2.754 -25.120  26.718  0.00  0.00    +0.079 A 
ATOM      8  C   UNL A   1      -2.686 -22.462  29.299  0.00  0.00    +0.026 C 
ATOM      9  C   UNL A   1      -0.745 -22.706  30.543  0.00  0.00    +0.023 C 
ATOM     10  C   UNL A   1      -1.974 -22.154  30.398  0.00  0.00    +0.007 C 
ENDROOT
BRANCH   1  14
ATOM     11  C   UNL A   1       0.650 -20.724  26.291  0.00  0.00    +0.050 A 
ATOM     12  C   UNL A   1       0.851 -20.857  25.266  0.00  0.00    +0.249 C 
ATOM     13  C   UNL A   1       0.521 -21.985  27.031  0.00  0.00    +0.002 A 
ATOM     14  C   UNL A   1       0.439 -21.995  28.504  0.00  0.00    -0.005 A 
ATOM     15  C   UNL A   1       1.112 -20.970  29.206  0.00  0.00    -0.003 A 
ATOM     16  C   UNL A   1       1.632 -19.859  28.460  0.00  0.00    -0.003 A 
ATOM     17  C   UNL A   1       1.537 -19.821  27.131  0.00  0.00    -0.002 A 
ATOM     18  N   UNL A   1       1.035 -19.636  24.479  0.00  0.00    -0.273 N 
ATOM     19  O   UNL A   1       0.514 -21.801  24.418  0.00  0.00    -0.270 OA
ATOM     20  C   UNL A   1       1.308 -18.431  25.073  0.00  0.00    +0.113 C 
ATOM     21  C   UNL A   1       1.810 -18.480  26.503  0.00  0.00    +0.133 C 
ATOM     22  C   UNL A   1       0.905 -19.531  22.961  0.00  0.00    +0.115 C 
BRANCH  21  23
ATOM     23  C   UNL A   1       2.283 -17.329  27.148  0.00  0.00    +0.078 C 
ATOM     24  N   UNL A   1       2.245 -16.347  27.482  0.00  0.00    -0.196 NA
ENDBRANCH  21  23
ENDBRANCH   1  14
BRANCH   1  25
ATOM     25  N   UNL A   1       0.964 -23.845  29.721  0.00  0.00    -0.268 NA
ATOM     26  C   UNL A   1       1.197 -24.166  31.068  0.00  0.00    +0.073 C 
ATOM     27  C   UNL A   1       2.008 -24.360  28.819  0.00  0.00    +0.073 C 
ATOM     28  C   UNL A   1       2.662 -25.588  29.136  0.00  0.00    +0.017 C 
ATOM     29  C   UNL A   1       2.946 -25.918  30.492  0.00  0.00    +0.003 C 
ATOM     30  C   UNL A   1       2.050 -25.324  31.438  0.00  0.00    +0.017 C 
ENDBRANCH   1  25
BRANCH   7  31
ATOM     31  C   UNL A   1      -3.754 -25.693  25.775  0.00  0.00    +0.388 C 
ATOM     32  O   UNL A   1      -4.065 -26.851  25.676  0.00  0.00    -0.241 OA
ATOM     33  O   UNL A   1      -4.346 -24.831  24.968  0.00  0.00    -0.241 OA
ENDBRANCH   7  31
TORSDOF 4
ENDMDL
ENDMDL
