MODEL 402
MODEL 1
REMARK VINA RESULT:    -5.326      0.000      0.000
REMARK INTER + INTRA:          -6.107
REMARK INTER:                  -5.949
REMARK INTRA:                  -0.158
REMARK UNBOUND:                -0.158
REMARK  Name = No_402-gen_results/8p0m/2024-11-26-14-13-15/
REMARK  2 active torsions:
REMARK  status: ('A' for Active; 'I' for Inactive)
REMARK    1  A    between atoms: C_4  and  C_7
REMARK    2  A    between atoms: C_7  and  C_8
REMARK                            x       y       z     vdW  Elec       q    Type
REMARK                         _______ _______ _______ _____ _____    ______ ____
ROOT
ATOM      1  C   UNL A   1     -24.327  -5.064  28.749  0.00  0.00    -0.000 A 
ATOM      2  C   UNL A   1     -25.291  -5.310  29.096  0.00  0.00    -0.000 A 
ATOM      3  C   UNL A   1     -23.980  -3.634  28.724  0.00  0.00    -0.004 A 
ATOM      4  C   UNL A   1     -24.865  -2.664  29.279  0.00  0.00    -0.018 A 
ATOM      5  C   UNL A   1     -26.062  -3.142  29.751  0.00  0.00    -0.004 A 
ATOM      6  C   UNL A   1     -26.339  -4.463  29.725  0.00  0.00    -0.000 A 
ENDROOT
BRANCH   4   7
ATOM      7  C   UNL A   1     -24.535  -1.262  29.281  0.00  0.00    +0.054 C 
BRANCH   7   8
ATOM      8  C   UNL A   1     -23.245  -0.944  28.808  0.00  0.00    -0.002 C 
ATOM      9  C   UNL A   1     -22.229  -0.451  29.464  0.00  0.00    +0.102 C 
ATOM     10  N   UNL A   1     -21.166  -0.030  28.726  0.00  0.00    -0.127 NA
ENDBRANCH   7   8
ENDBRANCH   4   7
TORSDOF 2
ENDMDL
ENDMDL
