REMARK  Name = No_403-gen_results/8p0m/2024-11-26-14-13-15/
REMARK  10 active torsions:
REMARK  status: ('A' for Active; 'I' for Inactive)
REMARK    1  A    between atoms: C_2  and  C_6
REMARK    2  A    between atoms: C_5  and  C_29
REMARK    3  A    between atoms: C_6  and  N_8
REMARK    4  A    between atoms: C_6  and  C_9
REMARK    5  A    between atoms: N_8  and  C_11
REMARK    6  A    between atoms: C_9  and  C_18
REMARK    7  A    between atoms: C_12  and  C_25
REMARK    8  A    between atoms: C_26  and  C_27
REMARK    9  A    between atoms: C_27  and  C_32
REMARK   10  A    between atoms: C_33  and  C_34
REMARK                            x       y       z     vdW  Elec       q    Type
REMARK                         _______ _______ _______ _____ _____    ______ ____
ROOT
ATOM      1  C   UNL A   1     -29.409  -1.944  30.289  0.00  0.00    +0.107 C 
ENDROOT
BRANCH   1   3
ATOM      2  C   UNL A   1     -28.016  -0.814  28.878  0.00  0.00    +0.004 A 
ATOM      3  C   UNL A   1     -28.469  -0.785  29.829  0.00  0.00    -0.003 A 
ATOM      4  C   UNL A   1     -27.136   0.236  28.535  0.00  0.00    +0.035 A 
ATOM      5  C   UNL A   1     -26.875   1.282  29.398  0.00  0.00    +0.013 A 
ATOM      6  C   UNL A   1     -27.507   1.238  30.630  0.00  0.00    +0.080 A 
ATOM      7  C   UNL A   1     -28.322   0.132  30.967  0.00  0.00    +0.004 A 
ATOM      8 BR   UNL A   1     -26.201   0.280  26.858  0.00  0.00    -0.049 Br
BRANCH   6   9
ATOM      9  C   UNL A   1     -27.237   2.329  31.645  0.00  0.00    +0.388 C 
ATOM     10  O   UNL A   1     -26.978   2.265  32.660  0.00  0.00    -0.241 OA
ATOM     11  O   UNL A   1     -27.463   3.562  31.020  0.00  0.00    -0.241 OA
ENDBRANCH   6   9
ENDBRANCH   1   3
BRANCH   1  12
ATOM     12  N   UNL A   1     -29.112  -3.191  30.428  0.00  0.00    -0.253 N 
ATOM     13  C   UNL A   1     -27.621  -3.592  30.220  0.00  0.00    +0.253 C 
ATOM     14  O   UNL A   1     -27.340  -4.747  30.079  0.00  0.00    -0.270 OA
BRANCH  12  15
ATOM     15  C   UNL A   1     -29.789  -4.338  30.629  0.00  0.00    +0.054 A 
ATOM     16  C   UNL A   1     -29.752  -5.017  31.693  0.00  0.00    +0.015 A 
ATOM     17  C   UNL A   1     -30.705  -4.695  29.608  0.00  0.00    +0.015 A 
ATOM     18  C   UNL A   1     -30.471  -6.180  31.899  0.00  0.00    +0.001 A 
ATOM     19  C   UNL A   1     -31.414  -5.895  29.658  0.00  0.00    +0.001 A 
ATOM     20  C   UNL A   1     -31.299  -6.651  30.836  0.00  0.00    +0.000 A 
ENDBRANCH  12  15
BRANCH  13  21
ATOM     21  C   UNL A   1     -26.652  -2.545  30.187  0.00  0.00    +0.054 C 
ATOM     22  C   UNL A   1     -25.213  -3.122  30.004  0.00  0.00    -0.017 C 
BRANCH  22  23
ATOM     23  C   UNL A   1     -24.591  -2.715  28.770  0.00  0.00    +0.052 C 
BRANCH  23  24
ATOM     24  C   UNL A   1     -23.766  -1.409  28.965  0.00  0.00    -0.021 C 
ATOM     25  C   UNL A   1     -23.565  -0.424  28.413  0.00  0.00    -0.004 C 
BRANCH  25  26
ATOM     26  C   UNL A   1     -22.585   0.597  28.770  0.00  0.00    -0.000 C 
ATOM     27  C   UNL A   1     -21.787   0.169  29.802  0.00  0.00    -0.000 C 
ENDBRANCH  25  26
ENDBRANCH  23  24
ENDBRANCH  22  23
ENDBRANCH  13  21
ENDBRANCH   1  12
BRANCH   1  28
ATOM     28  C   UNL A   1     -30.186  -1.634  31.604  0.00  0.00    +0.051 C 
BRANCH  28  29
ATOM     29  C   UNL A   1     -31.321  -0.809  31.404  0.00  0.00    -0.020 A 
ATOM     30  C   UNL A   1     -32.089  -0.484  32.533  0.00  0.00    -0.001 A 
ATOM     31  C   UNL A   1     -33.160   0.379  32.407  0.00  0.00    +0.042 A 
ATOM     32  C   UNL A   1     -31.651  -0.260  30.199  0.00  0.00    -0.001 A 
ATOM     33  C   UNL A   1     -32.735   0.629  30.029  0.00  0.00    +0.042 A 
ATOM     34  C   UNL A   1     -33.495   0.938  31.154  0.00  0.00    +0.196 A 
ATOM     35  O   UNL A   1     -34.523   1.822  30.997  0.00  0.00    -0.287 OA
ENDBRANCH  28  29
ENDBRANCH   1  28
TORSDOF 10
