REMARK  Name = No_4031-gen_results/8p0m/2024-11-26-14-13-15/
REMARK  2 active torsions:
REMARK  status: ('A' for Active; 'I' for Inactive)
REMARK    1  A    between atoms: C_1  and  C_6
REMARK    2  A    between atoms: C_10  and  C_13
REMARK                            x       y       z     vdW  Elec       q    Type
REMARK                         _______ _______ _______ _____ _____    ______ ____
ROOT
ATOM      1  C   UNL A   1     -28.022  -1.590  30.088  0.00  0.00    +0.115 C 
ATOM      2  N   UNL A   1     -27.023  -2.357  30.374  0.00  0.00    -0.128 NA
ATOM      3  C   UNL A   1     -29.328  -2.472  30.194  0.00  0.00    +0.111 C 
ATOM      4  C   UNL A   1     -28.071  -0.576  31.392  0.00  0.00    +0.045 C 
ATOM      5  N   UNL A   1     -29.497  -2.966  31.433  0.00  0.00    -0.216 NA
ATOM      6  C   UNL A   1     -29.590  -2.449  32.294  0.00  0.00    +0.089 C 
ATOM      7  C   UNL A   1     -29.064  -1.026  32.376  0.00  0.00    +0.025 C 
ENDROOT
BRANCH   1   8
ATOM      8  C   UNL A   1     -28.016  -0.814  28.878  0.00  0.00    -0.005 A 
ATOM      9  C   UNL A   1     -27.064  -0.119  28.608  0.00  0.00    -0.003 A 
ATOM     10  C   UNL A   1     -26.972   0.714  27.506  0.00  0.00    -0.000 A 
ATOM     11  C   UNL A   1     -28.105   0.774  26.642  0.00  0.00    -0.000 A 
ATOM     12  C   UNL A   1     -29.201   0.104  27.053  0.00  0.00    -0.000 A 
ATOM     13  C   UNL A   1     -29.164  -0.639  28.148  0.00  0.00    -0.003 A 
ENDBRANCH   1   8
BRANCH   4  14
ATOM     14  C   UNL A   1     -27.181   0.406  31.486  0.00  0.00    -0.029 C 
ATOM     15  C   UNL A   1     -25.906   0.202  31.987  0.00  0.00    -0.030 C 
ATOM     16  C   UNL A   1     -24.977   1.207  32.144  0.00  0.00    +0.030 C 
ENDBRANCH   4  14
TORSDOF 2
