MODEL 4032
MODEL 1
REMARK VINA RESULT:    -4.341      0.000      0.000
REMARK INTER + INTRA:          -4.341
REMARK INTER:                  -4.341
REMARK INTRA:                   0.000
REMARK UNBOUND:                 0.000
REMARK  Name = No_4032-gen_results/8p0m/2024-11-26-14-13-15/
REMARK  0 active torsions:
REMARK  status: ('A' for Active; 'I' for Inactive)
REMARK                            x       y       z     vdW  Elec       q    Type
REMARK                         _______ _______ _______ _____ _____    ______ ____
ROOT
ATOM      1  F   UNL A   1     -23.455  -5.068  28.144  0.00  0.00    -0.204 F 
ATOM      2  C   UNL A   1     -24.369  -4.484  28.737  0.00  0.00    +0.140 A 
ATOM      3  C   UNL A   1     -25.408  -5.184  29.224  0.00  0.00    +0.030 A 
ATOM      4  C   UNL A   1     -24.302  -3.010  28.902  0.00  0.00    +0.030 A 
ATOM      5  C   UNL A   1     -25.410  -2.321  29.490  0.00  0.00    +0.002 A 
ATOM      6  C   UNL A   1     -26.532  -4.453  29.847  0.00  0.00    +0.002 A 
ATOM      7  C   UNL A   1     -26.524  -3.060  29.974  0.00  0.00    +0.000 A 
ENDROOT
TORSDOF 0
ENDMDL
ENDMDL
