MODEL 4033
MODEL 1
REMARK VINA RESULT:    -5.305      0.000      0.000
REMARK INTER + INTRA:          -5.652
REMARK INTER:                  -5.615
REMARK INTRA:                  -0.037
REMARK UNBOUND:                -0.037
REMARK  Name = No_4033-gen_results/8p0m/2024-11-26-14-13-15/
REMARK  1 active torsions:
REMARK  status: ('A' for Active; 'I' for Inactive)
REMARK    1  A    between atoms: C_2  and  C_5
REMARK                            x       y       z     vdW  Elec       q    Type
REMARK                         _______ _______ _______ _____ _____    ______ ____
ROOT
ATOM      1  C   UNL A   1     -24.109  -3.685  28.791  0.00  0.00    +0.036 A 
ATOM      2  C   UNL A   1     -24.426  -2.758  29.179  0.00  0.00    +0.082 A 
ATOM      3  C   UNL A   1     -25.027  -4.854  29.069  0.00  0.00    +0.140 A 
ATOM      4  C   UNL A   1     -26.277  -4.622  29.680  0.00  0.00    +0.030 A 
ATOM      5  C   UNL A   1     -26.561  -3.329  30.057  0.00  0.00    +0.003 A 
ATOM      6  C   UNL A   1     -25.678  -2.310  29.783  0.00  0.00    +0.007 A 
ATOM      7  F   UNL A   1     -24.787  -6.107  28.706  0.00  0.00    -0.204 F 
ENDROOT
BRANCH   2   8
ATOM      8  C   UNL A   1     -23.510  -1.546  28.888  0.00  0.00    +0.388 C 
ATOM      9  O   UNL A   1     -23.985  -0.574  28.162  0.00  0.00    -0.241 OA
ATOM     10  O   UNL A   1     -22.249  -1.678  29.044  0.00  0.00    -0.241 OA
ENDBRANCH   2   8
TORSDOF 1
ENDMDL
ENDMDL
