MODEL 4034
MODEL 1
REMARK VINA RESULT:    -6.981      0.000      0.000
REMARK INTER + INTRA:         -10.266
REMARK INTER:                  -9.021
REMARK INTRA:                  -1.244
REMARK UNBOUND:                -1.244
REMARK  Name = No_4034-gen_results/8p0m/2024-11-26-14-13-15/
REMARK  5 active torsions:
REMARK  status: ('A' for Active; 'I' for Inactive)
REMARK    1  A    between atoms: C_4  and  C_27
REMARK    2  A    between atoms: C_7  and  O_17
REMARK    3  A    between atoms: C_9  and  C_12
REMARK    4  A    between atoms: O_17  and  C_18
REMARK    5  A    between atoms: C_19  and  C_21
REMARK                            x       y       z     vdW  Elec       q    Type
REMARK                         _______ _______ _______ _____ _____    ______ ____
ROOT
ATOM      1 CL   UNL A   1       3.899 -17.630  27.207  0.00  0.00    -0.079 Cl
ATOM      2  C   UNL A   1       2.815 -18.451  27.129  0.00  0.00    +0.092 A 
ATOM      3  C   UNL A   1       2.405 -18.944  25.929  0.00  0.00    +0.021 A 
ATOM      4  C   UNL A   1       1.305 -19.903  25.775  0.00  0.00    +0.081 A 
ATOM      5  C   UNL A   1       0.713 -20.380  26.987  0.00  0.00    +0.010 A 
ATOM      6  C   UNL A   1       1.198 -19.952  28.182  0.00  0.00    +0.036 A 
ATOM      7  C   UNL A   1       2.220 -19.058  28.275  0.00  0.00    +0.155 A 
ATOM      8  C   UNL A   1      -0.377 -21.366  26.858  0.00  0.00    +0.008 A 
ATOM      9  C   UNL A   1      -0.690 -22.078  27.904  0.00  0.00    +0.088 A 
ATOM     10  C   UNL A   1      -0.139 -21.685  29.241  0.00  0.00    +0.008 A 
ATOM     11  C   UNL A   1       0.801 -20.767  29.317  0.00  0.00    +0.003 A 
ENDROOT
BRANCH   9  12
ATOM     12  C   UNL A   1      -1.789 -23.125  27.964  0.00  0.00    +0.371 C 
ATOM     13  N   UNL A   1      -2.390 -23.658  26.871  0.00  0.00    -0.051 NA
ATOM     14  N   UNL A   1      -2.474 -23.303  29.119  0.00  0.00    -0.031 NA
ATOM     15  C   UNL A   1      -3.469 -24.226  28.815  0.00  0.00    +0.267 C 
ATOM     16  C   UNL A   1      -3.434 -24.388  27.435  0.00  0.00    +0.340 C 
ENDBRANCH   9  12
BRANCH   4  17
ATOM     17  C   UNL A   1       0.805 -20.296  24.448  0.00  0.00    +0.388 C 
ATOM     18  O   UNL A   1       1.047 -21.342  23.908  0.00  0.00    -0.241 OA
ATOM     19  O   UNL A   1      -0.198 -19.466  24.015  0.00  0.00    -0.241 OA
ENDBRANCH   4  17
BRANCH   7  20
ATOM     20  O   UNL A   1       2.701 -18.717  29.438  0.00  0.00    -0.457 OA
BRANCH  20  21
ATOM     21  C   UNL A   1       2.150 -17.682  30.173  0.00  0.00    +0.123 C 
ATOM     22  C   UNL A   1       1.032 -17.049  29.755  0.00  0.00    +0.033 C 
ATOM     23  C   UNL A   1       2.751 -17.427  31.442  0.00  0.00    +0.072 C 
BRANCH  22  24
ATOM     24  C   UNL A   1       0.444 -16.182  29.128  0.00  0.00    +0.003 A 
ATOM     25  C   UNL A   1      -0.694 -15.304  29.468  0.00  0.00    +0.000 A 
ATOM     26  C   UNL A   1      -1.179 -14.276  28.700  0.00  0.00    +0.000 A 
ATOM     27  C   UNL A   1      -0.611 -13.956  27.509  0.00  0.00    +0.000 A 
ATOM     28  C   UNL A   1       0.920 -15.582  27.838  0.00  0.00    +0.000 A 
ATOM     29  C   UNL A   1       0.498 -14.575  27.074  0.00  0.00    +0.000 A 
ENDBRANCH  22  24
ENDBRANCH  20  21
ENDBRANCH   7  20
TORSDOF 5
ENDMDL
ENDMDL
