REMARK  Name = No_4034-gen_results/8p0m/2024-11-26-14-13-15/
REMARK  5 active torsions:
REMARK  status: ('A' for Active; 'I' for Inactive)
REMARK    1  A    between atoms: C_4  and  C_27
REMARK    2  A    between atoms: C_7  and  O_17
REMARK    3  A    between atoms: C_9  and  C_12
REMARK    4  A    between atoms: O_17  and  C_18
REMARK    5  A    between atoms: C_19  and  C_21
REMARK                            x       y       z     vdW  Elec       q    Type
REMARK                         _______ _______ _______ _____ _____    ______ ____
ROOT
ATOM      1 CL   UNL A   1     -28.149  -0.820  28.908  0.00  0.00    -0.079 Cl
ATOM      2  C   UNL A   1     -27.834   0.496  29.060  0.00  0.00    +0.092 A 
ATOM      3  C   UNL A   1     -27.602   1.013  30.297  0.00  0.00    +0.021 A 
ATOM      4  C   UNL A   1     -27.170   2.396  30.534  0.00  0.00    +0.081 A 
ATOM      5  C   UNL A   1     -26.913   3.183  29.368  0.00  0.00    +0.010 A 
ATOM      6  C   UNL A   1     -27.055   2.622  28.138  0.00  0.00    +0.036 A 
ATOM      7  C   UNL A   1     -27.462   1.335  27.967  0.00  0.00    +0.155 A 
ATOM      8  C   UNL A   1     -26.451   4.568  29.581  0.00  0.00    +0.008 A 
ATOM      9  C   UNL A   1     -25.875   5.185  28.588  0.00  0.00    +0.088 A 
ATOM     10  C   UNL A   1     -25.953   4.584  27.217  0.00  0.00    +0.008 A 
ATOM     11  C   UNL A   1     -26.415   3.361  27.064  0.00  0.00    +0.003 A 
ENDROOT
BRANCH   9  12
ATOM     12  C   UNL A   1     -25.352   6.611  28.617  0.00  0.00    +0.371 C 
ATOM     13  N   UNL A   1     -24.949   7.294  27.517  0.00  0.00    -0.051 NA
ATOM     14  N   UNL A   1     -24.918   7.135  29.788  0.00  0.00    -0.031 NA
ATOM     15  C   UNL A   1     -24.402   8.384  29.461  0.00  0.00    +0.267 C 
ATOM     16  C   UNL A   1     -24.382   8.439  28.072  0.00  0.00    +0.340 C 
ENDBRANCH   9  12
BRANCH   4  17
ATOM     17  C   UNL A   1     -27.072   2.950  31.894  0.00  0.00    +0.388 C 
ATOM     18  O   UNL A   1     -28.007   3.330  32.547  0.00  0.00    -0.241 OA
ATOM     19  O   UNL A   1     -25.839   2.722  32.450  0.00  0.00    -0.241 OA
ENDBRANCH   4  17
BRANCH   7  20
ATOM     20  O   UNL A   1     -27.528   0.811  26.775  0.00  0.00    -0.457 OA
BRANCH  20  21
ATOM     21  C   UNL A   1     -26.421   0.237  26.175  0.00  0.00    +0.123 C 
ATOM     22  C   UNL A   1     -25.327  -0.089  26.899  0.00  0.00    +0.033 C 
ATOM     23  C   UNL A   1     -26.562  -0.105  24.797  0.00  0.00    +0.072 C 
BRANCH  22  24
ATOM     24  C   UNL A   1     -24.241   0.159  27.399  0.00  0.00    +0.003 A 
ATOM     25  C   UNL A   1     -23.376   1.355  27.360  0.00  0.00    +0.000 A 
ATOM     26  C   UNL A   1     -22.223   1.542  28.080  0.00  0.00    +0.000 A 
ATOM     27  C   UNL A   1     -21.769   0.597  28.943  0.00  0.00    +0.000 A 
ATOM     28  C   UNL A   1     -23.571  -0.671  28.454  0.00  0.00    +0.000 A 
ATOM     29  C   UNL A   1     -22.472  -0.519  29.192  0.00  0.00    +0.000 A 
ENDBRANCH  22  24
ENDBRANCH  20  21
ENDBRANCH   7  20
TORSDOF 5
