REMARK  Name = No_4035-gen_results/8p0m/2024-11-26-14-13-15/
REMARK  3 active torsions:
REMARK  status: ('A' for Active; 'I' for Inactive)
REMARK    1  A    between atoms: C_10  and  C_11
REMARK    2  A    between atoms: N_12  and  C_23
REMARK    3  A    between atoms: C_23  and  C_24
REMARK                            x       y       z     vdW  Elec       q    Type
REMARK                         _______ _______ _______ _____ _____    ______ ____
ROOT
ATOM      1  C   UNL A   1     -28.016  -0.814  28.878  0.00  0.00    +0.033 A 
ATOM      2  C   UNL A   1     -28.469  -0.785  29.829  0.00  0.00    +0.140 A 
ATOM      3  C   UNL A   1     -27.087   0.290  28.638  0.00  0.00    +0.038 A 
ATOM      4  C   UNL A   1     -26.252   0.411  27.422  0.00  0.00    +0.195 C 
ATOM      5  C   UNL A   1     -28.391   0.104  30.980  0.00  0.00    +0.029 A 
ATOM      6  C   UNL A   1     -27.533   1.167  30.787  0.00  0.00    -0.001 A 
ATOM      7  C   UNL A   1     -26.828   1.256  29.645  0.00  0.00    -0.006 A 
ATOM      8  C   UNL A   1     -25.645   1.665  27.222  0.00  0.00    +0.036 A 
ATOM      9  C   UNL A   1     -25.391   2.560  28.229  0.00  0.00    -0.007 A 
ATOM     10  C   UNL A   1     -26.098   2.444  29.409  0.00  0.00    +0.122 C 
ATOM     11  C   UNL A   1     -24.843   1.738  25.961  0.00  0.00    +0.003 A 
ATOM     12  C   UNL A   1     -23.732   2.639  25.997  0.00  0.00    +0.000 A 
ATOM     13  C   UNL A   1     -23.714   3.630  27.040  0.00  0.00    -0.000 A 
ATOM     14  C   UNL A   1     -24.462   3.598  28.085  0.00  0.00    -0.003 A 
ATOM     15  O   UNL A   1     -26.382  -0.454  26.546  0.00  0.00    -0.287 OA
ATOM     16  F   UNL A   1     -29.334  -1.914  30.128  0.00  0.00    -0.204 F 
ENDROOT
BRANCH  10  17
ATOM     17  C   UNL A   1     -25.860   3.511  30.422  0.00  0.00    +0.240 C 
ATOM     18  N   UNL A   1     -26.161   4.784  30.156  0.00  0.00    -0.216 N 
ATOM     19  C   UNL A   1     -25.860   5.761  30.924  0.00  0.00    +0.289 C 
ATOM     20 BR   UNL A   1     -25.940   7.481  30.359  0.00  0.00    +0.015 Br
ATOM     21  O   UNL A   1     -25.433   5.638  32.149  0.00  0.00    -0.262 OA
ATOM     22  O   UNL A   1     -25.585   3.122  31.603  0.00  0.00    -0.274 OA
BRANCH  18  23
ATOM     23  C   UNL A   1     -26.866   5.085  28.873  0.00  0.00    +0.128 C 
BRANCH  23  24
ATOM     24  C   UNL A   1     -28.123   5.735  29.059  0.00  0.00    -0.002 A 
ATOM     25  C   UNL A   1     -29.021   5.093  28.785  0.00  0.00    -0.003 A 
ATOM     26  C   UNL A   1     -30.406   5.605  28.961  0.00  0.00    -0.000 A 
ATOM     27  C   UNL A   1     -30.527   6.941  29.398  0.00  0.00    -0.000 A 
ATOM     28  C   UNL A   1     -29.443   7.672  29.655  0.00  0.00    -0.000 A 
ATOM     29  C   UNL A   1     -28.184   7.097  29.513  0.00  0.00    -0.003 A 
ENDBRANCH  23  24
ENDBRANCH  18  23
ENDBRANCH  10  17
TORSDOF 3
