REMARK  Name = No_4036-gen_results/8p0m/2024-11-26-14-13-15/
REMARK  6 active torsions:
REMARK  status: ('A' for Active; 'I' for Inactive)
REMARK    1  A    between atoms: C_3  and  C_11
REMARK    2  A    between atoms: C_5  and  C_6
REMARK    3  A    between atoms: C_8  and  C_9
REMARK    4  A    between atoms: C_11  and  C_12
REMARK    5  A    between atoms: C_13  and  C_14
REMARK    6  A    between atoms: C_15  and  C_16
REMARK                            x       y       z     vdW  Elec       q    Type
REMARK                         _______ _______ _______ _____ _____    ______ ____
ROOT
ATOM      1  C   UNL A   1     -28.016  -0.814  28.878  0.00  0.00    -0.004 A 
ATOM      2  C   UNL A   1     -28.469  -0.785  29.829  0.00  0.00    -0.000 A 
ATOM      3  C   UNL A   1     -28.196   0.348  28.055  0.00  0.00    -0.018 A 
ATOM      4  C   UNL A   1     -29.019   1.350  28.378  0.00  0.00    -0.004 A 
ATOM      5  C   UNL A   1     -29.625   1.268  29.601  0.00  0.00    -0.000 A 
ATOM      6  C   UNL A   1     -29.340   0.148  30.409  0.00  0.00    -0.000 A 
ENDROOT
BRANCH   5   7
ATOM      7  C   UNL A   1     -30.524   2.315  30.065  0.00  0.00    -0.000 C 
ATOM      8  C   UNL A   1     -30.132   2.993  31.119  0.00  0.00    -0.000 C 
BRANCH   8   9
ATOM      9  C   UNL A   1     -28.862   2.808  31.789  0.00  0.00    -0.000 C 
ATOM     10  C   UNL A   1     -28.505   3.647  32.886  0.00  0.00    +0.000 C 
ENDBRANCH   8   9
ENDBRANCH   5   7
BRANCH   3  11
ATOM     11  C   UNL A   1     -27.450   0.326  26.674  0.00  0.00    +0.052 C 
BRANCH  11  12
ATOM     12  C   UNL A   1     -26.443   1.349  26.463  0.00  0.00    -0.021 C 
ATOM     13  C   UNL A   1     -25.344   1.424  27.373  0.00  0.00    -0.004 C 
BRANCH  13  14
ATOM     14  C   UNL A   1     -24.367   2.407  27.140  0.00  0.00    -0.000 C 
ATOM     15  C   UNL A   1     -23.197   2.472  27.935  0.00  0.00    -0.000 C 
BRANCH  15  16
ATOM     16  C   UNL A   1     -22.873   1.310  28.759  0.00  0.00    -0.000 C 
ATOM     17  C   UNL A   1     -23.790   0.293  28.844  0.00  0.00    -0.000 C 
ENDBRANCH  15  16
ENDBRANCH  13  14
ENDBRANCH  11  12
ENDBRANCH   3  11
TORSDOF 6
