MODEL 4036
MODEL 1
REMARK VINA RESULT:    -5.922      0.000      0.000
REMARK INTER + INTRA:          -8.862
REMARK INTER:                  -8.000
REMARK INTRA:                  -0.862
REMARK UNBOUND:                -0.862
REMARK  Name = No_4036-gen_results/8p0m/2024-11-26-14-13-15/
REMARK  6 active torsions:
REMARK  status: ('A' for Active; 'I' for Inactive)
REMARK    1  A    between atoms: C_3  and  C_11
REMARK    2  A    between atoms: C_5  and  C_6
REMARK    3  A    between atoms: C_8  and  C_9
REMARK    4  A    between atoms: C_11  and  C_12
REMARK    5  A    between atoms: C_13  and  C_14
REMARK    6  A    between atoms: C_15  and  C_16
REMARK                            x       y       z     vdW  Elec       q    Type
REMARK                         _______ _______ _______ _____ _____    ______ ____
ROOT
ATOM      1  C   UNL A   1     -11.282  -1.996  37.443  0.00  0.00    -0.004 A 
ATOM      2  C   UNL A   1     -11.853  -2.622  38.070  0.00  0.00    -0.000 A 
ATOM      3  C   UNL A   1     -10.569  -0.932  38.091  0.00  0.00    -0.018 A 
ATOM      4  C   UNL A   1     -10.731  -0.625  39.381  0.00  0.00    -0.004 A 
ATOM      5  C   UNL A   1     -11.551  -1.447  40.103  0.00  0.00    -0.000 A 
ATOM      6  C   UNL A   1     -12.154  -2.534  39.437  0.00  0.00    -0.000 A 
ENDROOT
BRANCH   5   7
ATOM      7  C   UNL A   1     -11.781  -1.220  41.522  0.00  0.00    -0.000 C 
ATOM      8  C   UNL A   1     -11.002  -1.876  42.350  0.00  0.00    -0.000 C 
BRANCH   8   9
ATOM      9  C   UNL A   1      -9.913  -2.740  41.943  0.00  0.00    -0.000 C 
ATOM     10  C   UNL A   1      -8.566  -2.278  42.025  0.00  0.00    +0.000 C 
ENDBRANCH   8   9
ENDBRANCH   5   7
BRANCH   3  11
ATOM     11  C   UNL A   1      -9.659  -0.057  37.158  0.00  0.00    +0.052 C 
BRANCH  11  12
ATOM     12  C   UNL A   1     -10.256   0.411  35.920  0.00  0.00    -0.021 C 
ATOM     13  C   UNL A   1     -11.429   1.222  35.992  0.00  0.00    -0.004 C 
BRANCH  13  14
ATOM     14  C   UNL A   1     -11.980   1.684  34.784  0.00  0.00    -0.000 C 
ATOM     15  C   UNL A   1     -13.140   2.496  34.778  0.00  0.00    -0.000 C 
BRANCH  15  16
ATOM     16  C   UNL A   1     -13.541   3.113  36.039  0.00  0.00    -0.000 C 
ATOM     17  C   UNL A   1     -14.881   3.243  36.307  0.00  0.00    -0.000 C 
ENDBRANCH  15  16
ENDBRANCH  13  14
ENDBRANCH  11  12
ENDBRANCH   3  11
TORSDOF 6
ENDMDL
ENDMDL
