REMARK  Name = No_4037-gen_results/8p0m/2024-11-26-14-13-15/
REMARK  3 active torsions:
REMARK  status: ('A' for Active; 'I' for Inactive)
REMARK    1  A    between atoms: C_3  and  C_15
REMARK    2  A    between atoms: C_4  and  C_7
REMARK    3  A    between atoms: C_8  and  C_16
REMARK                            x       y       z     vdW  Elec       q    Type
REMARK                         _______ _______ _______ _____ _____    ______ ____
ROOT
ATOM      1  C   UNL A   1     -28.016  -0.814  28.878  0.00  0.00    -0.003 C 
ATOM      2  C   UNL A   1     -28.469  -0.785  29.829  0.00  0.00    -0.002 C 
ATOM      3  C   UNL A   1     -26.504  -0.778  28.877  0.00  0.00    -0.006 C 
ATOM      4  C   UNL A   1     -25.810  -0.853  30.103  0.00  0.00    +0.118 C 
ATOM      5  C   UNL A   1     -27.991  -0.892  31.226  0.00  0.00    +0.008 C 
ATOM      6  C   UNL A   1     -26.604  -0.868  31.265  0.00  0.00    +0.192 C 
ATOM      7 CL   UNL A   1     -25.695  -1.875  30.079  0.00  0.00    -0.109 Cl
ATOM      8  O   UNL A   1     -26.175  -0.866  32.604  0.00  0.00    -0.217 OA
ENDROOT
BRANCH   4   9
ATOM      9  C   UNL A   1     -24.389  -0.805  30.164  0.00  0.00    +0.029 C 
ATOM     10  C   UNL A   1     -23.817   0.476  29.912  0.00  0.00    +0.105 C 
ATOM     11  C   UNL A   1     -22.501   0.545  29.410  0.00  0.00    +0.011 C 
ATOM     12  C   UNL A   1     -21.770  -0.652  29.213  0.00  0.00    +0.001 C 
ATOM     13  C   UNL A   1     -23.681  -1.359  31.325  0.00  0.00    +0.002 C 
ATOM     14  C   UNL A   1     -23.909  -1.790  28.973  0.00  0.00    +0.002 C 
ATOM     15  C   UNL A   1     -22.985  -1.667  28.550  0.00  0.00    +0.000 C 
BRANCH  10  16
ATOM     16  C   UNL A   1     -24.410   1.730  30.406  0.00  0.00    +0.364 C 
ATOM     17  O   UNL A   1     -24.790   2.598  29.530  0.00  0.00    -0.246 OA
ATOM     18  O   UNL A   1     -24.687   1.902  31.678  0.00  0.00    -0.246 OA
ENDBRANCH  10  16
ENDBRANCH   4   9
BRANCH   3  19
ATOM     19  C   UNL A   1     -25.863  -0.412  27.631  0.00  0.00    -0.003 A 
ATOM     20  C   UNL A   1     -26.440   0.633  26.862  0.00  0.00    -0.000 A 
ATOM     21  C   UNL A   1     -25.870   1.030  25.659  0.00  0.00    -0.000 A 
ATOM     22  C   UNL A   1     -24.612   0.410  25.352  0.00  0.00    -0.000 A 
ATOM     23  C   UNL A   1     -24.698  -0.780  26.995  0.00  0.00    -0.000 A 
ATOM     24  C   UNL A   1     -24.116  -0.317  25.908  0.00  0.00    -0.000 A 
ENDBRANCH   3  19
TORSDOF 3
