MODEL 4037
MODEL 1
REMARK VINA RESULT:    -7.600      0.000      0.000
REMARK INTER + INTRA:          -8.240
REMARK INTER:                  -8.932
REMARK INTRA:                   0.692
REMARK UNBOUND:                 0.692
REMARK  Name = No_4037-gen_results/8p0m/2024-11-26-14-13-15/
REMARK  3 active torsions:
REMARK  status: ('A' for Active; 'I' for Inactive)
REMARK    1  A    between atoms: C_3  and  C_15
REMARK    2  A    between atoms: C_4  and  C_7
REMARK    3  A    between atoms: C_8  and  C_16
REMARK                            x       y       z     vdW  Elec       q    Type
REMARK                         _______ _______ _______ _____ _____    ______ ____
ROOT
ATOM      1  C   UNL A   1     -23.888  -3.410  28.649  0.00  0.00    -0.003 C 
ATOM      2  C   UNL A   1     -24.643  -4.135  28.773  0.00  0.00    -0.002 C 
ATOM      3  C   UNL A   1     -24.196  -2.046  29.226  0.00  0.00    -0.006 C 
ATOM      4  C   UNL A   1     -25.365  -1.869  29.995  0.00  0.00    +0.118 C 
ATOM      5  C   UNL A   1     -25.906  -4.218  29.541  0.00  0.00    +0.008 C 
ATOM      6  C   UNL A   1     -26.219  -2.984  30.091  0.00  0.00    +0.192 C 
ATOM      7 CL   UNL A   1     -24.908  -2.047  30.898  0.00  0.00    -0.109 Cl
ATOM      8  O   UNL A   1     -27.471  -3.060  30.727  0.00  0.00    -0.217 OA
ENDROOT
BRANCH   4   9
ATOM      9  C   UNL A   1     -25.715  -0.604  30.547  0.00  0.00    +0.029 C 
ATOM     10  C   UNL A   1     -26.183   0.357  29.604  0.00  0.00    +0.105 C 
ATOM     11  C   UNL A   1     -26.031   1.728  29.900  0.00  0.00    +0.011 C 
ATOM     12  C   UNL A   1     -25.461   2.111  31.139  0.00  0.00    +0.001 C 
ATOM     13  C   UNL A   1     -26.614  -0.528  31.705  0.00  0.00    +0.002 C 
ATOM     14  C   UNL A   1     -24.326  -0.043  31.159  0.00  0.00    +0.002 C 
ATOM     15  C   UNL A   1     -24.191   0.965  31.279  0.00  0.00    +0.000 C 
BRANCH  10  16
ATOM     16  C   UNL A   1     -27.063   0.011  28.476  0.00  0.00    +0.364 C 
ATOM     17  O   UNL A   1     -28.263  -0.377  28.750  0.00  0.00    -0.246 OA
ATOM     18  O   UNL A   1     -26.703   0.233  27.233  0.00  0.00    -0.246 OA
ENDBRANCH  10  16
ENDBRANCH   4   9
BRANCH   3  19
ATOM     19  C   UNL A   1     -23.397  -0.940  28.742  0.00  0.00    -0.003 A 
ATOM     20  C   UNL A   1     -22.021  -0.903  29.090  0.00  0.00    -0.000 A 
ATOM     21  C   UNL A   1     -21.203   0.132  28.654  0.00  0.00    -0.000 A 
ATOM     22  C   UNL A   1     -21.822   1.044  27.733  0.00  0.00    -0.000 A 
ATOM     23  C   UNL A   1     -23.622   0.118  27.888  0.00  0.00    -0.000 A 
ATOM     24  C   UNL A   1     -22.807   1.030  27.399  0.00  0.00    -0.000 A 
ENDBRANCH   3  19
TORSDOF 3
ENDMDL
ENDMDL
