MODEL 4038
MODEL 1
REMARK VINA RESULT:    -5.765      0.000      0.000
REMARK INTER + INTRA:          -6.319
REMARK INTER:                  -6.102
REMARK INTRA:                  -0.216
REMARK UNBOUND:                -0.216
REMARK  Name = No_4038-gen_results/8p0m/2024-11-26-14-13-15/
REMARK  1 active torsions:
REMARK  status: ('A' for Active; 'I' for Inactive)
REMARK    1  A    between atoms: C_4  and  C_7
REMARK                            x       y       z     vdW  Elec       q    Type
REMARK                         _______ _______ _______ _____ _____    ______ ____
ROOT
ATOM      1  C   UNL A   1     -23.977   0.343  27.601  0.00  0.00    +0.011 A 
ATOM      2  C   UNL A   1     -22.998   0.505  27.956  0.00  0.00    +0.058 A 
ATOM      3  C   UNL A   1     -24.606  -0.938  27.960  0.00  0.00    +0.001 A 
ATOM      4  C   UNL A   1     -23.960  -1.835  28.859  0.00  0.00    -0.004 A 
ATOM      5  C   UNL A   1     -22.143  -0.223  28.932  0.00  0.00    +0.011 A 
ATOM      6  C   UNL A   1     -22.688  -1.423  29.282  0.00  0.00    +0.001 A 
ATOM      7 CL   UNL A   1     -22.108   2.094  27.546  0.00  0.00    -0.082 Cl
ENDROOT
BRANCH   4   8
ATOM      8  C   UNL A   1     -24.529  -3.083  29.248  0.00  0.00    -0.026 C 
ATOM      9  C   UNL A   1     -24.431  -4.158  28.574  0.00  0.00    -0.030 C 
ATOM     10  C   UNL A   1     -24.833  -5.469  29.093  0.00  0.00    +0.030 C 
ATOM     11  C   UNL A   1     -25.917  -2.827  29.775  0.00  0.00    +0.031 C 
ENDBRANCH   4   8
TORSDOF 1
ENDMDL
ENDMDL
