REMARK  Name = No_4039-gen_results/8p0m/2024-11-26-14-13-15/
REMARK  5 active torsions:
REMARK  status: ('A' for Active; 'I' for Inactive)
REMARK    1  A    between atoms: C_4  and  C_7
REMARK    2  A    between atoms: C_7  and  C_8
REMARK    3  A    between atoms: C_8  and  C_9
REMARK    4  A    between atoms: C_8  and  C_11
REMARK    5  A    between atoms: C_11  and  C_12
REMARK                            x       y       z     vdW  Elec       q    Type
REMARK                         _______ _______ _______ _____ _____    ______ ____
ROOT
ATOM      1  C   UNL A   1     -23.692   0.119  29.919  0.00  0.00    +0.029 C 
ENDROOT
BRANCH   1   2
ATOM      2  C   UNL A   1     -22.394   0.182  29.348  0.00  0.00    -0.003 A 
ATOM      3  C   UNL A   1     -21.768   1.387  29.059  0.00  0.00    -0.001 A 
ATOM      4  C   UNL A   1     -20.793   1.304  28.010  0.00  0.00    +0.020 A 
ATOM      5  C   UNL A   1     -21.661  -0.968  29.099  0.00  0.00    +0.095 A 
ATOM      6  N   UNL A   1     -20.482  -0.952  28.424  0.00  0.00    -0.243 NA
ATOM      7  C   UNL A   1     -20.061   0.235  27.939  0.00  0.00    +0.099 A 
ENDBRANCH   1   2
BRANCH   1   8
ATOM      8  C   UNL A   1     -24.366  -1.113  30.048  0.00  0.00    +0.015 C 
BRANCH   8  12
ATOM      9  C   UNL A   1     -28.016  -0.814  28.878  0.00  0.00    +0.065 C 
ATOM     10  C   UNL A   1     -28.469  -0.785  29.829  0.00  0.00    +0.010 C 
ATOM     11  C   UNL A   1     -26.546  -0.876  28.850  0.00  0.00    +0.153 C 
ATOM     12  C   UNL A   1     -25.804  -1.032  30.057  0.00  0.00    +0.088 C 
ATOM     13  C   UNL A   1     -26.537  -1.039  31.217  0.00  0.00    +0.159 C 
ATOM     14  C   UNL A   1     -27.884  -0.953  31.186  0.00  0.00    +0.034 C 
ATOM     15  O   UNL A   1     -26.061  -1.885  32.166  0.00  0.00    -0.223 OA
ATOM     16  O   UNL A   1     -25.834  -0.845  27.694  0.00  0.00    -0.296 OA
ENDBRANCH   8  12
ENDBRANCH   1   8
BRANCH   1  17
ATOM     17  C   UNL A   1     -24.218   1.369  30.436  0.00  0.00    +0.030 C 
BRANCH  17  18
ATOM     18  C   UNL A   1     -25.466   1.389  31.118  0.00  0.00    -0.026 A 
ATOM     19  C   UNL A   1     -25.823   2.861  31.516  0.00  0.00    -0.005 A 
ATOM     20  C   UNL A   1     -26.630   3.022  32.532  0.00  0.00    -0.000 A 
ATOM     21  C   UNL A   1     -27.173   1.902  33.225  0.00  0.00    -0.000 A 
ATOM     22  C   UNL A   1     -26.570   0.723  33.136  0.00  0.00    -0.005 A 
ATOM     23  C   UNL A   1     -25.670   0.526  32.161  0.00  0.00    -0.026 A 
ATOM     24  C   UNL A   1     -24.385   0.048  32.647  0.00  0.00    +0.031 C 
ENDBRANCH  17  18
ENDBRANCH   1  17
TORSDOF 5
