MODEL 4039
MODEL 1
REMARK VINA RESULT:    -7.292      0.000      0.000
REMARK INTER + INTRA:         -11.278
REMARK INTER:                  -9.423
REMARK INTRA:                  -1.855
REMARK UNBOUND:                -1.855
REMARK  Name = No_4039-gen_results/8p0m/2024-11-26-14-13-15/
REMARK  5 active torsions:
REMARK  status: ('A' for Active; 'I' for Inactive)
REMARK    1  A    between atoms: C_4  and  C_7
REMARK    2  A    between atoms: C_7  and  C_8
REMARK    3  A    between atoms: C_8  and  C_9
REMARK    4  A    between atoms: C_8  and  C_11
REMARK    5  A    between atoms: C_11  and  C_12
REMARK                            x       y       z     vdW  Elec       q    Type
REMARK                         _______ _______ _______ _____ _____    ______ ____
ROOT
ATOM      1  C   UNL A   1     -23.421  -0.939  29.461  0.00  0.00    +0.029 C 
ENDROOT
BRANCH   1   2
ATOM      2  C   UNL A   1     -24.294  -2.055  29.377  0.00  0.00    -0.003 A 
ATOM      3  C   UNL A   1     -25.662  -1.946  29.591  0.00  0.00    -0.001 A 
ATOM      4  C   UNL A   1     -26.284  -3.158  30.038  0.00  0.00    +0.020 A 
ATOM      5  C   UNL A   1     -23.825  -3.310  29.022  0.00  0.00    +0.095 A 
ATOM      6  N   UNL A   1     -24.603  -4.423  29.073  0.00  0.00    -0.243 NA
ATOM      7  C   UNL A   1     -25.859  -4.281  29.546  0.00  0.00    +0.099 A 
ENDBRANCH   1   2
BRANCH   1   8
ATOM      8  C   UNL A   1     -22.842  -0.565  30.692  0.00  0.00    +0.015 C 
BRANCH   8  12
ATOM      9  C   UNL A   1     -24.995  -0.319  33.868  0.00  0.00    +0.065 C 
ATOM     10  C   UNL A   1     -25.495   0.578  33.632  0.00  0.00    +0.010 C 
ATOM     11  C   UNL A   1     -24.064  -0.840  32.854  0.00  0.00    +0.153 C 
ATOM     12  C   UNL A   1     -23.765  -0.080  31.686  0.00  0.00    +0.088 C 
ATOM     13  C   UNL A   1     -24.450   1.100  31.544  0.00  0.00    +0.159 C 
ATOM     14  C   UNL A   1     -25.313   1.519  32.494  0.00  0.00    +0.034 C 
ATOM     15  O   UNL A   1     -23.720   2.099  30.985  0.00  0.00    -0.223 OA
ATOM     16  O   UNL A   1     -23.410  -2.021  32.999  0.00  0.00    -0.296 OA
ENDBRANCH   8  12
ENDBRANCH   1   8
BRANCH   1  17
ATOM     17  C   UNL A   1     -23.101  -0.290  28.203  0.00  0.00    +0.030 C 
BRANCH  17  18
ATOM     18  C   UNL A   1     -23.893   0.796  27.740  0.00  0.00    -0.026 A 
ATOM     19  C   UNL A   1     -24.764   0.329  26.525  0.00  0.00    -0.005 A 
ATOM     20  C   UNL A   1     -25.158   1.253  25.687  0.00  0.00    -0.000 A 
ATOM     21  C   UNL A   1     -24.823   2.622  25.891  0.00  0.00    -0.000 A 
ATOM     22  C   UNL A   1     -23.792   2.935  26.666  0.00  0.00    -0.005 A 
ATOM     23  C   UNL A   1     -23.292   2.001  27.490  0.00  0.00    -0.026 A 
ATOM     24  C   UNL A   1     -21.860   1.801  27.337  0.00  0.00    +0.031 C 
ENDBRANCH  17  18
ENDBRANCH   1  17
TORSDOF 5
ENDMDL
ENDMDL
