MODEL 403
MODEL 1
REMARK VINA RESULT:    -6.300      0.000      0.000
REMARK INTER + INTRA:         -14.292
REMARK INTER:                  -9.983
REMARK INTRA:                  -4.310
REMARK UNBOUND:                -4.310
REMARK  Name = No_403-gen_results/8p0m/2024-11-26-14-13-15/
REMARK  10 active torsions:
REMARK  status: ('A' for Active; 'I' for Inactive)
REMARK    1  A    between atoms: C_2  and  C_6
REMARK    2  A    between atoms: C_5  and  C_29
REMARK    3  A    between atoms: C_6  and  N_8
REMARK    4  A    between atoms: C_6  and  C_9
REMARK    5  A    between atoms: N_8  and  C_11
REMARK    6  A    between atoms: C_9  and  C_18
REMARK    7  A    between atoms: C_12  and  C_25
REMARK    8  A    between atoms: C_26  and  C_27
REMARK    9  A    between atoms: C_27  and  C_32
REMARK   10  A    between atoms: C_33  and  C_34
REMARK                            x       y       z     vdW  Elec       q    Type
REMARK                         _______ _______ _______ _____ _____    ______ ____
ROOT
ATOM      1  C   UNL A   1     -10.760   1.385  37.511  0.00  0.00    +0.107 C 
ENDROOT
BRANCH   1   3
ATOM      2  C   UNL A   1     -12.771   2.431  37.245  0.00  0.00    +0.004 A 
ATOM      3  C   UNL A   1     -12.002   1.924  36.733  0.00  0.00    -0.003 A 
ATOM      4  C   UNL A   1     -13.893   2.853  36.499  0.00  0.00    +0.035 A 
ATOM      5  C   UNL A   1     -13.993   2.629  35.140  0.00  0.00    +0.013 A 
ATOM      6  C   UNL A   1     -12.941   1.950  34.548  0.00  0.00    +0.080 A 
ATOM      7  C   UNL A   1     -11.869   1.477  35.341  0.00  0.00    +0.004 A 
ATOM      8 BR   UNL A   1     -15.390   3.738  37.315  0.00  0.00    -0.049 Br
BRANCH   6   9
ATOM      9  C   UNL A   1     -12.999   1.631  33.068  0.00  0.00    +0.388 C 
ATOM     10  O   UNL A   1     -12.404   0.992  32.486  0.00  0.00    -0.241 OA
ATOM     11  O   UNL A   1     -14.003   2.424  32.498  0.00  0.00    -0.241 OA
ENDBRANCH   6   9
ENDBRANCH   1   3
BRANCH   1  12
ATOM     12  N   UNL A   1     -10.679   1.103  38.767  0.00  0.00    -0.253 N 
ATOM     13  C   UNL A   1     -10.032   2.176  39.693  0.00  0.00    +0.253 C 
ATOM     14  O   UNL A   1      -9.697   1.867  40.800  0.00  0.00    -0.270 OA
BRANCH  12  15
ATOM     15  C   UNL A   1     -10.932   0.033  39.544  0.00  0.00    +0.054 A 
ATOM     16  C   UNL A   1     -12.087  -0.384  39.839  0.00  0.00    +0.015 A 
ATOM     17  C   UNL A   1      -9.800  -0.735  39.916  0.00  0.00    +0.015 A 
ATOM     18  C   UNL A   1     -12.336  -1.499  40.617  0.00  0.00    +0.001 A 
ATOM     19  C   UNL A   1      -9.915  -1.824  40.779  0.00  0.00    +0.001 A 
ATOM     20  C   UNL A   1     -11.216  -2.220  41.131  0.00  0.00    +0.000 A 
ENDBRANCH  12  15
BRANCH  13  21
ATOM     21  C   UNL A   1      -9.849   3.487  39.162  0.00  0.00    +0.054 C 
ATOM     22  C   UNL A   1      -8.389   3.987  39.397  0.00  0.00    -0.017 C 
BRANCH  22  23
ATOM     23  C   UNL A   1      -7.660   4.205  38.175  0.00  0.00    +0.052 C 
BRANCH  23  24
ATOM     24  C   UNL A   1      -8.616   4.200  36.946  0.00  0.00    -0.021 C 
ATOM     25  C   UNL A   1      -8.557   4.082  35.806  0.00  0.00    -0.004 C 
BRANCH  25  26
ATOM     26  C   UNL A   1      -9.638   4.284  34.847  0.00  0.00    -0.000 C 
ATOM     27  C   UNL A   1     -10.651   5.028  35.401  0.00  0.00    -0.000 C 
ENDBRANCH  25  26
ENDBRANCH  23  24
ENDBRANCH  22  23
ENDBRANCH  13  21
ENDBRANCH   1  12
BRANCH   1  28
ATOM     28  C   UNL A   1     -10.095   0.144  36.843  0.00  0.00    +0.051 C 
BRANCH  28  29
ATOM     29  C   UNL A   1      -8.775   0.391  36.391  0.00  0.00    -0.020 A 
ATOM     30  C   UNL A   1      -8.559   0.397  35.004  0.00  0.00    -0.001 A 
ATOM     31  C   UNL A   1      -7.309   0.709  34.506  0.00  0.00    +0.042 A 
ATOM     32  C   UNL A   1      -7.737   0.696  37.223  0.00  0.00    -0.001 A 
ATOM     33  C   UNL A   1      -6.445   1.024  36.754  0.00  0.00    +0.042 A 
ATOM     34  C   UNL A   1      -6.241   1.019  35.377  0.00  0.00    +0.196 A 
ATOM     35  O   UNL A   1      -5.002   1.367  34.923  0.00  0.00    -0.287 OA
ENDBRANCH  28  29
ENDBRANCH   1  28
TORSDOF 10
ENDMDL
ENDMDL
