REMARK  Name = No_4040-gen_results/8p0m/2024-11-26-14-13-15/
REMARK  6 active torsions:
REMARK  status: ('A' for Active; 'I' for Inactive)
REMARK    1  A    between atoms: C_2  and  O_7
REMARK    2  A    between atoms: C_5  and  O_17
REMARK    3  A    between atoms: O_7  and  C_8
REMARK    4  A    between atoms: C_11  and  C_12
REMARK    5  A    between atoms: O_17  and  C_18
REMARK    6  A    between atoms: C_18  and  C_19
REMARK                            x       y       z     vdW  Elec       q    Type
REMARK                         _______ _______ _______ _____ _____    ______ ____
ROOT
ATOM      1  C   UNL A   1     -28.016  -0.814  28.878  0.00  0.00    +0.074 A 
ATOM      2  C   UNL A   1     -27.064  -0.119  28.608  0.00  0.00    +0.148 A 
ATOM      3  C   UNL A   1     -26.929   1.171  29.008  0.00  0.00    +0.038 A 
ATOM      4  C   UNL A   1     -27.956   1.741  29.784  0.00  0.00    +0.006 A 
ATOM      5  C   UNL A   1     -29.057  -0.327  29.747  0.00  0.00    +0.142 A 
ATOM      6  C   UNL A   1     -28.983   0.972  30.152  0.00  0.00    +0.037 A 
ENDROOT
BRANCH   2   7
ATOM      7  O   UNL A   1     -25.934  -0.380  27.830  0.00  0.00    -0.453 OA
BRANCH   7   8
ATOM      8  C   UNL A   1     -24.727  -0.532  28.517  0.00  0.00    +0.152 A 
ATOM      9  C   UNL A   1     -23.771   0.495  28.334  0.00  0.00    +0.038 A 
ATOM     10  C   UNL A   1     -22.486   0.288  28.938  0.00  0.00    +0.003 A 
ATOM     11  C   UNL A   1     -24.429  -1.688  29.158  0.00  0.00    +0.114 A 
ATOM     12  C   UNL A   1     -22.236  -0.931  29.579  0.00  0.00    +0.000 A 
ATOM     13  C   UNL A   1     -23.164  -1.888  29.726  0.00  0.00    +0.010 A 
BRANCH  11  14
ATOM     14  C   UNL A   1     -25.392  -2.758  29.345  0.00  0.00    +0.391 C 
ATOM     15  O   UNL A   1     -26.335  -2.696  30.190  0.00  0.00    -0.240 OA
ATOM     16  O   UNL A   1     -25.420  -3.833  28.470  0.00  0.00    -0.240 OA
ENDBRANCH  11  14
ENDBRANCH   7   8
ENDBRANCH   2   7
BRANCH   5  17
ATOM     17  O   UNL A   1     -30.092  -1.143  30.093  0.00  0.00    -0.470 OA
BRANCH  17  18
ATOM     18  C   UNL A   1     -29.842  -2.144  30.891  0.00  0.00    +0.232 C 
BRANCH  18  19
ATOM     19  C   UNL A   1     -30.357  -3.413  30.424  0.00  0.00    +0.021 A 
ATOM     20  C   UNL A   1     -29.607  -4.565  30.884  0.00  0.00    -0.001 A 
ATOM     21  C   UNL A   1     -30.050  -5.360  31.406  0.00  0.00    -0.000 A 
ATOM     22  C   UNL A   1     -31.408  -5.871  31.025  0.00  0.00    -0.000 A 
ATOM     23  C   UNL A   1     -32.168  -4.880  30.343  0.00  0.00    -0.000 A 
ATOM     24  C   UNL A   1     -31.584  -3.629  30.134  0.00  0.00    -0.001 A 
ENDBRANCH  18  19
ENDBRANCH  17  18
ENDBRANCH   5  17
TORSDOF 6
