MODEL 4040
MODEL 1
REMARK VINA RESULT:    -7.786      0.000      0.000
REMARK INTER + INTRA:         -11.523
REMARK INTER:                 -10.517
REMARK INTRA:                  -1.007
REMARK UNBOUND:                -1.007
REMARK  Name = No_4040-gen_results/8p0m/2024-11-26-14-13-15/
REMARK  6 active torsions:
REMARK  status: ('A' for Active; 'I' for Inactive)
REMARK    1  A    between atoms: C_2  and  O_7
REMARK    2  A    between atoms: C_5  and  O_17
REMARK    3  A    between atoms: O_7  and  C_8
REMARK    4  A    between atoms: C_11  and  C_12
REMARK    5  A    between atoms: O_17  and  C_18
REMARK    6  A    between atoms: C_18  and  C_19
REMARK                            x       y       z     vdW  Elec       q    Type
REMARK                         _______ _______ _______ _____ _____    ______ ____
ROOT
ATOM      1  C   UNL A   1     -25.659  -0.737  27.010  0.00  0.00    +0.074 A 
ATOM      2  C   UNL A   1     -24.896  -0.511  27.921  0.00  0.00    +0.148 A 
ATOM      3  C   UNL A   1     -23.870   0.375  27.848  0.00  0.00    +0.038 A 
ATOM      4  C   UNL A   1     -23.677   1.076  26.643  0.00  0.00    +0.006 A 
ATOM      5  C   UNL A   1     -25.579   0.012  25.782  0.00  0.00    +0.142 A 
ATOM      6  C   UNL A   1     -24.548   0.894  25.649  0.00  0.00    +0.037 A 
ENDROOT
BRANCH   2   7
ATOM      7  O   UNL A   1     -24.804  -1.073  29.196  0.00  0.00    -0.453 OA
BRANCH   7   8
ATOM      8  C   UNL A   1     -24.930  -2.462  29.274  0.00  0.00    +0.152 A 
ATOM      9  C   UNL A   1     -23.892  -3.218  28.679  0.00  0.00    +0.038 A 
ATOM     10  C   UNL A   1     -24.072  -4.641  28.648  0.00  0.00    +0.003 A 
ATOM     11  C   UNL A   1     -26.073  -3.036  29.722  0.00  0.00    +0.114 A 
ATOM     12  C   UNL A   1     -25.279  -5.173  29.118  0.00  0.00    +0.000 A 
ATOM     13  C   UNL A   1     -26.247  -4.425  29.668  0.00  0.00    +0.010 A 
BRANCH  11  14
ATOM     14  C   UNL A   1     -27.154  -2.277  30.324  0.00  0.00    +0.391 C 
ATOM     15  O   UNL A   1     -28.364  -2.401  29.967  0.00  0.00    -0.240 OA
ATOM     16  O   UNL A   1     -26.920  -1.503  31.450  0.00  0.00    -0.240 OA
ENDBRANCH  11  14
ENDBRANCH   7   8
ENDBRANCH   2   7
BRANCH   5  17
ATOM     17  O   UNL A   1     -26.484  -0.210  24.789  0.00  0.00    -0.470 OA
BRANCH  17  18
ATOM     18  C   UNL A   1     -27.313   0.753  24.489  0.00  0.00    +0.232 C 
BRANCH  18  19
ATOM     19  C   UNL A   1     -28.434   0.334  23.676  0.00  0.00    +0.021 A 
ATOM     20  C   UNL A   1     -28.542  -1.102  23.507  0.00  0.00    -0.001 A 
ATOM     21  C   UNL A   1     -29.408  -1.639  23.756  0.00  0.00    -0.000 A 
ATOM     22  C   UNL A   1     -30.771  -1.081  23.471  0.00  0.00    -0.000 A 
ATOM     23  C   UNL A   1     -30.747   0.339  23.379  0.00  0.00    -0.000 A 
ATOM     24  C   UNL A   1     -29.525   0.990  23.562  0.00  0.00    -0.001 A 
ENDBRANCH  18  19
ENDBRANCH  17  18
ENDBRANCH   5  17
TORSDOF 6
ENDMDL
ENDMDL
