REMARK  Name = No_4041-gen_results/8p0m/2024-11-26-14-13-15/
REMARK  5 active torsions:
REMARK  status: ('A' for Active; 'I' for Inactive)
REMARK    1  A    between atoms: C_3  and  O_16
REMARK    2  A    between atoms: C_4  and  C_8
REMARK    3  A    between atoms: O_16  and  C_17
REMARK    4  A    between atoms: C_20  and  C_22
REMARK    5  A    between atoms: C_22  and  C_24
REMARK                            x       y       z     vdW  Elec       q    Type
REMARK                         _______ _______ _______ _____ _____    ______ ____
ROOT
ATOM      1  C   UNL A   1     -28.016  -0.814  28.878  0.00  0.00    +0.067 A 
ATOM      2  C   UNL A   1     -28.469  -0.785  29.829  0.00  0.00    +0.143 A 
ATOM      3  C   UNL A   1     -26.504  -0.778  28.877  0.00  0.00    +0.147 A 
ATOM      4  C   UNL A   1     -25.810  -0.853  30.103  0.00  0.00    +0.037 A 
ATOM      5  C   UNL A   1     -27.991  -0.892  31.226  0.00  0.00    +0.030 A 
ATOM      6  C   UNL A   1     -26.604  -0.868  31.265  0.00  0.00    +0.005 A 
ATOM      7  F   UNL A   1     -29.920  -0.833  29.824  0.00  0.00    -0.204 F 
ENDROOT
BRANCH   4   8
ATOM      8  C   UNL A   1     -24.380  -0.802  30.142  0.00  0.00    +0.038 A 
ATOM      9  C   UNL A   1     -23.808   0.564  30.148  0.00  0.00    +0.006 A 
ATOM     10  C   UNL A   1     -22.526   0.718  29.575  0.00  0.00    +0.038 A 
ATOM     11  C   UNL A   1     -21.799  -0.430  29.157  0.00  0.00    +0.171 A 
ATOM     12  N   UNL A   1     -22.396  -1.625  29.124  0.00  0.00    -0.209 NA
ATOM     13  C   UNL A   1     -23.666  -1.792  29.499  0.00  0.00    +0.171 A 
ATOM     14  N   UNL A   1     -24.247  -2.940  29.505  0.00  0.00    -0.107 NA
ATOM     15  N   UNL A   1     -20.587  -0.156  28.654  0.00  0.00    -0.107 NA
ENDBRANCH   4   8
BRANCH   3  16
ATOM     16  O   UNL A   1     -25.782  -0.727  27.734  0.00  0.00    -0.453 OA
BRANCH  16  17
ATOM     17  C   UNL A   1     -26.100   0.134  26.757  0.00  0.00    +0.145 A 
ATOM     18  C   UNL A   1     -26.268   1.213  26.881  0.00  0.00    +0.034 A 
ATOM     19  C   UNL A   1     -25.886  -0.510  25.443  0.00  0.00    +0.037 A 
ATOM     20  C   UNL A   1     -26.584   2.124  25.792  0.00  0.00    -0.015 A 
ATOM     21  C   UNL A   1     -26.109   0.227  24.309  0.00  0.00    +0.003 A 
ATOM     22  C   UNL A   1     -26.416   1.517  24.504  0.00  0.00    -0.004 A 
BRANCH  20  23
ATOM     23  C   UNL A   1     -26.925   3.495  25.937  0.00  0.00    +0.052 C 
BRANCH  23  24
ATOM     24  C   UNL A   1     -26.120   4.285  26.814  0.00  0.00    -0.026 C 
ATOM     25  C   UNL A   1     -26.604   5.454  27.384  0.00  0.00    -0.030 C 
ATOM     26  C   UNL A   1     -25.743   6.321  28.142  0.00  0.00    +0.030 C 
ENDBRANCH  23  24
ENDBRANCH  20  23
ENDBRANCH  16  17
ENDBRANCH   3  16
TORSDOF 5
