MODEL 4042
MODEL 1
REMARK VINA RESULT:    -6.719      0.000      0.000
REMARK INTER + INTRA:         -11.032
REMARK INTER:                  -9.468
REMARK INTRA:                  -1.564
REMARK UNBOUND:                -1.564
REMARK  Name = No_4042-gen_results/8p0m/2024-11-26-14-13-15/
REMARK  7 active torsions:
REMARK  status: ('A' for Active; 'I' for Inactive)
REMARK    1  A    between atoms: C_3  and  C_7
REMARK    2  A    between atoms: C_6  and  C_17
REMARK    3  A    between atoms: N_8  and  C_10
REMARK    4  A    between atoms: C_10  and  C_11
REMARK    5  A    between atoms: C_11  and  C_12
REMARK    6  A    between atoms: C_12  and  C_13
REMARK    7  A    between atoms: C_18  and  C_19
REMARK                            x       y       z     vdW  Elec       q    Type
REMARK                         _______ _______ _______ _____ _____    ______ ____
ROOT
ATOM      1  C   UNL A   1     -30.938 -10.252  10.198  0.00  0.00    +0.010 A 
ATOM      2  C   UNL A   1     -31.646 -10.781  10.774  0.00  0.00    +0.000 A 
ATOM      3  C   UNL A   1     -29.589 -10.812  10.272  0.00  0.00    +0.118 A 
ATOM      4  C   UNL A   1     -29.303 -11.933  11.012  0.00  0.00    +0.147 A 
ATOM      5  C   UNL A   1     -31.633 -11.968  11.628  0.00  0.00    +0.002 A 
ATOM      6  C   UNL A   1     -30.331 -12.518  11.705  0.00  0.00    +0.028 A 
ATOM      7  F   UNL A   1     -28.683 -11.565  12.215  0.00  0.00    -0.204 F 
ENDROOT
BRANCH   3   8
ATOM      8  C   UNL A   1     -28.460 -10.228   9.485  0.00  0.00    +0.413 C 
ATOM      9  N   UNL A   1     -28.158  -9.059   9.678  0.00  0.00    -0.058 NA
ATOM     10  N   UNL A   1     -27.526 -11.054   8.909  0.00  0.00    +0.216 NA
BRANCH   9  11
ATOM     11  C   UNL A   1     -27.542  -8.143   9.094  0.00  0.00    +0.264 C 
BRANCH  11  12
ATOM     12  C   UNL A   1     -28.105  -6.918   9.349  0.00  0.00    +0.067 C 
BRANCH  12  13
ATOM     13  C   UNL A   1     -29.423  -6.513   8.801  0.00  0.00    +0.108 C 
BRANCH  13  14
ATOM     14  C   UNL A   1     -30.332  -6.306   9.815  0.00  0.00    +0.398 C 
ATOM     15  F   UNL A   1     -29.877  -6.457  10.987  0.00  0.00    -0.170 F 
ATOM     16  F   UNL A   1     -30.758  -4.922   9.801  0.00  0.00    -0.170 F 
ATOM     17  F   UNL A   1     -31.505  -6.909   9.686  0.00  0.00    -0.170 F 
ENDBRANCH  13  14
ENDBRANCH  12  13
ENDBRANCH  11  12
ENDBRANCH   9  11
ENDBRANCH   3   8
BRANCH   6  18
ATOM     18  C   UNL A   1     -30.060 -13.694  12.573  0.00  0.00    +0.002 C 
ATOM     19  C   UNL A   1     -30.148 -14.885  12.149  0.00  0.00    +0.003 C 
BRANCH  19  20
ATOM     20  C   UNL A   1     -30.374 -15.238  10.888  0.00  0.00    +0.039 A 
ATOM     21  C   UNL A   1     -31.708 -15.345  10.326  0.00  0.00    +0.003 A 
ATOM     22  C   UNL A   1     -31.928 -15.581   8.981  0.00  0.00    +0.000 A 
ATOM     23  C   UNL A   1     -30.774 -15.733   8.159  0.00  0.00    +0.003 A 
ATOM     24  C   UNL A   1     -29.515 -15.628   8.587  0.00  0.00    +0.042 A 
ATOM     25  C   UNL A   1     -29.389 -15.335   9.912  0.00  0.00    +0.196 A 
ATOM     26  O   UNL A   1     -28.611 -16.551  10.418  0.00  0.00    -0.287 OA
ENDBRANCH  19  20
ENDBRANCH   6  18
TORSDOF 7
ENDMDL
ENDMDL
