REMARK  Name = No_4042-gen_results/8p0m/2024-11-26-14-13-15/
REMARK  7 active torsions:
REMARK  status: ('A' for Active; 'I' for Inactive)
REMARK    1  A    between atoms: C_3  and  C_7
REMARK    2  A    between atoms: C_6  and  C_17
REMARK    3  A    between atoms: N_8  and  C_10
REMARK    4  A    between atoms: C_10  and  C_11
REMARK    5  A    between atoms: C_11  and  C_12
REMARK    6  A    between atoms: C_12  and  C_13
REMARK    7  A    between atoms: C_18  and  C_19
REMARK                            x       y       z     vdW  Elec       q    Type
REMARK                         _______ _______ _______ _____ _____    ______ ____
ROOT
ATOM      1  C   UNL A   1     -28.016  -0.814  28.878  0.00  0.00    +0.010 A 
ATOM      2  C   UNL A   1     -28.469  -0.785  29.829  0.00  0.00    +0.000 A 
ATOM      3  C   UNL A   1     -27.087   0.290  28.638  0.00  0.00    +0.118 A 
ATOM      4  C   UNL A   1     -26.832   1.249  29.587  0.00  0.00    +0.147 A 
ATOM      5  C   UNL A   1     -28.391   0.080  31.006  0.00  0.00    +0.002 A 
ATOM      6  C   UNL A   1     -27.494   1.152  30.784  0.00  0.00    +0.028 A 
ATOM      7  F   UNL A   1     -27.533   2.424  29.279  0.00  0.00    -0.204 F 
ENDROOT
BRANCH   3   8
ATOM      8  C   UNL A   1     -26.311   0.392  27.364  0.00  0.00    +0.413 C 
ATOM      9  N   UNL A   1     -25.130   0.073  27.374  0.00  0.00    -0.058 NA
ATOM     10  N   UNL A   1     -26.969   0.411  26.159  0.00  0.00    +0.216 NA
BRANCH   9  11
ATOM     11  C   UNL A   1     -24.104   0.263  26.687  0.00  0.00    +0.264 C 
BRANCH  11  12
ATOM     12  C   UNL A   1     -23.940   1.592  26.389  0.00  0.00    +0.067 C 
BRANCH  12  13
ATOM     13  C   UNL A   1     -23.244   2.536  27.297  0.00  0.00    +0.108 C 
BRANCH  13  14
ATOM     14  C   UNL A   1     -22.616   1.859  28.319  0.00  0.00    +0.398 C 
ATOM     15  F   UNL A   1     -21.424   1.506  28.080  0.00  0.00    -0.170 F 
ATOM     16  F   UNL A   1     -22.479   2.737  29.462  0.00  0.00    -0.170 F 
ATOM     17  F   UNL A   1     -23.298   0.866  28.873  0.00  0.00    -0.170 F 
ENDBRANCH  13  14
ENDBRANCH  12  13
ENDBRANCH  11  12
ENDBRANCH   9  11
ENDBRANCH   3   8
BRANCH   6  18
ATOM     18  C   UNL A   1     -27.302   2.201  31.819  0.00  0.00    +0.002 C 
ATOM     19  C   UNL A   1     -27.546   3.425  31.599  0.00  0.00    +0.003 C 
BRANCH  19  20
ATOM     20  C   UNL A   1     -28.097   3.913  30.493  0.00  0.00    +0.039 A 
ATOM     21  C   UNL A   1     -28.231   5.337  30.241  0.00  0.00    +0.003 A 
ATOM     22  C   UNL A   1     -28.681   5.835  29.032  0.00  0.00    +0.000 A 
ATOM     23  C   UNL A   1     -29.028   4.880  28.033  0.00  0.00    +0.003 A 
ATOM     24  C   UNL A   1     -28.915   3.558  28.171  0.00  0.00    +0.042 A 
ATOM     25  C   UNL A   1     -28.408   3.155  29.370  0.00  0.00    +0.196 A 
ATOM     26  O   UNL A   1     -29.557   2.305  29.915  0.00  0.00    -0.287 OA
ENDBRANCH  19  20
ENDBRANCH   6  18
TORSDOF 7
