REMARK  Name = No_4043-gen_results/8p0m/2024-11-26-14-13-15/
REMARK  7 active torsions:
REMARK  status: ('A' for Active; 'I' for Inactive)
REMARK    1  A    between atoms: C_5  and  C_11
REMARK    2  A    between atoms: C_9  and  C_14
REMARK    3  A    between atoms: C_14  and  O_16
REMARK    4  A    between atoms: O_16  and  C_17
REMARK    5  A    between atoms: C_17  and  C_19
REMARK    6  A    between atoms: C_18  and  C_24
REMARK    7  A    between atoms: C_19  and  P_20
REMARK                            x       y       z     vdW  Elec       q    Type
REMARK                         _______ _______ _______ _____ _____    ______ ____
ROOT
ATOM      1  C   UNL A   1     -30.519   1.762  30.004  0.00  0.00    +0.345 C 
ATOM      2  O   UNL A   1     -31.466   1.857  29.476  0.00  0.00    -0.244 OA
ENDROOT
BRANCH   1  11
ATOM      3  C   UNL A   1     -28.016  -0.814  28.878  0.00  0.00    +0.000 A 
ATOM      4  C   UNL A   1     -27.064  -0.119  28.608  0.00  0.00    +0.000 A 
ATOM      5  C   UNL A   1     -26.929   1.171  29.008  0.00  0.00    +0.000 A 
ATOM      6  C   UNL A   1     -25.770   2.034  28.688  0.00  0.00    +0.007 A 
ATOM      7  C   UNL A   1     -24.714   1.443  27.919  0.00  0.00    +0.080 A 
ATOM      8  C   UNL A   1     -24.859   0.078  27.584  0.00  0.00    +0.007 A 
ATOM      9  C   UNL A   1     -25.965  -0.661  27.916  0.00  0.00    +0.000 A 
ATOM     10  C   UNL A   1     -29.241  -0.204  29.074  0.00  0.00    +0.006 A 
ATOM     11  C   UNL A   1     -29.278   1.147  29.486  0.00  0.00    +0.076 A 
ATOM     12  C   UNL A   1     -28.130   1.905  29.319  0.00  0.00    +0.006 A 
BRANCH   7  13
ATOM     13  C   UNL A   1     -23.445   2.091  27.677  0.00  0.00    +0.388 C 
ATOM     14  O   UNL A   1     -22.510   1.902  27.306  0.00  0.00    -0.241 OA
ATOM     15  O   UNL A   1     -23.659   3.514  27.927  0.00  0.00    -0.241 OA
ENDBRANCH   7  13
ENDBRANCH   1  11
BRANCH   1  16
ATOM     16  O   UNL A   1     -30.241   2.568  31.085  0.00  0.00    -0.425 OA
BRANCH  16  17
ATOM     17  C   UNL A   1     -31.047   2.835  31.965  0.00  0.00    +0.134 C 
ATOM     18  C   UNL A   1     -30.660   3.678  32.718  0.00  0.00    +0.034 C 
BRANCH  18  19
ATOM     19  C   UNL A   1     -30.314   4.998  32.046  0.00  0.00    +0.003 A 
ATOM     20  C   UNL A   1     -30.862   5.638  31.280  0.00  0.00    +0.000 A 
ATOM     21  C   UNL A   1     -30.441   6.848  30.642  0.00  0.00    +0.000 A 
ATOM     22  C   UNL A   1     -29.231   7.366  31.061  0.00  0.00    +0.000 A 
ATOM     23  C   UNL A   1     -28.489   6.726  32.040  0.00  0.00    +0.000 A 
ATOM     24  C   UNL A   1     -28.984   5.592  32.614  0.00  0.00    +0.000 A 
ENDBRANCH  18  19
BRANCH  17  25
ATOM     25  C   UNL A   1     -31.462   1.538  32.641  0.00  0.00    +0.123 C 
BRANCH  25  26
ATOM     26  P   UNL A   1     -32.239   1.808  34.129  0.00  0.00    +0.125 P 
ATOM     27  O   UNL A   1     -33.266   2.112  34.126  0.00  0.00    -0.460 OA
ATOM     28  O   UNL A   1     -31.509   2.565  34.950  0.00  0.00    -0.357 OA
ATOM     29  O   UNL A   1     -32.036   0.265  34.749  0.00  0.00    -0.357 OA
ENDBRANCH  25  26
ENDBRANCH  17  25
ENDBRANCH  16  17
ENDBRANCH   1  16
TORSDOF 7
