MODEL 4043
MODEL 1
REMARK VINA RESULT:    -6.800      0.000      0.000
REMARK INTER + INTRA:         -12.399
REMARK INTER:                  -9.583
REMARK INTRA:                  -2.816
REMARK UNBOUND:                -2.816
REMARK  Name = No_4043-gen_results/8p0m/2024-11-26-14-13-15/
REMARK  7 active torsions:
REMARK  status: ('A' for Active; 'I' for Inactive)
REMARK    1  A    between atoms: C_5  and  C_11
REMARK    2  A    between atoms: C_9  and  C_14
REMARK    3  A    between atoms: C_14  and  O_16
REMARK    4  A    between atoms: O_16  and  C_17
REMARK    5  A    between atoms: C_17  and  C_19
REMARK    6  A    between atoms: C_18  and  C_24
REMARK    7  A    between atoms: C_19  and  P_20
REMARK                            x       y       z     vdW  Elec       q    Type
REMARK                         _______ _______ _______ _____ _____    ______ ____
ROOT
ATOM      1  C   UNL A   1     -29.631 -12.018  26.692  0.00  0.00    +0.345 C 
ATOM      2  O   UNL A   1     -29.873 -11.462  25.788  0.00  0.00    -0.244 OA
ENDROOT
BRANCH   1  11
ATOM      3  C   UNL A   1     -30.511  -9.926  29.695  0.00  0.00    +0.000 A 
ATOM      4  C   UNL A   1     -29.827 -10.438  30.551  0.00  0.00    +0.000 A 
ATOM      5  C   UNL A   1     -28.789 -11.274  30.293  0.00  0.00    +0.000 A 
ATOM      6  C   UNL A   1     -27.942 -11.908  31.328  0.00  0.00    +0.007 A 
ATOM      7  C   UNL A   1     -28.239 -11.588  32.694  0.00  0.00    +0.080 A 
ATOM      8  C   UNL A   1     -29.280 -10.659  32.918  0.00  0.00    +0.007 A 
ATOM      9  C   UNL A   1     -30.024 -10.111  31.905  0.00  0.00    +0.000 A 
ATOM     10  C   UNL A   1     -30.671 -10.593  28.495  0.00  0.00    +0.006 A 
ATOM     11  C   UNL A   1     -29.680 -11.509  28.080  0.00  0.00    +0.076 A 
ATOM     12  C   UNL A   1     -28.794 -11.979  29.036  0.00  0.00    +0.006 A 
BRANCH   7  13
ATOM     13  C   UNL A   1     -27.402 -11.980  33.805  0.00  0.00    +0.388 C 
ATOM     14  O   UNL A   1     -26.836 -12.764  34.141  0.00  0.00    -0.241 OA
ATOM     15  O   UNL A   1     -27.216 -10.781  34.619  0.00  0.00    -0.241 OA
ENDBRANCH   7  13
ENDBRANCH   1  11
BRANCH   1  16
ATOM     16  O   UNL A   1     -29.634 -13.395  26.684  0.00  0.00    -0.425 OA
BRANCH  16  17
ATOM     17  C   UNL A   1     -30.554 -14.075  26.252  0.00  0.00    +0.134 C 
ATOM     18  C   UNL A   1     -30.884 -14.948  26.998  0.00  0.00    +0.034 C 
BRANCH  18  19
ATOM     19  C   UNL A   1     -31.326 -14.459  28.369  0.00  0.00    +0.003 A 
ATOM     20  C   UNL A   1     -32.225 -13.852  28.716  0.00  0.00    +0.000 A 
ATOM     21  C   UNL A   1     -32.544 -13.373  30.026  0.00  0.00    +0.000 A 
ATOM     22  C   UNL A   1     -31.687 -13.759  31.039  0.00  0.00    +0.000 A 
ATOM     23  C   UNL A   1     -30.588 -14.558  30.769  0.00  0.00    +0.000 A 
ATOM     24  C   UNL A   1     -30.379 -14.992  29.493  0.00  0.00    +0.000 A 
ENDBRANCH  18  19
BRANCH  17  25
ATOM     25  C   UNL A   1     -30.180 -14.553  24.858  0.00  0.00    +0.123 C 
BRANCH  25  26
ATOM     26  P   UNL A   1     -31.300 -14.047  23.683  0.00  0.00    +0.125 P 
ATOM     27  O   UNL A   1     -32.154 -13.481  23.995  0.00  0.00    -0.460 OA
ATOM     28  O   UNL A   1     -31.645 -15.035  22.856  0.00  0.00    -0.357 OA
ATOM     29  O   UNL A   1     -30.235 -13.135  22.766  0.00  0.00    -0.357 OA
ENDBRANCH  25  26
ENDBRANCH  17  25
ENDBRANCH  16  17
ENDBRANCH   1  16
TORSDOF 7
ENDMDL
ENDMDL
