REMARK  Name = No_4044-gen_results/8p0m/2024-11-26-14-13-15/
REMARK  7 active torsions:
REMARK  status: ('A' for Active; 'I' for Inactive)
REMARK    1  A    between atoms: C_2  and  C_14
REMARK    2  A    between atoms: C_3  and  C_4
REMARK    3  A    between atoms: C_4  and  C_8
REMARK    4  A    between atoms: C_9  and  C_17
REMARK    5  A    between atoms: C_11  and  C_22
REMARK    6  A    between atoms: C_17  and  C_18
REMARK    7  A    between atoms: C_22  and  C_23
REMARK                            x       y       z     vdW  Elec       q    Type
REMARK                         _______ _______ _______ _____ _____    ______ ____
ROOT
ATOM      1  C   UNL A   1     -25.228   0.580  27.339  0.00  0.00    -0.023 A 
ATOM      2  C   UNL A   1     -23.976   0.871  27.767  0.00  0.00    -0.018 A 
ATOM      3  C   UNL A   1     -23.390   2.107  27.355  0.00  0.00    -0.004 A 
ATOM      4  C   UNL A   1     -25.956   1.464  26.583  0.00  0.00    +0.010 A 
ATOM      5  C   UNL A   1     -25.450   2.649  26.167  0.00  0.00    -0.002 A 
ATOM      6  C   UNL A   1     -24.091   3.004  26.580  0.00  0.00    -0.001 A 
ENDROOT
BRANCH   4   7
ATOM      7  C   UNL A   1     -27.293   1.142  26.092  0.00  0.00    +0.205 C 
ATOM      8  F   UNL A   1     -27.185   0.465  24.895  0.00  0.00    -0.228 F 
BRANCH   7   9
ATOM      9  C   UNL A   1     -28.257   2.124  26.027  0.00  0.00    +0.014 A 
ATOM     10  C   UNL A   1     -28.192   3.095  26.854  0.00  0.00    -0.001 A 
ATOM     11  C   UNL A   1     -29.283   4.124  26.860  0.00  0.00    -0.000 A 
ATOM     12  C   UNL A   1     -30.206   3.998  25.809  0.00  0.00    -0.000 A 
ATOM     13  C   UNL A   1     -30.188   3.016  24.901  0.00  0.00    -0.000 A 
ATOM     14  C   UNL A   1     -29.189   2.058  24.991  0.00  0.00    -0.001 A 
ENDBRANCH   7   9
ENDBRANCH   4   7
BRANCH   1  15
ATOM     15  C   UNL A   1     -25.683  -0.777  27.683  0.00  0.00    +0.052 C 
BRANCH  15  18
ATOM     16  C   UNL A   1     -28.016  -0.814  28.878  0.00  0.00    +0.003 A 
ATOM     17  C   UNL A   1     -28.469  -0.785  29.829  0.00  0.00    +0.080 A 
ATOM     18  C   UNL A   1     -26.546  -0.876  28.850  0.00  0.00    -0.018 A 
ATOM     19  C   UNL A   1     -27.918  -1.003  31.188  0.00  0.00    +0.007 A 
ATOM     20  C   UNL A   1     -26.531  -1.079  31.246  0.00  0.00    -0.000 A 
ATOM     21  C   UNL A   1     -25.787  -1.066  30.150  0.00  0.00    -0.004 A 
BRANCH  17  22
ATOM     22  C   UNL A   1     -30.052  -0.701  29.892  0.00  0.00    +0.388 C 
ATOM     23  O   UNL A   1     -30.582   0.295  30.471  0.00  0.00    -0.241 OA
ATOM     24  O   UNL A   1     -30.694  -1.519  29.242  0.00  0.00    -0.241 OA
ENDBRANCH  17  22
ENDBRANCH  15  18
ENDBRANCH   1  15
BRANCH   2  25
ATOM     25  C   UNL A   1     -23.101  -0.001  28.607  0.00  0.00    +0.129 C 
BRANCH  25  26
ATOM     26  C   UNL A   1     -22.552   0.473  29.857  0.00  0.00    +0.402 C 
ATOM     27  F   UNL A   1     -23.303   0.406  30.740  0.00  0.00    -0.170 F 
ATOM     28  F   UNL A   1     -21.464  -0.303  30.050  0.00  0.00    -0.170 F 
ATOM     29  F   UNL A   1     -22.031   1.685  29.690  0.00  0.00    -0.170 F 
ENDBRANCH  25  26
ENDBRANCH   2  25
TORSDOF 7
