REMARK  Name = No_4045-gen_results/8p0m/2024-11-26-14-13-15/
REMARK  2 active torsions:
REMARK  status: ('A' for Active; 'I' for Inactive)
REMARK    1  A    between atoms: C_10  and  N_12
REMARK    2  A    between atoms: N_12  and  C_13
REMARK                            x       y       z     vdW  Elec       q    Type
REMARK                         _______ _______ _______ _____ _____    ______ ____
ROOT
ATOM      1  C   UNL A   1     -28.016  -0.814  28.878  0.00  0.00    +0.004 A 
ATOM      2  C   UNL A   1     -27.064  -0.119  28.608  0.00  0.00    +0.019 A 
ATOM      3  C   UNL A   1     -27.001   0.691  27.491  0.00  0.00    +0.003 A 
ATOM      4  C   UNL A   1     -28.137   0.736  26.635  0.00  0.00    +0.029 A 
ATOM      5  C   UNL A   1     -29.236   0.076  27.069  0.00  0.00    +0.140 A 
ATOM      6  C   UNL A   1     -29.218  -0.643  28.175  0.00  0.00    +0.030 A 
ATOM      7  F   UNL A   1     -30.322   0.145  26.309  0.00  0.00    -0.204 F 
ATOM      8  C   UNL A   1     -25.727  -0.194  29.407  0.00  0.00    +0.100 A 
ATOM      9  N   UNL A   1     -24.624  -0.109  28.894  0.00  0.00    -0.228 NA
ATOM     10  C   UNL A   1     -24.365   0.329  27.742  0.00  0.00    +0.147 A 
ATOM     11  C   UNL A   1     -25.531   0.791  26.939  0.00  0.00    +0.012 A 
ATOM     12  C   UNL A   1     -25.351   1.413  25.654  0.00  0.00    +0.034 C 
ENDROOT
BRANCH  10  13
ATOM     13  N   UNL A   1     -23.167   0.769  27.305  0.00  0.00    -0.199 NA
BRANCH  13  14
ATOM     14  C   UNL A   1     -22.079   0.692  28.168  0.00  0.00    +0.050 C 
ATOM     15  C   UNL A   1     -20.831   1.323  27.798  0.00  0.00    +0.013 C 
ATOM     16  C   UNL A   1     -22.143   0.371  29.402  0.00  0.00    +0.049 C 
ENDBRANCH  13  14
ENDBRANCH  10  13
TORSDOF 2
