MODEL 4045
MODEL 1
REMARK VINA RESULT:    -5.746      0.000      0.000
REMARK INTER + INTRA:          -6.657
REMARK INTER:                  -6.417
REMARK INTRA:                  -0.240
REMARK UNBOUND:                -0.240
REMARK  Name = No_4045-gen_results/8p0m/2024-11-26-14-13-15/
REMARK  2 active torsions:
REMARK  status: ('A' for Active; 'I' for Inactive)
REMARK    1  A    between atoms: C_10  and  N_12
REMARK    2  A    between atoms: N_12  and  C_13
REMARK                            x       y       z     vdW  Elec       q    Type
REMARK                         _______ _______ _______ _____ _____    ______ ____
ROOT
ATOM      1  C   UNL A   1     -23.866  -3.531  28.914  0.00  0.00    +0.004 A 
ATOM      2  C   UNL A   1     -23.857  -2.358  29.209  0.00  0.00    +0.019 A 
ATOM      3  C   UNL A   1     -24.973  -1.670  29.644  0.00  0.00    +0.003 A 
ATOM      4  C   UNL A   1     -26.189  -2.395  29.788  0.00  0.00    +0.029 A 
ATOM      5  C   UNL A   1     -26.108  -3.735  29.611  0.00  0.00    +0.140 A 
ATOM      6  C   UNL A   1     -24.985  -4.315  29.234  0.00  0.00    +0.030 A 
ATOM      7  F   UNL A   1     -27.221  -4.436  29.789  0.00  0.00    -0.204 F 
ATOM      8  C   UNL A   1     -22.614  -1.449  28.964  0.00  0.00    +0.100 A 
ATOM      9  N   UNL A   1     -22.683  -0.291  28.589  0.00  0.00    -0.228 NA
ATOM     10  C   UNL A   1     -23.704   0.446  28.616  0.00  0.00    +0.147 A 
ATOM     11  C   UNL A   1     -24.943  -0.171  29.167  0.00  0.00    +0.012 A 
ATOM     12  C   UNL A   1     -26.142   0.603  29.351  0.00  0.00    +0.034 C 
ENDROOT
BRANCH  10  13
ATOM     13  N   UNL A   1     -23.719   1.793  28.561  0.00  0.00    -0.199 NA
BRANCH  13  14
ATOM     14  C   UNL A   1     -23.825   2.403  27.315  0.00  0.00    +0.050 C 
ATOM     15  C   UNL A   1     -24.713   3.533  27.149  0.00  0.00    +0.013 C 
ATOM     16  C   UNL A   1     -22.994   2.261  26.356  0.00  0.00    +0.049 C 
ENDBRANCH  13  14
ENDBRANCH  10  13
TORSDOF 2
ENDMDL
ENDMDL
