MODEL 4046
MODEL 1
REMARK VINA RESULT:    -6.719      0.000      0.000
REMARK INTER + INTRA:          -7.974
REMARK INTER:                  -7.505
REMARK INTRA:                  -0.469
REMARK UNBOUND:                -0.469
REMARK  Name = No_4046-gen_results/8p0m/2024-11-26-14-13-15/
REMARK  2 active torsions:
REMARK  status: ('A' for Active; 'I' for Inactive)
REMARK    1  A    between atoms: C_2  and  C_13
REMARK    2  A    between atoms: C_4  and  C_7
REMARK                            x       y       z     vdW  Elec       q    Type
REMARK                         _______ _______ _______ _____ _____    ______ ____
ROOT
ATOM      1  C   UNL A   1     -29.110 -10.301  32.556  0.00  0.00    +0.007 A 
ATOM      2  C   UNL A   1     -28.355 -11.021  32.699  0.00  0.00    +0.080 A 
ATOM      3  C   UNL A   1     -29.608 -10.240  31.182  0.00  0.00    +0.000 A 
ATOM      4  C   UNL A   1     -29.310 -11.016  30.377  0.00  0.00    +0.000 A 
ATOM      5  C   UNL A   1     -27.789 -12.070  31.872  0.00  0.00    +0.007 A 
ATOM      6  C   UNL A   1     -28.338 -12.005  30.562  0.00  0.00    +0.000 A 
ENDROOT
BRANCH   4   7
ATOM      7  C   UNL A   1     -29.860 -10.995  28.930  0.00  0.00    +0.000 A 
ATOM      8  C   UNL A   1     -30.599 -10.398  28.469  0.00  0.00    +0.000 A 
ATOM      9  C   UNL A   1     -29.082 -11.979  28.036  0.00  0.00    +0.000 A 
ATOM     10  C   UNL A   1     -29.429 -12.009  26.640  0.00  0.00    +0.000 A 
ATOM     11  C   UNL A   1     -31.154 -10.368  27.045  0.00  0.00    +0.000 A 
ATOM     12  C   UNL A   1     -30.466 -11.220  26.201  0.00  0.00    +0.000 A 
ENDBRANCH   4   7
BRANCH   2  13
ATOM     13  C   UNL A   1     -27.720 -11.214  34.209  0.00  0.00    +0.388 C 
ATOM     14  O   UNL A   1     -27.641 -10.393  34.998  0.00  0.00    -0.241 OA
ATOM     15  O   UNL A   1     -27.283 -12.409  34.577  0.00  0.00    -0.241 OA
ENDBRANCH   2  13
TORSDOF 2
ENDMDL
ENDMDL
