MODEL 4047
MODEL 1
REMARK VINA RESULT:    -6.455      0.000      0.000
REMARK INTER + INTRA:          -7.765
REMARK INTER:                  -7.209
REMARK INTRA:                  -0.555
REMARK UNBOUND:                -0.555
REMARK  Name = No_4047-gen_results/8p0m/2024-11-26-14-13-15/
REMARK  2 active torsions:
REMARK  status: ('A' for Active; 'I' for Inactive)
REMARK    1  A    between atoms: C_3  and  C_7
REMARK    2  A    between atoms: N_8  and  C_11
REMARK                            x       y       z     vdW  Elec       q    Type
REMARK                         _______ _______ _______ _____ _____    ______ ____
ROOT
ATOM      1  C   UNL A   1     -24.994  -1.220  28.701  0.00  0.00    +0.253 C 
ATOM      2  N   UNL A   1     -24.617  -0.303  29.590  0.00  0.00    -0.253 N 
ATOM      3  O   UNL A   1     -25.185  -0.755  27.478  0.00  0.00    -0.270 OA
ATOM      4  C   UNL A   1     -24.668   1.124  29.362  0.00  0.00    +0.120 C 
ENDROOT
BRANCH   1   7
ATOM      5  C   UNL A   1     -26.134  -3.188  29.586  0.00  0.00    +0.004 A 
ATOM      6  C   UNL A   1     -26.203  -4.233  29.702  0.00  0.00    +0.000 A 
ATOM      7  C   UNL A   1     -24.987  -2.671  28.943  0.00  0.00    +0.054 A 
ATOM      8  C   UNL A   1     -23.973  -3.490  28.487  0.00  0.00    +0.004 A 
ATOM      9  C   UNL A   1     -24.148  -4.852  28.675  0.00  0.00    +0.000 A 
ATOM     10  C   UNL A   1     -25.301  -5.313  29.274  0.00  0.00    +0.000 A 
ENDBRANCH   1   7
BRANCH   2  11
ATOM     11  C   UNL A   1     -24.315  -0.657  30.947  0.00  0.00    +0.054 A 
ATOM     12  C   UNL A   1     -23.160  -1.107  31.354  0.00  0.00    +0.015 A 
ATOM     13  C   UNL A   1     -22.850  -1.244  32.677  0.00  0.00    +0.001 A 
ATOM     14  C   UNL A   1     -23.895  -1.108  33.600  0.00  0.00    +0.000 A 
ATOM     15  C   UNL A   1     -25.447  -0.357  31.873  0.00  0.00    +0.015 A 
ATOM     16  C   UNL A   1     -25.205  -0.615  33.239  0.00  0.00    +0.001 A 
ENDBRANCH   2  11
TORSDOF 2
ENDMDL
ENDMDL
