REMARK  Name = No_4047-gen_results/8p0m/2024-11-26-14-13-15/
REMARK  2 active torsions:
REMARK  status: ('A' for Active; 'I' for Inactive)
REMARK    1  A    between atoms: C_3  and  C_7
REMARK    2  A    between atoms: N_8  and  C_11
REMARK                            x       y       z     vdW  Elec       q    Type
REMARK                         _______ _______ _______ _____ _____    ______ ____
ROOT
ATOM      1  C   UNL A   1     -26.441   0.088  27.247  0.00  0.00    +0.253 C 
ATOM      2  N   UNL A   1     -26.906   0.532  26.081  0.00  0.00    -0.253 N 
ATOM      3  O   UNL A   1     -25.185  -0.324  27.217  0.00  0.00    -0.270 OA
ATOM      4  C   UNL A   1     -26.239   0.344  24.812  0.00  0.00    +0.120 C 
ENDROOT
BRANCH   1   7
ATOM      5  C   UNL A   1     -28.016  -0.814  28.878  0.00  0.00    +0.004 A 
ATOM      6  C   UNL A   1     -28.469  -0.785  29.829  0.00  0.00    +0.000 A 
ATOM      7  C   UNL A   1     -27.136   0.236  28.535  0.00  0.00    +0.054 A 
ATOM      8  C   UNL A   1     -26.875   1.282  29.398  0.00  0.00    +0.004 A 
ATOM      9  C   UNL A   1     -27.507   1.238  30.630  0.00  0.00    +0.000 A 
ATOM     10  C   UNL A   1     -28.329   0.174  30.935  0.00  0.00    +0.000 A 
ENDBRANCH   1   7
BRANCH   2  11
ATOM     11  C   UNL A   1     -28.232   1.066  25.959  0.00  0.00    +0.054 A 
ATOM     12  C   UNL A   1     -29.317   0.344  25.898  0.00  0.00    +0.015 A 
ATOM     13  C   UNL A   1     -30.567   0.887  25.982  0.00  0.00    +0.001 A 
ATOM     14  C   UNL A   1     -30.668   2.282  25.901  0.00  0.00    +0.000 A 
ATOM     15  C   UNL A   1     -28.246   2.558  26.009  0.00  0.00    +0.015 A 
ATOM     16  C   UNL A   1     -29.521   3.160  25.962  0.00  0.00    +0.001 A 
ENDBRANCH   2  11
TORSDOF 2
