MODEL 4048
MODEL 1
REMARK VINA RESULT:    -4.273      0.000      0.000
REMARK INTER + INTRA:          -4.273
REMARK INTER:                  -4.273
REMARK INTRA:                   0.000
REMARK UNBOUND:                 0.000
REMARK  Name = No_4048-gen_results/8p0m/2024-11-26-14-13-15/
REMARK  0 active torsions:
REMARK  status: ('A' for Active; 'I' for Inactive)
REMARK                            x       y       z     vdW  Elec       q    Type
REMARK                         _______ _______ _______ _____ _____    ______ ____
ROOT
ATOM      1  C   UNL A   1     -26.063  -4.851  29.652  0.00  0.00    +0.000 A 
ATOM      2  C   UNL A   1     -26.189  -3.649  29.709  0.00  0.00    +0.000 A 
ATOM      3  C   UNL A   1     -25.214  -2.759  29.302  0.00  0.00    +0.000 A 
ATOM      4  C   UNL A   1     -24.014  -3.290  28.751  0.00  0.00    +0.000 A 
ATOM      5  C   UNL A   1     -23.991  -4.628  28.552  0.00  0.00    +0.000 A 
ATOM      6  C   UNL A   1     -24.989  -5.401  28.936  0.00  0.00    +0.000 A 
ENDROOT
TORSDOF 0
ENDMDL
ENDMDL
