MODEL 4049
MODEL 1
REMARK VINA RESULT:    -6.866      0.000      0.000
REMARK INTER + INTRA:          -6.866
REMARK INTER:                  -6.866
REMARK INTRA:                   0.000
REMARK UNBOUND:                 0.000
REMARK  Name = No_4049-gen_results/8p0m/2024-11-26-14-13-15/
REMARK  0 active torsions:
REMARK  status: ('A' for Active; 'I' for Inactive)
REMARK                            x       y       z     vdW  Elec       q    Type
REMARK                         _______ _______ _______ _____ _____    ______ ____
ROOT
ATOM      1  C   UNL A   1     -26.324  -4.249  29.901  0.00  0.00    -0.004 A 
ATOM      2  C   UNL A   1     -25.840  -5.049  29.415  0.00  0.00    -0.000 A 
ATOM      3  C   UNL A   1     -25.684  -2.990  29.897  0.00  0.00    -0.015 A 
ATOM      4  C   UNL A   1     -24.457  -2.796  29.293  0.00  0.00    +0.035 A 
ATOM      5  C   UNL A   1     -24.549  -5.110  28.702  0.00  0.00    +0.000 A 
ATOM      6  C   UNL A   1     -23.901  -3.924  28.676  0.00  0.00    +0.003 A 
ATOM      7  C   UNL A   1     -26.283  -1.762  30.521  0.00  0.00    +0.053 C 
ATOM      8  C   UNL A   1     -25.407  -0.696  30.813  0.00  0.00    -0.015 A 
ATOM      9  C   UNL A   1     -25.960   0.526  31.202  0.00  0.00    -0.004 A 
ATOM     10  C   UNL A   1     -25.141   1.683  31.096  0.00  0.00    -0.000 A 
ATOM     11  C   UNL A   1     -23.727   1.485  30.805  0.00  0.00    +0.000 A 
ATOM     12  C   UNL A   1     -23.240   0.263  30.444  0.00  0.00    +0.003 A 
ATOM     13  C   UNL A   1     -24.086  -0.819  30.351  0.00  0.00    +0.035 A 
ATOM     14  C   UNL A   1     -23.604  -1.936  29.660  0.00  0.00    +0.195 C 
ATOM     15  O   UNL A   1     -22.483  -1.774  28.942  0.00  0.00    -0.287 OA
ENDROOT
TORSDOF 0
ENDMDL
ENDMDL
