REMARK  Name = No_405-gen_results/8p0m/2024-11-26-14-13-15/
REMARK  7 active torsions:
REMARK  status: ('A' for Active; 'I' for Inactive)
REMARK    1  A    between atoms: C_1  and  C_2
REMARK    2  A    between atoms: C_5  and  C_9
REMARK    3  A    between atoms: N_8  and  C_13
REMARK    4  A    between atoms: C_13  and  C_15
REMARK    5  A    between atoms: C_15  and  C_16
REMARK    6  A    between atoms: C_16  and  N_17
REMARK    7  A    between atoms: N_17  and  C_18
REMARK                            x       y       z     vdW  Elec       q    Type
REMARK                         _______ _______ _______ _____ _____    ______ ____
ROOT
ATOM      1  C   UNL A   1     -28.016  -0.814  28.878  0.00  0.00    +0.249 C 
ATOM      2  N   UNL A   1     -27.982  -1.611  30.103  0.00  0.00    -0.274 N 
ATOM      3  O   UNL A   1     -29.211  -0.583  28.510  0.00  0.00    -0.270 OA
ATOM      4  C   UNL A   1     -26.689  -1.888  30.775  0.00  0.00    +0.115 C 
ENDROOT
BRANCH   1   5
ATOM      5  C   UNL A   1     -27.064  -0.119  28.608  0.00  0.00    +0.054 A 
ATOM      6  C   UNL A   1     -26.929   1.171  29.008  0.00  0.00    +0.005 A 
ATOM      7  C   UNL A   1     -25.770   2.034  28.688  0.00  0.00    +0.005 A 
ATOM      8  C   UNL A   1     -24.714   1.443  27.919  0.00  0.00    +0.059 A 
ATOM      9  C   UNL A   1     -24.859   0.078  27.584  0.00  0.00    +0.005 A 
ATOM     10  C   UNL A   1     -25.965  -0.661  27.916  0.00  0.00    +0.005 A 
BRANCH   8  11
ATOM     11  C   UNL A   1     -23.535   2.170  27.555  0.00  0.00    +0.297 C 
ATOM     12  N   UNL A   1     -22.464   1.649  27.099  0.00  0.00    -0.102 NA
ATOM     13  O   UNL A   1     -23.438   3.397  27.924  0.00  0.00    -0.264 OA
ENDBRANCH   8  11
ENDBRANCH   1   5
BRANCH   2  14
ATOM     14  C   UNL A   1     -29.041  -2.493  30.574  0.00  0.00    +0.096 C 
BRANCH  14  15
ATOM     15  C   UNL A   1     -29.412  -2.159  31.873  0.00  0.00    +0.045 C 
BRANCH  15  16
ATOM     16  C   UNL A   1     -30.081  -0.903  32.040  0.00  0.00    +0.114 C 
BRANCH  16  17
ATOM     17  N   UNL A   1     -30.015  -0.413  33.101  0.00  0.00    -0.236 NA
BRANCH  17  18
ATOM     18  C   UNL A   1     -29.300   0.087  33.776  0.00  0.00    +0.080 C 
ATOM     19  C   UNL A   1     -29.559   0.949  34.916  0.00  0.00    +0.019 C 
ENDBRANCH  17  18
ENDBRANCH  16  17
ENDBRANCH  15  16
ENDBRANCH  14  15
ENDBRANCH   2  14
TORSDOF 7
