MODEL 4050
MODEL 1
REMARK VINA RESULT:    -6.858      0.000      0.000
REMARK INTER + INTRA:         -10.343
REMARK INTER:                  -9.263
REMARK INTRA:                  -1.080
REMARK UNBOUND:                -1.080
REMARK  Name = No_4050-gen_results/8p0m/2024-11-26-14-13-15/
REMARK  6 active torsions:
REMARK  status: ('A' for Active; 'I' for Inactive)
REMARK    1  A    between atoms: C_1  and  C_2
REMARK    2  A    between atoms: C_1  and  N_8
REMARK    3  A    between atoms: C_3  and  N_15
REMARK    4  A    between atoms: C_5  and  C_12
REMARK    5  A    between atoms: N_15  and  C_16
REMARK    6  A    between atoms: C_16  and  C_17
REMARK                            x       y       z     vdW  Elec       q    Type
REMARK                         _______ _______ _______ _____ _____    ______ ____
ROOT
ATOM      1  C   UNL A   1     -11.620   1.796  34.967  0.00  0.00    +0.014 A 
ATOM      2  C   UNL A   1     -11.874   1.962  36.315  0.00  0.00    +0.064 A 
ATOM      3  C   UNL A   1     -13.094   2.501  36.886  0.00  0.00    +0.022 A 
ATOM      4  C   UNL A   1     -14.128   2.912  36.016  0.00  0.00    +0.081 A 
ATOM      5  C   UNL A   1     -13.882   2.731  34.608  0.00  0.00    +0.006 A 
ATOM      6  C   UNL A   1     -12.731   2.183  34.091  0.00  0.00    -0.001 A 
ENDROOT
BRANCH   4   7
ATOM      7  C   UNL A   1     -15.354   3.460  36.507  0.00  0.00    +0.388 C 
ATOM      8  O   UNL A   1     -15.697   3.305  37.709  0.00  0.00    -0.241 OA
ATOM      9  O   UNL A   1     -16.341   3.772  35.669  0.00  0.00    -0.241 OA
ENDBRANCH   4   7
BRANCH   1  10
ATOM     10  C   UNL A   1     -10.616   1.282  34.534  0.00  0.00    +0.144 C 
BRANCH  10  11
ATOM     11  N   UNL A   1      -9.972   1.896  33.458  0.00  0.00    -0.187 NA
ATOM     12  C   UNL A   1      -9.096   2.916  33.543  0.00  0.00    +0.326 C 
ATOM     13 CL   UNL A   1      -8.772   3.630  34.933  0.00  0.00    -0.021 Cl
ATOM     14  O   UNL A   1      -8.562   3.397  32.475  0.00  0.00    -0.255 OA
ENDBRANCH  10  11
ENDBRANCH   1  10
BRANCH   2  15
ATOM     15  N   UNL A   1     -10.815   1.640  37.051  0.00  0.00    -0.233 NA
BRANCH  15  16
ATOM     16  C   UNL A   1     -10.853   0.766  38.114  0.00  0.00    +0.139 C 
BRANCH  16  17
ATOM     17  C   UNL A   1     -11.133  -0.189  38.274  0.00  0.00    -0.001 A 
ATOM     18  C   UNL A   1     -11.777  -0.564  39.515  0.00  0.00    -0.003 A 
ATOM     19  C   UNL A   1     -12.398  -1.688  39.849  0.00  0.00    -0.000 A 
ATOM     20  C   UNL A   1     -12.207  -2.703  39.000  0.00  0.00    -0.000 A 
ATOM     21  C   UNL A   1     -11.582  -2.644  37.779  0.00  0.00    -0.000 A 
ATOM     22  C   UNL A   1     -11.100  -1.360  37.320  0.00  0.00    -0.003 A 
ENDBRANCH  16  17
ENDBRANCH  15  16
ENDBRANCH   2  15
TORSDOF 6
ENDMDL
ENDMDL
