REMARK  Name = No_4050-gen_results/8p0m/2024-11-26-14-13-15/
REMARK  6 active torsions:
REMARK  status: ('A' for Active; 'I' for Inactive)
REMARK    1  A    between atoms: C_1  and  C_2
REMARK    2  A    between atoms: C_1  and  N_8
REMARK    3  A    between atoms: C_3  and  N_15
REMARK    4  A    between atoms: C_5  and  C_12
REMARK    5  A    between atoms: N_15  and  C_16
REMARK    6  A    between atoms: C_16  and  C_17
REMARK                            x       y       z     vdW  Elec       q    Type
REMARK                         _______ _______ _______ _____ _____    ______ ____
ROOT
ATOM      1  C   UNL A   1     -27.064  -0.119  28.608  0.00  0.00    +0.014 A 
ATOM      2  C   UNL A   1     -27.001   0.691  27.491  0.00  0.00    +0.064 A 
ATOM      3  C   UNL A   1     -25.855   1.482  27.083  0.00  0.00    +0.022 A 
ATOM      4  C   UNL A   1     -24.690   1.453  27.881  0.00  0.00    +0.081 A 
ATOM      5  C   UNL A   1     -24.738   0.601  29.042  0.00  0.00    +0.006 A 
ATOM      6  C   UNL A   1     -25.823  -0.169  29.389  0.00  0.00    -0.001 A 
ENDROOT
BRANCH   4   7
ATOM      7  C   UNL A   1     -23.527   2.213  27.545  0.00  0.00    +0.388 C 
ATOM      8  O   UNL A   1     -23.433   2.797  26.433  0.00  0.00    -0.241 OA
ATOM      9  O   UNL A   1     -22.373   2.000  28.175  0.00  0.00    -0.241 OA
ENDBRANCH   4   7
BRANCH   1  10
ATOM     10  C   UNL A   1     -28.016  -0.814  28.878  0.00  0.00    +0.144 C 
BRANCH  10  11
ATOM     11  N   UNL A   1     -28.730  -0.530  30.043  0.00  0.00    -0.187 NA
ATOM     12  C   UNL A   1     -29.677  -1.313  30.597  0.00  0.00    +0.326 C 
ATOM     13 CL   UNL A   1     -30.177  -2.652  29.889  0.00  0.00    -0.021 Cl
ATOM     14  O   UNL A   1     -30.264  -0.944  31.681  0.00  0.00    -0.255 OA
ENDBRANCH  10  11
ENDBRANCH   1  10
BRANCH   2  15
ATOM     15  N   UNL A   1     -28.168   0.732  26.855  0.00  0.00    -0.233 NA
BRANCH  15  16
ATOM     16  C   UNL A   1     -28.714   1.878  26.321  0.00  0.00    +0.139 C 
BRANCH  16  17
ATOM     17  C   UNL A   1     -29.634   2.274  26.211  0.00  0.00    -0.001 A 
ATOM     18  C   UNL A   1     -30.790   1.600  26.764  0.00  0.00    -0.003 A 
ATOM     19  C   UNL A   1     -32.037   2.028  26.915  0.00  0.00    -0.000 A 
ATOM     20  C   UNL A   1     -32.321   3.158  26.258  0.00  0.00    -0.000 A 
ATOM     21  C   UNL A   1     -31.430   3.968  25.598  0.00  0.00    -0.000 A 
ATOM     22  C   UNL A   1     -30.029   3.610  25.627  0.00  0.00    -0.003 A 
ENDBRANCH  16  17
ENDBRANCH  15  16
ENDBRANCH   2  15
TORSDOF 6
