REMARK  Name = No_4051-gen_results/8p0m/2024-11-26-14-13-15/
REMARK  2 active torsions:
REMARK  status: ('A' for Active; 'I' for Inactive)
REMARK    1  A    between atoms: C_2  and  C_4
REMARK    2  A    between atoms: C_4  and  C_5
REMARK                            x       y       z     vdW  Elec       q    Type
REMARK                         _______ _______ _______ _____ _____    ______ ____
ROOT
ATOM      1  C   UNL A   1     -29.710   1.376  28.163  0.00  0.00    +0.019 A 
ATOM      2  C   UNL A   1     -30.621   1.887  27.582  0.00  0.00    -0.001 A 
ATOM      3  C   UNL A   1     -31.024   2.245  26.732  0.00  0.00    -0.000 A 
ATOM      4  C   UNL A   1     -30.230   2.019  25.445  0.00  0.00    -0.000 A 
ATOM      5  C   UNL A   1     -28.867   1.786  25.686  0.00  0.00    -0.000 A 
ATOM      6  C   UNL A   1     -28.544   1.401  26.988  0.00  0.00    -0.001 A 
ENDROOT
BRANCH   1   7
ATOM      7  C   UNL A   1     -29.807   0.189  28.663  0.00  0.00    +0.276 C 
ATOM      8  O   UNL A   1     -30.673   0.077  29.811  0.00  0.00    -0.206 OA
BRANCH   7  10
ATOM      9  O   UNL A   1     -28.123  -1.335  28.487  0.00  0.00    -0.242 OA
ATOM     10  C   UNL A   1     -28.521  -0.436  29.078  0.00  0.00    +0.399 C 
ATOM     11  O   UNL A   1     -27.915   0.078  30.039  0.00  0.00    -0.242 OA
ENDBRANCH   7  10
ENDBRANCH   1   7
TORSDOF 2
