MODEL 4051
MODEL 1
REMARK VINA RESULT:    -5.377      0.000      0.000
REMARK INTER + INTRA:          -6.076
REMARK INTER:                  -6.006
REMARK INTRA:                  -0.071
REMARK UNBOUND:                -0.071
REMARK  Name = No_4051-gen_results/8p0m/2024-11-26-14-13-15/
REMARK  2 active torsions:
REMARK  status: ('A' for Active; 'I' for Inactive)
REMARK    1  A    between atoms: C_2  and  C_4
REMARK    2  A    between atoms: C_4  and  C_5
REMARK                            x       y       z     vdW  Elec       q    Type
REMARK                         _______ _______ _______ _____ _____    ______ ____
ROOT
ATOM      1  C   UNL A   1     -24.488  -2.674  28.949  0.00  0.00    +0.019 A 
ATOM      2  C   UNL A   1     -25.599  -2.841  29.357  0.00  0.00    -0.001 A 
ATOM      3  C   UNL A   1     -26.341  -3.458  29.645  0.00  0.00    -0.000 A 
ATOM      4  C   UNL A   1     -26.001  -4.946  29.737  0.00  0.00    -0.000 A 
ATOM      5  C   UNL A   1     -24.882  -5.293  28.964  0.00  0.00    -0.000 A 
ATOM      6  C   UNL A   1     -24.054  -4.232  28.594  0.00  0.00    -0.001 A 
ENDROOT
BRANCH   1   7
ATOM      7  C   UNL A   1     -23.577  -2.117  29.676  0.00  0.00    +0.276 C 
ATOM      8  O   UNL A   1     -24.061  -1.444  30.856  0.00  0.00    -0.206 OA
BRANCH   7  10
ATOM      9  O   UNL A   1     -21.585  -1.175  29.098  0.00  0.00    -0.242 OA
ATOM     10  C   UNL A   1     -22.724  -1.118  28.975  0.00  0.00    +0.399 C 
ATOM     11  O   UNL A   1     -23.297  -0.280  28.251  0.00  0.00    -0.242 OA
ENDBRANCH   7  10
ENDBRANCH   1   7
TORSDOF 2
ENDMDL
ENDMDL
