MODEL 4052
MODEL 1
REMARK VINA RESULT:    -5.855      0.000      0.000
REMARK INTER + INTRA:          -6.231
REMARK INTER:                  -6.198
REMARK INTRA:                  -0.033
REMARK UNBOUND:                -0.033
REMARK  Name = No_4052-gen_results/8p0m/2024-11-26-14-13-15/
REMARK  1 active torsions:
REMARK  status: ('A' for Active; 'I' for Inactive)
REMARK    1  A    between atoms: C_5  and  C_11
REMARK                            x       y       z     vdW  Elec       q    Type
REMARK                         _______ _______ _______ _____ _____    ______ ____
ROOT
ATOM      1  C   UNL A   1     -30.699  -9.735  29.597  0.00  0.00    +0.000 A 
ATOM      2  C   UNL A   1     -29.988 -10.287  30.404  0.00  0.00    +0.000 A 
ATOM      3  C   UNL A   1     -29.053 -11.237  30.006  0.00  0.00    +0.000 A 
ATOM      4  C   UNL A   1     -28.130 -11.992  30.901  0.00  0.00    +0.002 A 
ATOM      5  C   UNL A   1     -28.109 -11.580  32.266  0.00  0.00    +0.021 A 
ATOM      6  C   UNL A   1     -29.023 -10.573  32.636  0.00  0.00    +0.002 A 
ATOM      7  C   UNL A   1     -29.869  -9.966  31.792  0.00  0.00    +0.000 A 
ATOM      8  C   UNL A   1     -31.090 -10.431  28.321  0.00  0.00    +0.000 A 
ATOM      9  C   UNL A   1     -30.084 -11.321  27.788  0.00  0.00    +0.000 A 
ATOM     10  C   UNL A   1     -29.121 -11.843  28.663  0.00  0.00    +0.000 A 
ENDROOT
BRANCH   5  11
ATOM     11  C   UNL A   1     -27.151 -12.228  33.174  0.00  0.00    +0.122 C 
ATOM     12  N   UNL A   1     -27.437 -12.325  34.478  0.00  0.00    -0.146 NA
ENDBRANCH   5  11
TORSDOF 1
ENDMDL
ENDMDL
