REMARK  Name = No_4052-gen_results/8p0m/2024-11-26-14-13-15/
REMARK  1 active torsions:
REMARK  status: ('A' for Active; 'I' for Inactive)
REMARK    1  A    between atoms: C_5  and  C_11
REMARK                            x       y       z     vdW  Elec       q    Type
REMARK                         _______ _______ _______ _____ _____    ______ ____
ROOT
ATOM      1  C   UNL A   1     -28.016  -0.814  28.878  0.00  0.00    +0.000 A 
ATOM      2  C   UNL A   1     -27.064  -0.119  28.608  0.00  0.00    +0.000 A 
ATOM      3  C   UNL A   1     -25.792  -0.430  29.076  0.00  0.00    +0.000 A 
ATOM      4  C   UNL A   1     -24.546   0.349  28.823  0.00  0.00    +0.002 A 
ATOM      5  C   UNL A   1     -24.659   1.420  27.888  0.00  0.00    +0.021 A 
ATOM      6  C   UNL A   1     -25.947   1.681  27.379  0.00  0.00    +0.002 A 
ATOM      7  C   UNL A   1     -27.044   0.974  27.687  0.00  0.00    +0.000 A 
ATOM      8  C   UNL A   1     -28.049  -1.598  30.163  0.00  0.00    +0.000 A 
ATOM      9  C   UNL A   1     -26.760  -2.071  30.612  0.00  0.00    +0.000 A 
ATOM     10  C   UNL A   1     -25.610  -1.402  30.171  0.00  0.00    +0.000 A 
ENDROOT
BRANCH   5  11
ATOM     11  C   UNL A   1     -23.442   2.163  27.531  0.00  0.00    +0.122 C 
ATOM     12  N   UNL A   1     -22.252   1.730  27.965  0.00  0.00    -0.146 NA
ENDBRANCH   5  11
TORSDOF 1
