REMARK  Name = No_4053-gen_results/8p0m/2024-11-26-14-13-15/
REMARK  1 active torsions:
REMARK  status: ('A' for Active; 'I' for Inactive)
REMARK    1  A    between atoms: C_5  and  C_7
REMARK                            x       y       z     vdW  Elec       q    Type
REMARK                         _______ _______ _______ _____ _____    ______ ____
ROOT
ATOM      1  C   UNL A   1     -28.016  -0.814  28.878  0.00  0.00    +0.069 A 
ATOM      2  C   UNL A   1     -27.064  -0.119  28.608  0.00  0.00    +0.079 A 
ATOM      3  C   UNL A   1     -26.972   0.714  27.506  0.00  0.00    +0.069 A 
ATOM      4  C   UNL A   1     -28.105   0.774  26.642  0.00  0.00    +0.019 A 
ATOM      5  C   UNL A   1     -29.201   0.104  27.053  0.00  0.00    +0.082 A 
ATOM      6  C   UNL A   1     -29.210  -0.603  28.185  0.00  0.00    +0.019 A 
ATOM      7 CL   UNL A   1     -25.527  -0.221  29.593  0.00  0.00    -0.081 Cl
ATOM      8 CL   UNL A   1     -28.091  -1.830  30.339  0.00  0.00    -0.081 Cl
ATOM      9 CL   UNL A   1     -25.352   1.389  27.183  0.00  0.00    -0.081 Cl
ENDROOT
BRANCH   5  10
ATOM     10  C   UNL A   1     -30.285   0.292  26.003  0.00  0.00    +0.388 C 
ATOM     11  O   UNL A   1     -30.977   1.093  26.032  0.00  0.00    -0.241 OA
ATOM     12  O   UNL A   1     -30.629  -0.942  25.504  0.00  0.00    -0.241 OA
ENDBRANCH   5  10
TORSDOF 1
