REMARK  Name = No_4055-gen_results/8p0m/2024-11-26-14-13-15/
REMARK  9 active torsions:
REMARK  status: ('A' for Active; 'I' for Inactive)
REMARK    1  A    between atoms: C_1  and  C_2
REMARK    2  A    between atoms: C_5  and  C_16
REMARK    3  A    between atoms: C_8  and  C_9
REMARK    4  A    between atoms: C_9  and  C_10
REMARK    5  A    between atoms: C_12  and  O_18
REMARK    6  A    between atoms: O_18  and  C_20
REMARK    7  A    between atoms: C_25  and  C_26
REMARK    8  A    between atoms: N_28  and  C_29
REMARK    9  A    between atoms: C_30  and  C_31
REMARK                            x       y       z     vdW  Elec       q    Type
REMARK                         _______ _______ _______ _____ _____    ______ ____
ROOT
ATOM      1  C   UNL A   1     -30.029  -2.428  29.936  0.00  0.00    -0.015 A 
ATOM      2  C   UNL A   1     -31.152  -3.189  30.479  0.00  0.00    +0.034 A 
ATOM      3  C   UNL A   1     -31.491  -4.418  29.814  0.00  0.00    +0.145 A 
ATOM      4  C   UNL A   1     -30.574  -4.987  28.977  0.00  0.00    +0.037 A 
ATOM      5  C   UNL A   1     -29.272  -4.547  28.988  0.00  0.00    +0.003 A 
ATOM      6  C   UNL A   1     -28.963  -3.300  29.523  0.00  0.00    -0.004 A 
ENDROOT
BRANCH   1   7
ATOM      7  C   UNL A   1     -29.791  -1.361  30.643  0.00  0.00    +0.052 C 
BRANCH   7   9
ATOM      8  C   UNL A   1     -28.016  -0.814  28.878  0.00  0.00    -0.003 C 
ATOM      9  C   UNL A   1     -28.735  -0.464  30.142  0.00  0.00    -0.021 C 
BRANCH   8  10
ATOM     10  C   UNL A   1     -27.064  -0.119  28.608  0.00  0.00    +0.010 A 
ATOM     11  C   UNL A   1     -27.001   0.691  27.491  0.00  0.00    +0.057 A 
ATOM     12  C   UNL A   1     -25.855   1.482  27.083  0.00  0.00    +0.008 A 
ATOM     13  C   UNL A   1     -24.690   1.453  27.881  0.00  0.00    -0.005 A 
ATOM     14  C   UNL A   1     -24.738   0.601  29.042  0.00  0.00    -0.003 A 
ATOM     15  C   UNL A   1     -25.823  -0.169  29.389  0.00  0.00    +0.001 A 
ATOM     16 CL   UNL A   1     -28.332   0.786  26.455  0.00  0.00    -0.082 Cl
BRANCH  13  17
ATOM     17  C   UNL A   1     -23.500   2.176  27.567  0.00  0.00    +0.121 C 
ATOM     18 CL   UNL A   1     -22.353   1.686  26.922  0.00  0.00    -0.108 Cl
ENDBRANCH  13  17
ENDBRANCH   8  10
ENDBRANCH   7   9
ENDBRANCH   1   7
BRANCH   3  19
ATOM     19  O   UNL A   1     -32.705  -5.039  29.978  0.00  0.00    -0.454 OA
BRANCH  19  20
ATOM     20  C   UNL A   1     -33.548  -4.867  30.875  0.00  0.00    +0.145 A 
ATOM     21  C   UNL A   1     -33.495  -4.946  31.983  0.00  0.00    +0.037 A 
ATOM     22  C   UNL A   1     -34.490  -4.704  33.026  0.00  0.00    +0.003 A 
ATOM     23  C   UNL A   1     -35.755  -4.393  32.493  0.00  0.00    +0.005 A 
ATOM     24  C   UNL A   1     -34.833  -4.334  30.332  0.00  0.00    +0.042 A 
ATOM     25  C   UNL A   1     -35.873  -4.160  31.156  0.00  0.00    +0.058 A 
BRANCH  25  26
ATOM     26  C   UNL A   1     -37.172  -3.740  30.599  0.00  0.00    +0.269 C 
ATOM     27  O   UNL A   1     -37.802  -4.155  29.819  0.00  0.00    -0.268 OA
ATOM     28  N   UNL A   1     -37.574  -2.470  31.227  0.00  0.00    -0.174 NA
BRANCH  28  29
ATOM     29  C   UNL A   1     -38.791  -1.861  30.819  0.00  0.00    +0.089 C 
ATOM     30  C   UNL A   1     -39.566  -2.034  30.128  0.00  0.00    +0.018 C 
BRANCH  30  31
ATOM     31  C   UNL A   1     -39.546  -3.239  29.351  0.00  0.00    -0.003 C 
ATOM     32  C   UNL A   1     -38.749  -4.162  29.143  0.00  0.00    -0.026 C 
ATOM     33  C   UNL A   1     -38.870  -5.285  28.269  0.00  0.00    +0.031 C 
ENDBRANCH  30  31
ENDBRANCH  28  29
ENDBRANCH  25  26
ENDBRANCH  19  20
ENDBRANCH   3  19
TORSDOF 9
