MODEL 4055
MODEL 1
REMARK VINA RESULT:    -6.504      0.000      0.000
REMARK INTER + INTRA:         -13.338
REMARK INTER:                  -9.926
REMARK INTRA:                  -3.412
REMARK UNBOUND:                -3.412
REMARK  Name = No_4055-gen_results/8p0m/2024-11-26-14-13-15/
REMARK  9 active torsions:
REMARK  status: ('A' for Active; 'I' for Inactive)
REMARK    1  A    between atoms: C_1  and  C_2
REMARK    2  A    between atoms: C_5  and  C_16
REMARK    3  A    between atoms: C_8  and  C_9
REMARK    4  A    between atoms: C_9  and  C_10
REMARK    5  A    between atoms: C_12  and  O_18
REMARK    6  A    between atoms: O_18  and  C_20
REMARK    7  A    between atoms: C_25  and  C_26
REMARK    8  A    between atoms: N_28  and  C_29
REMARK    9  A    between atoms: C_30  and  C_31
REMARK                            x       y       z     vdW  Elec       q    Type
REMARK                         _______ _______ _______ _____ _____    ______ ____
ROOT
ATOM      1  C   UNL A   1     -24.710  -2.704  28.758  0.00  0.00    -0.015 A 
ATOM      2  C   UNL A   1     -25.749  -2.421  29.747  0.00  0.00    +0.034 A 
ATOM      3  C   UNL A   1     -26.689  -3.473  30.026  0.00  0.00    +0.145 A 
ATOM      4  C   UNL A   1     -26.376  -4.749  29.656  0.00  0.00    +0.037 A 
ATOM      5  C   UNL A   1     -25.089  -5.058  29.284  0.00  0.00    +0.003 A 
ATOM      6  C   UNL A   1     -24.215  -4.047  28.895  0.00  0.00    -0.004 A 
ENDROOT
BRANCH   1   7
ATOM      7  C   UNL A   1     -23.897  -1.696  28.622  0.00  0.00    +0.052 C 
BRANCH   7   9
ATOM      8  C   UNL A   1     -23.650   0.670  27.671  0.00  0.00    -0.003 C 
ATOM      9  C   UNL A   1     -24.506  -0.404  28.262  0.00  0.00    -0.021 C 
BRANCH   8  10
ATOM     10  C   UNL A   1     -24.179   1.750  27.542  0.00  0.00    +0.010 A 
ATOM     11  C   UNL A   1     -23.855   2.645  26.542  0.00  0.00    +0.057 A 
ATOM     12  C   UNL A   1     -24.404   3.980  26.391  0.00  0.00    +0.008 A 
ATOM     13  C   UNL A   1     -25.365   4.429  27.323  0.00  0.00    -0.005 A 
ATOM     14  C   UNL A   1     -25.702   3.509  28.379  0.00  0.00    -0.003 A 
ATOM     15  C   UNL A   1     -25.141   2.262  28.524  0.00  0.00    +0.001 A 
ATOM     16 CL   UNL A   1     -22.702   2.219  25.383  0.00  0.00    -0.082 Cl
BRANCH  13  17
ATOM     17  C   UNL A   1     -25.959   5.727  27.282  0.00  0.00    +0.121 C 
ATOM     18 CL   UNL A   1     -25.302   6.957  27.119  0.00  0.00    -0.108 Cl
ENDBRANCH  13  17
ENDBRANCH   8  10
ENDBRANCH   7   9
ENDBRANCH   1   7
BRANCH   3  19
ATOM     19  O   UNL A   1     -27.896  -3.244  30.640  0.00  0.00    -0.454 OA
BRANCH  19  20
ATOM     20  C   UNL A   1     -28.325  -2.187  31.134  0.00  0.00    +0.145 A 
ATOM     21  C   UNL A   1     -28.532  -1.876  32.182  0.00  0.00    +0.037 A 
ATOM     22  C   UNL A   1     -29.003  -0.614  32.748  0.00  0.00    +0.003 A 
ATOM     23  C   UNL A   1     -29.320   0.331  31.753  0.00  0.00    +0.005 A 
ATOM     24  C   UNL A   1     -28.464  -1.112  30.107  0.00  0.00    +0.042 A 
ATOM     25  C   UNL A   1     -28.983   0.070  30.459  0.00  0.00    +0.058 A 
BRANCH  25  26
ATOM     26  C   UNL A   1     -29.222   1.090  29.422  0.00  0.00    +0.269 C 
ATOM     27  O   UNL A   1     -29.825   1.992  29.408  0.00  0.00    -0.268 OA
ATOM     28  N   UNL A   1     -28.534   0.685  28.185  0.00  0.00    -0.174 NA
BRANCH  28  29
ATOM     29  C   UNL A   1     -28.650   1.513  27.036  0.00  0.00    +0.089 C 
ATOM     30  C   UNL A   1     -28.169   1.647  26.109  0.00  0.00    +0.018 C 
BRANCH  30  31
ATOM     31  C   UNL A   1     -27.110   0.753  25.742  0.00  0.00    -0.003 C 
ATOM     32  C   UNL A   1     -26.324   0.630  24.794  0.00  0.00    -0.026 C 
ATOM     33  C   UNL A   1     -25.345  -0.381  24.553  0.00  0.00    +0.031 C 
ENDBRANCH  30  31
ENDBRANCH  28  29
ENDBRANCH  25  26
ENDBRANCH  19  20
ENDBRANCH   3  19
TORSDOF 9
ENDMDL
ENDMDL
