MODEL 4056
MODEL 1
REMARK VINA RESULT:    -5.605      0.000      0.000
REMARK INTER + INTRA:          -8.316
REMARK INTER:                  -7.571
REMARK INTRA:                  -0.746
REMARK UNBOUND:                -0.746
REMARK  Name = No_4056-gen_results/8p0m/2024-11-26-14-13-15/
REMARK  6 active torsions:
REMARK  status: ('A' for Active; 'I' for Inactive)
REMARK    1  A    between atoms: C_1  and  C_2
REMARK    2  A    between atoms: C_4  and  C_14
REMARK    3  A    between atoms: C_5  and  C_10
REMARK    4  A    between atoms: C_11  and  C_13
REMARK    5  A    between atoms: C_14  and  O_15
REMARK    6  A    between atoms: O_15  and  C_16
REMARK                            x       y       z     vdW  Elec       q    Type
REMARK                         _______ _______ _______ _____ _____    ______ ____
ROOT
ATOM      1  C   UNL A   1     -23.923  -0.860  28.505  0.00  0.00    +0.080 A 
ATOM      2  C   UNL A   1     -24.784  -0.716  27.466  0.00  0.00    +0.006 A 
ATOM      3  C   UNL A   1     -24.736   0.386  26.480  0.00  0.00    +0.021 A 
ATOM      4  C   UNL A   1     -23.714   1.376  26.662  0.00  0.00    -0.004 A 
ATOM      5  C   UNL A   1     -22.884   1.230  27.796  0.00  0.00    -0.000 A 
ATOM      6  C   UNL A   1     -22.987   0.179  28.670  0.00  0.00    +0.006 A 
ENDROOT
BRANCH   1   7
ATOM      7  C   UNL A   1     -23.975  -1.765  29.305  0.00  0.00    +0.388 C 
ATOM      8  O   UNL A   1     -23.717  -3.095  28.923  0.00  0.00    -0.241 OA
ATOM      9  O   UNL A   1     -23.612  -1.549  30.533  0.00  0.00    -0.241 OA
ENDBRANCH   1   7
BRANCH   4  10
ATOM     10  C   UNL A   1     -23.568   2.501  25.801  0.00  0.00    -0.015 C 
ATOM     11  C   UNL A   1     -24.252   3.681  25.937  0.00  0.00    +0.082 C 
ATOM     12  C   UNL A   1     -22.441   2.410  24.882  0.00  0.00    +0.031 C 
BRANCH  11  13
ATOM     13  C   UNL A   1     -25.132   3.822  27.024  0.00  0.00    +0.388 C 
ATOM     14  O   UNL A   1     -24.728   4.327  28.078  0.00  0.00    -0.241 OA
ATOM     15  O   UNL A   1     -26.411   3.642  26.884  0.00  0.00    -0.241 OA
ENDBRANCH  11  13
ENDBRANCH   4  10
BRANCH   3  16
ATOM     16  C   UNL A   1     -25.623   0.522  25.347  0.00  0.00    +0.232 C 
BRANCH  16  17
ATOM     17  O   UNL A   1     -26.922   0.567  25.687  0.00  0.00    -0.468 OA
BRANCH  17  18
ATOM     18  C   UNL A   1     -27.837   0.958  25.062  0.00  0.00    +0.173 C 
ATOM     19  C   UNL A   1     -27.871   1.118  23.720  0.00  0.00    +0.043 C 
ENDBRANCH  17  18
ENDBRANCH  16  17
ENDBRANCH   3  16
TORSDOF 6
ENDMDL
ENDMDL
