REMARK  Name = No_4056-gen_results/8p0m/2024-11-26-14-13-15/
REMARK  6 active torsions:
REMARK  status: ('A' for Active; 'I' for Inactive)
REMARK    1  A    between atoms: C_1  and  C_2
REMARK    2  A    between atoms: C_4  and  C_14
REMARK    3  A    between atoms: C_5  and  C_10
REMARK    4  A    between atoms: C_11  and  C_13
REMARK    5  A    between atoms: C_14  and  O_15
REMARK    6  A    between atoms: O_15  and  C_16
REMARK                            x       y       z     vdW  Elec       q    Type
REMARK                         _______ _______ _______ _____ _____    ______ ____
ROOT
ATOM      1  C   UNL A   1     -27.064  -0.119  28.608  0.00  0.00    +0.080 A 
ATOM      2  C   UNL A   1     -26.929   1.171  29.008  0.00  0.00    +0.006 A 
ATOM      3  C   UNL A   1     -25.770   2.034  28.688  0.00  0.00    +0.021 A 
ATOM      4  C   UNL A   1     -24.714   1.443  27.919  0.00  0.00    -0.004 A 
ATOM      5  C   UNL A   1     -24.859   0.078  27.584  0.00  0.00    -0.000 A 
ATOM      6  C   UNL A   1     -25.965  -0.661  27.916  0.00  0.00    +0.006 A 
ENDROOT
BRANCH   1   7
ATOM      7  C   UNL A   1     -28.016  -0.814  28.878  0.00  0.00    +0.388 C 
ATOM      8  O   UNL A   1     -27.993  -1.690  29.980  0.00  0.00    -0.241 OA
ATOM      9  O   UNL A   1     -29.214  -0.364  28.659  0.00  0.00    -0.241 OA
ENDBRANCH   1   7
BRANCH   4  10
ATOM     10  C   UNL A   1     -23.532   2.151  27.560  0.00  0.00    -0.015 C 
ATOM     11  C   UNL A   1     -22.339   2.068  28.230  0.00  0.00    +0.082 C 
ATOM     12  C   UNL A   1     -23.596   2.806  26.260  0.00  0.00    +0.031 C 
BRANCH  11  13
ATOM     13  C   UNL A   1     -22.248   1.192  29.326  0.00  0.00    +0.388 C 
ATOM     14  O   UNL A   1     -23.020   1.327  30.283  0.00  0.00    -0.241 OA
ATOM     15  O   UNL A   1     -21.529   0.112  29.269  0.00  0.00    -0.241 OA
ENDBRANCH  11  13
ENDBRANCH   4  10
BRANCH   3  16
ATOM     16  C   UNL A   1     -25.640   3.420  29.074  0.00  0.00    +0.232 C 
BRANCH  16  17
ATOM     17  O   UNL A   1     -26.817   4.025  29.304  0.00  0.00    -0.468 OA
BRANCH  17  18
ATOM     18  C   UNL A   1     -27.086   5.167  29.248  0.00  0.00    +0.173 C 
ATOM     19  C   UNL A   1     -28.306   5.706  29.469  0.00  0.00    +0.043 C 
ENDBRANCH  17  18
ENDBRANCH  16  17
ENDBRANCH   3  16
TORSDOF 6
