MODEL 4057
MODEL 1
REMARK VINA RESULT:    -6.970      0.000      0.000
REMARK INTER + INTRA:          -7.229
REMARK INTER:                  -7.377
REMARK INTRA:                   0.148
REMARK UNBOUND:                 0.148
REMARK  Name = No_4057-gen_results/8p0m/2024-11-26-14-13-15/
REMARK  1 active torsions:
REMARK  status: ('A' for Active; 'I' for Inactive)
REMARK    1  A    between atoms: C_5  and  C_16
REMARK                            x       y       z     vdW  Elec       q    Type
REMARK                         _______ _______ _______ _____ _____    ______ ____
ROOT
ATOM      1  C   UNL A   1     -31.499 -10.252  10.776  0.00  0.00    +0.003 A 
ATOM      2  C   UNL A   1     -30.624  -9.755  10.105  0.00  0.00    +0.035 A 
ATOM      3  C   UNL A   1     -29.318 -10.207  10.036  0.00  0.00    -0.015 A 
ATOM      4  C   UNL A   1     -28.993 -11.369  10.796  0.00  0.00    +0.001 A 
ATOM      5  C   UNL A   1     -30.014 -11.993  11.405  0.00  0.00    +0.053 A 
ATOM      6  C   UNL A   1     -31.226 -11.517  11.379  0.00  0.00    +0.005 A 
ATOM      7  C   UNL A   1     -28.232  -9.470   9.295  0.00  0.00    +0.045 C 
ATOM      8  C   UNL A   1     -28.519  -8.175   9.080  0.00  0.00    -0.015 A 
ATOM      9  C   UNL A   1     -27.587  -7.355   8.283  0.00  0.00    -0.004 A 
ATOM     10  C   UNL A   1     -27.998  -6.055   7.838  0.00  0.00    -0.000 A 
ATOM     11  C   UNL A   1     -29.150  -5.487   8.277  0.00  0.00    +0.000 A 
ATOM     12  C   UNL A   1     -30.000  -6.183   9.164  0.00  0.00    +0.003 A 
ATOM     13  C   UNL A   1     -29.708  -7.499   9.492  0.00  0.00    +0.035 A 
ATOM     14  C   UNL A   1     -30.788  -8.282   9.803  0.00  0.00    +0.195 C 
ATOM     15  O   UNL A   1     -31.938  -7.767  10.068  0.00  0.00    -0.287 OA
ATOM     16  C   UNL A   1     -26.986 -10.122   9.040  0.00  0.00    +0.009 C 
ENDROOT
BRANCH   5  17
ATOM     17  C   UNL A   1     -29.958 -13.345  12.009  0.00  0.00    +0.249 C 
ATOM     18  N   UNL A   1     -29.901 -14.321  11.265  0.00  0.00    -0.273 N 
ATOM     19  O   UNL A   1     -29.976 -13.567  13.224  0.00  0.00    -0.270 OA
ATOM     20  C   UNL A   1     -29.923 -14.288   9.774  0.00  0.00    +0.115 C 
ATOM     21  C   UNL A   1     -29.779 -15.726  11.711  0.00  0.00    +0.115 C 
ENDBRANCH   5  17
TORSDOF 1
ENDMDL
ENDMDL
