REMARK  Name = No_4057-gen_results/8p0m/2024-11-26-14-13-15/
REMARK  1 active torsions:
REMARK  status: ('A' for Active; 'I' for Inactive)
REMARK    1  A    between atoms: C_5  and  C_16
REMARK                            x       y       z     vdW  Elec       q    Type
REMARK                         _______ _______ _______ _____ _____    ______ ____
ROOT
ATOM      1  C   UNL A   1     -28.016  -0.814  28.878  0.00  0.00    +0.003 A 
ATOM      2  C   UNL A   1     -27.064  -0.119  28.608  0.00  0.00    +0.035 A 
ATOM      3  C   UNL A   1     -26.972   0.714  27.506  0.00  0.00    -0.015 A 
ATOM      4  C   UNL A   1     -28.105   0.774  26.642  0.00  0.00    +0.001 A 
ATOM      5  C   UNL A   1     -29.204   0.118  27.048  0.00  0.00    +0.053 A 
ATOM      6  C   UNL A   1     -29.213  -0.609  28.128  0.00  0.00    +0.005 A 
ATOM      7  C   UNL A   1     -25.711   1.452  27.138  0.00  0.00    +0.045 C 
ATOM      8  C   UNL A   1     -24.605   0.925  27.690  0.00  0.00    -0.015 A 
ATOM      9  C   UNL A   1     -23.309   1.602  27.492  0.00  0.00    -0.004 A 
ATOM     10  C   UNL A   1     -22.177   1.197  28.274  0.00  0.00    -0.000 A 
ATOM     11  C   UNL A   1     -22.218   0.093  29.062  0.00  0.00    +0.000 A 
ATOM     12  C   UNL A   1     -23.401  -0.673  29.162  0.00  0.00    +0.003 A 
ATOM     13  C   UNL A   1     -24.556  -0.222  28.540  0.00  0.00    +0.035 A 
ATOM     14  C   UNL A   1     -25.731  -0.602  29.134  0.00  0.00    +0.195 C 
ATOM     15  O   UNL A   1     -25.768  -1.546  30.009  0.00  0.00    -0.287 OA
ATOM     16  C   UNL A   1     -25.763   2.491  26.158  0.00  0.00    +0.009 C 
ENDROOT
BRANCH   5  17
ATOM     17  C   UNL A   1     -30.557   0.264  26.462  0.00  0.00    +0.249 C 
ATOM     18  N   UNL A   1     -30.658   0.478  25.256  0.00  0.00    -0.273 N 
ATOM     19  O   UNL A   1     -31.608   0.196  27.108  0.00  0.00    -0.270 OA
ATOM     20  C   UNL A   1     -29.526   0.651  24.300  0.00  0.00    +0.115 C 
ATOM     21  C   UNL A   1     -31.933   0.587  24.514  0.00  0.00    +0.115 C 
ENDBRANCH   5  17
TORSDOF 1
