REMARK  Name = No_4058-gen_results/8p0m/2024-11-26-14-13-15/
REMARK  4 active torsions:
REMARK  status: ('A' for Active; 'I' for Inactive)
REMARK    1  A    between atoms: C_1  and  C_2
REMARK    2  A    between atoms: C_1  and  N_8
REMARK    3  A    between atoms: C_5  and  C_9
REMARK    4  A    between atoms: N_8  and  C_12
REMARK                            x       y       z     vdW  Elec       q    Type
REMARK                         _______ _______ _______ _____ _____    ______ ____
ROOT
ATOM      1  C   UNL A   1     -27.064  -0.119  28.608  0.00  0.00    -0.001 A 
ATOM      2  C   UNL A   1     -26.972   0.714  27.506  0.00  0.00    -0.002 A 
ATOM      3  C   UNL A   1     -25.820   1.491  27.116  0.00  0.00    +0.006 A 
ATOM      4  C   UNL A   1     -24.656   1.424  27.918  0.00  0.00    +0.080 A 
ATOM      5  C   UNL A   1     -24.685   0.590  29.066  0.00  0.00    +0.006 A 
ATOM      6  C   UNL A   1     -25.810  -0.127  29.334  0.00  0.00    -0.002 A 
ENDROOT
BRANCH   4   7
ATOM      7  C   UNL A   1     -23.463   2.176  27.608  0.00  0.00    +0.388 C 
ATOM      8  O   UNL A   1     -22.555   1.702  27.134  0.00  0.00    -0.241 OA
ATOM      9  O   UNL A   1     -23.422   3.403  28.094  0.00  0.00    -0.241 OA
ENDBRANCH   4   7
BRANCH   1  10
ATOM     10  C   UNL A   1     -28.016  -0.814  28.878  0.00  0.00    +0.139 C 
BRANCH  10  11
ATOM     11  N   UNL A   1     -29.194  -0.190  29.016  0.00  0.00    -0.233 NA
BRANCH  11  12
ATOM     12  C   UNL A   1     -30.286  -0.756  29.599  0.00  0.00    +0.066 A 
ATOM     13  C   UNL A   1     -31.507  -0.498  29.096  0.00  0.00    +0.016 A 
ATOM     14  C   UNL A   1     -30.163  -0.568  31.095  0.00  0.00    +0.016 A 
ATOM     15  C   UNL A   1     -30.684   0.155  31.601  0.00  0.00    +0.001 A 
ATOM     16  C   UNL A   1     -32.095   0.548  31.252  0.00  0.00    +0.000 A 
ATOM     17  C   UNL A   1     -32.443   0.261  29.917  0.00  0.00    +0.001 A 
ENDBRANCH  11  12
ENDBRANCH  10  11
ENDBRANCH   1  10
TORSDOF 4
