MODEL 4058
MODEL 1
REMARK VINA RESULT:    -6.739      0.000      0.000
REMARK INTER + INTRA:          -8.582
REMARK INTER:                  -8.315
REMARK INTRA:                  -0.267
REMARK UNBOUND:                -0.267
REMARK  Name = No_4058-gen_results/8p0m/2024-11-26-14-13-15/
REMARK  4 active torsions:
REMARK  status: ('A' for Active; 'I' for Inactive)
REMARK    1  A    between atoms: C_1  and  C_2
REMARK    2  A    between atoms: C_1  and  N_8
REMARK    3  A    between atoms: C_5  and  C_9
REMARK    4  A    between atoms: N_8  and  C_12
REMARK                            x       y       z     vdW  Elec       q    Type
REMARK                         _______ _______ _______ _____ _____    ______ ____
ROOT
ATOM      1  C   UNL A   1     -23.419  -0.171  28.874  0.00  0.00    -0.001 A 
ATOM      2  C   UNL A   1     -22.246   0.477  28.523  0.00  0.00    -0.002 A 
ATOM      3  C   UNL A   1     -22.079   1.408  27.432  0.00  0.00    +0.006 A 
ATOM      4  C   UNL A   1     -23.198   1.706  26.619  0.00  0.00    +0.080 A 
ATOM      5  C   UNL A   1     -24.430   1.072  26.924  0.00  0.00    +0.006 A 
ATOM      6  C   UNL A   1     -24.495   0.232  27.992  0.00  0.00    -0.002 A 
ENDROOT
BRANCH   4   7
ATOM      7  C   UNL A   1     -23.117   2.617  25.502  0.00  0.00    +0.388 C 
ATOM      8  O   UNL A   1     -22.288   2.564  24.737  0.00  0.00    -0.241 OA
ATOM      9  O   UNL A   1     -23.953   3.638  25.539  0.00  0.00    -0.241 OA
ENDBRANCH   4   7
BRANCH   1  10
ATOM     10  C   UNL A   1     -23.553  -0.894  29.834  0.00  0.00    +0.139 C 
BRANCH  10  11
ATOM     11  N   UNL A   1     -23.586  -2.212  29.591  0.00  0.00    -0.233 NA
BRANCH  11  12
ATOM     12  C   UNL A   1     -24.572  -2.826  28.882  0.00  0.00    +0.066 A 
ATOM     13  C   UNL A   1     -25.782  -2.990  29.446  0.00  0.00    +0.016 A 
ATOM     14  C   UNL A   1     -23.987  -4.075  28.260  0.00  0.00    +0.016 A 
ATOM     15  C   UNL A   1     -24.147  -5.009  28.651  0.00  0.00    +0.001 A 
ATOM     16  C   UNL A   1     -25.457  -5.429  29.263  0.00  0.00    +0.000 A 
ATOM     17  C   UNL A   1     -26.229  -4.348  29.733  0.00  0.00    +0.001 A 
ENDBRANCH  11  12
ENDBRANCH  10  11
ENDBRANCH   1  10
TORSDOF 4
ENDMDL
ENDMDL
