MODEL 405
MODEL 1
REMARK VINA RESULT:    -5.004      0.000      0.000
REMARK INTER + INTRA:          -7.582
REMARK INTER:                  -7.051
REMARK INTRA:                  -0.531
REMARK UNBOUND:                -0.531
REMARK  Name = No_405-gen_results/8p0m/2024-11-26-14-13-15/
REMARK  7 active torsions:
REMARK  status: ('A' for Active; 'I' for Inactive)
REMARK    1  A    between atoms: C_1  and  C_2
REMARK    2  A    between atoms: C_5  and  C_9
REMARK    3  A    between atoms: N_8  and  C_13
REMARK    4  A    between atoms: C_13  and  C_15
REMARK    5  A    between atoms: C_15  and  C_16
REMARK    6  A    between atoms: C_16  and  N_17
REMARK    7  A    between atoms: N_17  and  C_18
REMARK                            x       y       z     vdW  Elec       q    Type
REMARK                         _______ _______ _______ _____ _____    ______ ____
ROOT
ATOM      1  C   UNL A   1      -6.703  -0.306  10.012  0.00  0.00    +0.249 C 
ATOM      2  N   UNL A   1      -5.541   0.095  10.803  0.00  0.00    -0.274 N 
ATOM      3  O   UNL A   1      -6.951  -1.545  10.150  0.00  0.00    -0.270 OA
ATOM      4  C   UNL A   1      -5.155   1.525  10.886  0.00  0.00    +0.115 C 
ENDROOT
BRANCH   1   5
ATOM      5  C   UNL A   1      -7.521   0.532   9.711  0.00  0.00    +0.054 A 
ATOM      6  C   UNL A   1      -7.633   1.073   8.471  0.00  0.00    +0.005 A 
ATOM      7  C   UNL A   1      -8.629   2.097   8.087  0.00  0.00    +0.005 A 
ATOM      8  C   UNL A   1      -9.549   2.521   9.102  0.00  0.00    +0.059 A 
ATOM      9  C   UNL A   1      -9.447   1.883  10.358  0.00  0.00    +0.005 A 
ATOM     10  C   UNL A   1      -8.494   0.938  10.643  0.00  0.00    +0.005 A 
BRANCH   8  11
ATOM     11  C   UNL A   1     -10.566   3.497   8.852  0.00  0.00    +0.297 C 
ATOM     12  N   UNL A   1     -10.592   4.673   9.345  0.00  0.00    -0.102 NA
ATOM     13  O   UNL A   1     -11.655   3.111   8.289  0.00  0.00    -0.264 OA
ENDBRANCH   8  11
ENDBRANCH   1   5
BRANCH   2  14
ATOM     14  C   UNL A   1      -4.471  -0.786  11.250  0.00  0.00    +0.096 C 
BRANCH  14  15
ATOM     15  C   UNL A   1      -3.326  -0.589  10.484  0.00  0.00    +0.045 C 
BRANCH  15  16
ATOM     16  C   UNL A   1      -2.967  -1.652   9.593  0.00  0.00    +0.114 C 
BRANCH  16  17
ATOM     17  N   UNL A   1      -3.728  -1.895   8.737  0.00  0.00    -0.236 NA
BRANCH  17  18
ATOM     18  C   UNL A   1      -3.981  -1.609   7.702  0.00  0.00    +0.080 C 
ATOM     19  C   UNL A   1      -3.455  -0.525   6.892  0.00  0.00    +0.019 C 
ENDBRANCH  17  18
ENDBRANCH  16  17
ENDBRANCH  15  16
ENDBRANCH  14  15
ENDBRANCH   2  14
TORSDOF 7
ENDMDL
ENDMDL
