MODEL 4060
MODEL 1
REMARK VINA RESULT:    -5.147      0.000      0.000
REMARK INTER + INTRA:          -6.072
REMARK INTER:                  -5.749
REMARK INTRA:                  -0.324
REMARK UNBOUND:                -0.324
REMARK  Name = No_4060-gen_results/8p0m/2024-11-26-14-13-15/
REMARK  2 active torsions:
REMARK  status: ('A' for Active; 'I' for Inactive)
REMARK    1  A    between atoms: C_3  and  C_4
REMARK    2  A    between atoms: C_4  and  C_9
REMARK                            x       y       z     vdW  Elec       q    Type
REMARK                         _______ _______ _______ _____ _____    ______ ____
ROOT
ATOM      1  C   UNL A   1     -24.200  -4.874  28.621  0.00  0.00    -0.000 A 
ATOM      2  C   UNL A   1     -23.912  -3.713  28.446  0.00  0.00    -0.004 A 
ATOM      3  C   UNL A   1     -24.592  -2.659  28.796  0.00  0.00    -0.018 A 
ATOM      4  C   UNL A   1     -25.435  -5.186  29.366  0.00  0.00    -0.000 A 
ATOM      5  C   UNL A   1     -26.244  -4.169  29.736  0.00  0.00    -0.000 A 
ATOM      6  C   UNL A   1     -25.842  -2.789  29.500  0.00  0.00    -0.004 A 
ENDROOT
BRANCH   3   7
ATOM      7  C   UNL A   1     -24.201  -1.246  28.567  0.00  0.00    +0.044 C 
ATOM      8  C   UNL A   1     -24.844  -0.352  27.702  0.00  0.00    +0.009 C 
BRANCH   7   9
ATOM      9  C   UNL A   1     -22.991  -0.770  29.213  0.00  0.00    -0.022 C 
ATOM     10  C   UNL A   1     -22.751  -0.623  30.378  0.00  0.00    -0.005 C 
ENDBRANCH   7   9
ENDBRANCH   3   7
TORSDOF 2
ENDMDL
ENDMDL
