MODEL 4061
MODEL 1
REMARK VINA RESULT:    -6.402      0.000      0.000
REMARK INTER + INTRA:          -8.041
REMARK INTER:                  -7.899
REMARK INTRA:                  -0.142
REMARK UNBOUND:                -0.142
REMARK  Name = No_4061-gen_results/8p0m/2024-11-26-14-13-15/
REMARK  4 active torsions:
REMARK  status: ('A' for Active; 'I' for Inactive)
REMARK    1  A    between atoms: C_3  and  C_8
REMARK    2  A    between atoms: C_6  and  O_7
REMARK    3  A    between atoms: O_7  and  C_14
REMARK    4  A    between atoms: C_15  and  C_16
REMARK                            x       y       z     vdW  Elec       q    Type
REMARK                         _______ _______ _______ _____ _____    ______ ____
ROOT
ATOM      1  C   UNL A   1     -10.211   0.343  36.411  0.00  0.00    +0.037 A 
ATOM      2  C   UNL A   1      -9.181  -0.286  36.332  0.00  0.00    +0.003 A 
ATOM      3  C   UNL A   1      -8.243  -0.006  35.344  0.00  0.00    +0.000 A 
ATOM      4  C   UNL A   1      -8.490   1.012  34.355  0.00  0.00    +0.003 A 
ATOM      5  C   UNL A   1      -9.715   1.674  34.507  0.00  0.00    +0.037 A 
ATOM      6  C   UNL A   1     -10.575   1.360  35.449  0.00  0.00    +0.145 A 
ENDROOT
BRANCH   3   7
ATOM      7  C   UNL A   1      -6.922  -0.709  35.149  0.00  0.00    +0.000 A 
ATOM      8  C   UNL A   1      -6.746  -1.799  34.488  0.00  0.00    +0.000 A 
ATOM      9  C   UNL A   1      -5.419  -2.354  34.285  0.00  0.00    +0.000 A 
ATOM     10  C   UNL A   1      -4.305  -1.551  34.575  0.00  0.00    +0.000 A 
ATOM     11  C   UNL A   1      -5.726   0.083  35.413  0.00  0.00    +0.000 A 
ATOM     12  C   UNL A   1      -4.474  -0.384  35.148  0.00  0.00    +0.000 A 
ENDBRANCH   3   7
BRANCH   6  13
ATOM     13  O   UNL A   1     -11.761   2.026  35.503  0.00  0.00    -0.448 OA
BRANCH  13  14
ATOM     14  C   UNL A   1     -12.594   2.070  34.448  0.00  0.00    +0.213 C 
ATOM     15  C   UNL A   1     -13.800   2.410  34.787  0.00  0.00    +0.248 C 
ATOM     16  F   UNL A   1     -14.282   3.178  33.683  0.00  0.00    -0.197 F 
BRANCH  15  17
ATOM     17  C   UNL A   1     -14.062   3.092  35.920  0.00  0.00    +0.447 C 
ATOM     18  F   UNL A   1     -14.097   2.280  36.887  0.00  0.00    -0.164 F 
ATOM     19  F   UNL A   1     -13.159   4.055  36.209  0.00  0.00    -0.164 F 
ATOM     20  F   UNL A   1     -15.241   3.659  35.762  0.00  0.00    -0.164 F 
ENDBRANCH  15  17
ENDBRANCH  13  14
ENDBRANCH   6  13
TORSDOF 4
ENDMDL
ENDMDL
