REMARK  Name = No_4061-gen_results/8p0m/2024-11-26-14-13-15/
REMARK  4 active torsions:
REMARK  status: ('A' for Active; 'I' for Inactive)
REMARK    1  A    between atoms: C_3  and  C_8
REMARK    2  A    between atoms: C_6  and  O_7
REMARK    3  A    between atoms: O_7  and  C_14
REMARK    4  A    between atoms: C_15  and  C_16
REMARK                            x       y       z     vdW  Elec       q    Type
REMARK                         _______ _______ _______ _____ _____    ______ ____
ROOT
ATOM      1  C   UNL A   1     -28.016  -0.814  28.878  0.00  0.00    +0.037 A 
ATOM      2  C   UNL A   1     -27.064  -0.119  28.608  0.00  0.00    +0.003 A 
ATOM      3  C   UNL A   1     -25.792  -0.430  29.076  0.00  0.00    +0.000 A 
ATOM      4  C   UNL A   1     -25.576  -1.565  29.936  0.00  0.00    +0.003 A 
ATOM      5  C   UNL A   1     -26.735  -2.300  30.217  0.00  0.00    +0.037 A 
ATOM      6  C   UNL A   1     -27.918  -1.954  29.763  0.00  0.00    +0.145 A 
ENDROOT
BRANCH   3   7
ATOM      7  C   UNL A   1     -24.529   0.349  28.800  0.00  0.00    +0.000 A 
ATOM      8  C   UNL A   1     -23.344   0.006  29.166  0.00  0.00    +0.000 A 
ATOM      9  C   UNL A   1     -22.178   0.781  28.778  0.00  0.00    +0.000 A 
ATOM     10  C   UNL A   1     -22.322   1.750  27.773  0.00  0.00    +0.000 A 
ATOM     11  C   UNL A   1     -24.610   1.356  27.748  0.00  0.00    +0.000 A 
ATOM     12  C   UNL A   1     -23.515   2.034  27.307  0.00  0.00    +0.000 A 
ENDBRANCH   3   7
BRANCH   6  13
ATOM     13  O   UNL A   1     -29.000  -2.701  30.115  0.00  0.00    -0.448 OA
BRANCH  13  14
ATOM     14  C   UNL A   1     -30.126  -2.134  30.584  0.00  0.00    +0.213 C 
ATOM     15  C   UNL A   1     -31.195  -2.717  30.135  0.00  0.00    +0.248 C 
ATOM     16  F   UNL A   1     -32.128  -2.640  31.214  0.00  0.00    -0.197 F 
BRANCH  15  17
ATOM     17  C   UNL A   1     -31.182  -3.986  29.679  0.00  0.00    +0.447 C 
ATOM     18  F   UNL A   1     -29.984  -4.346  29.506  0.00  0.00    -0.164 F 
ATOM     19  F   UNL A   1     -31.778  -4.877  30.501  0.00  0.00    -0.164 F 
ATOM     20  F   UNL A   1     -31.825  -3.985  28.528  0.00  0.00    -0.164 F 
ENDBRANCH  15  17
ENDBRANCH  13  14
ENDBRANCH   6  13
TORSDOF 4
