REMARK  Name = No_4062-gen_results/8p0m/2024-11-26-14-13-15/
REMARK  4 active torsions:
REMARK  status: ('A' for Active; 'I' for Inactive)
REMARK    1  A    between atoms: C_3  and  C_7
REMARK    2  A    between atoms: C_6  and  C_13
REMARK    3  A    between atoms: N_14  and  C_15
REMARK    4  A    between atoms: C_20  and  C_22
REMARK                            x       y       z     vdW  Elec       q    Type
REMARK                         _______ _______ _______ _____ _____    ______ ____
ROOT
ATOM      1  C   UNL A   1     -28.016  -0.814  28.878  0.00  0.00    +0.005 A 
ATOM      2  C   UNL A   1     -27.064  -0.119  28.608  0.00  0.00    +0.000 A 
ATOM      3  C   UNL A   1     -25.765  -0.390  29.036  0.00  0.00    +0.000 A 
ATOM      4  C   UNL A   1     -25.530  -1.530  29.901  0.00  0.00    +0.000 A 
ATOM      5  C   UNL A   1     -26.658  -2.292  30.203  0.00  0.00    +0.005 A 
ATOM      6  C   UNL A   1     -27.855  -1.956  29.763  0.00  0.00    +0.055 A 
ENDROOT
BRANCH   3   7
ATOM      7  C   UNL A   1     -24.535   0.413  28.743  0.00  0.00    +0.000 A 
ATOM      8  C   UNL A   1     -24.483   1.243  27.740  0.00  0.00    +0.000 A 
ATOM      9  C   UNL A   1     -23.279   1.938  27.416  0.00  0.00    +0.000 A 
ATOM     10  C   UNL A   1     -22.079   1.651  28.021  0.00  0.00    +0.000 A 
ATOM     11  C   UNL A   1     -23.275   0.111  29.439  0.00  0.00    +0.000 A 
ATOM     12  C   UNL A   1     -22.081   0.771  29.065  0.00  0.00    +0.000 A 
ENDBRANCH   3   7
BRANCH   6  13
ATOM     13  C   UNL A   1     -29.018  -2.795  30.186  0.00  0.00    +0.269 C 
ATOM     14  N   UNL A   1     -28.863  -4.095  30.458  0.00  0.00    -0.175 NA
ATOM     15  O   UNL A   1     -30.113  -2.301  30.420  0.00  0.00    -0.268 OA
BRANCH  14  16
ATOM     16  C   UNL A   1     -29.867  -5.003  30.226  0.00  0.00    +0.074 A 
ATOM     17  C   UNL A   1     -30.327  -5.713  31.375  0.00  0.00    +0.017 A 
ATOM     18  C   UNL A   1     -31.258  -6.794  31.206  0.00  0.00    +0.002 A 
ATOM     19  C   UNL A   1     -31.705  -7.089  29.907  0.00  0.00    +0.007 A 
ATOM     20  C   UNL A   1     -31.222  -6.351  28.793  0.00  0.00    +0.081 A 
ATOM     21  C   UNL A   1     -30.261  -5.354  28.978  0.00  0.00    +0.023 A 
BRANCH  20  22
ATOM     22  C   UNL A   1     -31.679  -6.689  27.451  0.00  0.00    +0.388 C 
ATOM     23  O   UNL A   1     -31.222  -7.618  26.815  0.00  0.00    -0.241 OA
ATOM     24  O   UNL A   1     -32.365  -5.761  26.797  0.00  0.00    -0.241 OA
ENDBRANCH  20  22
ENDBRANCH  14  16
ENDBRANCH   6  13
TORSDOF 4
