MODEL 4062
MODEL 1
REMARK VINA RESULT:    -7.953      0.000      0.000
REMARK INTER + INTRA:         -10.463
REMARK INTER:                  -9.812
REMARK INTRA:                  -0.651
REMARK UNBOUND:                -0.651
REMARK  Name = No_4062-gen_results/8p0m/2024-11-26-14-13-15/
REMARK  4 active torsions:
REMARK  status: ('A' for Active; 'I' for Inactive)
REMARK    1  A    between atoms: C_3  and  C_7
REMARK    2  A    between atoms: C_6  and  C_13
REMARK    3  A    between atoms: N_14  and  C_15
REMARK    4  A    between atoms: C_20  and  C_22
REMARK                            x       y       z     vdW  Elec       q    Type
REMARK                         _______ _______ _______ _____ _____    ______ ____
ROOT
ATOM      1  C   UNL A   1     -27.906   2.008  24.247  0.00  0.00    +0.005 A 
ATOM      2  C   UNL A   1     -28.944   2.235  23.671  0.00  0.00    +0.000 A 
ATOM      3  C   UNL A   1     -29.851   1.245  23.295  0.00  0.00    +0.000 A 
ATOM      4  C   UNL A   1     -29.522  -0.145  23.546  0.00  0.00    +0.000 A 
ATOM      5  C   UNL A   1     -28.307  -0.363  24.195  0.00  0.00    +0.005 A 
ATOM      6  C   UNL A   1     -27.503   0.635  24.506  0.00  0.00    +0.055 A 
ENDROOT
BRANCH   3   7
ATOM      7  C   UNL A   1     -31.155   1.441  22.586  0.00  0.00    +0.000 A 
ATOM      8  C   UNL A   1     -32.082   0.525  22.593  0.00  0.00    +0.000 A 
ATOM      9  C   UNL A   1     -33.286   0.685  21.843  0.00  0.00    +0.000 A 
ATOM     10  C   UNL A   1     -33.464   1.712  20.948  0.00  0.00    +0.000 A 
ATOM     11  C   UNL A   1     -31.331   2.576  21.667  0.00  0.00    +0.000 A 
ATOM     12  C   UNL A   1     -32.508   2.685  20.890  0.00  0.00    +0.000 A 
ENDBRANCH   3   7
BRANCH   6  13
ATOM     13  C   UNL A   1     -26.192   0.306  25.144  0.00  0.00    +0.269 C 
ATOM     14  N   UNL A   1     -25.963   0.594  26.430  0.00  0.00    -0.175 NA
ATOM     15  O   UNL A   1     -25.339  -0.346  24.557  0.00  0.00    -0.268 OA
BRANCH  14  16
ATOM     16  C   UNL A   1     -24.707   0.914  26.883  0.00  0.00    +0.074 A 
ATOM     17  C   UNL A   1     -24.068   1.994  26.203  0.00  0.00    +0.017 A 
ATOM     18  C   UNL A   1     -22.695   2.294  26.497  0.00  0.00    +0.002 A 
ATOM     19  C   UNL A   1     -22.041   1.525  27.474  0.00  0.00    +0.007 A 
ATOM     20  C   UNL A   1     -22.719   0.462  28.129  0.00  0.00    +0.081 A 
ATOM     21  C   UNL A   1     -24.032   0.144  27.770  0.00  0.00    +0.023 A 
BRANCH  20  22
ATOM     22  C   UNL A   1     -22.016  -0.340  29.122  0.00  0.00    +0.388 C 
ATOM     23  O   UNL A   1     -21.096  -1.080  28.837  0.00  0.00    -0.241 OA
ATOM     24  O   UNL A   1     -22.614  -0.508  30.294  0.00  0.00    -0.241 OA
ENDBRANCH  20  22
ENDBRANCH  14  16
ENDBRANCH   6  13
TORSDOF 4
ENDMDL
ENDMDL
