MODEL 4063
MODEL 1
REMARK VINA RESULT:    -7.169      0.000      0.000
REMARK INTER + INTRA:          -7.969
REMARK INTER:                  -7.588
REMARK INTRA:                  -0.381
REMARK UNBOUND:                -0.381
REMARK  Name = No_4063-gen_results/8p0m/2024-11-26-14-13-15/
REMARK  1 active torsions:
REMARK  status: ('A' for Active; 'I' for Inactive)
REMARK    1  A    between atoms: C_7  and  C_15
REMARK                            x       y       z     vdW  Elec       q    Type
REMARK                         _______ _______ _______ _____ _____    ______ ____
ROOT
ATOM      1  C   UNL A   1     -24.734  -2.662  28.965  0.00  0.00    -0.023 A 
ATOM      2  C   UNL A   1     -23.998  -3.388  28.765  0.00  0.00    -0.004 A 
ATOM      3  C   UNL A   1     -25.837  -3.085  29.780  0.00  0.00    -0.008 A 
ATOM      4  C   UNL A   1     -26.818  -2.109  30.296  0.00  0.00    -0.026 A 
ATOM      5  C   UNL A   1     -26.403  -0.787  30.542  0.00  0.00    +0.026 C 
ATOM      6  C   UNL A   1     -25.123  -0.383  30.111  0.00  0.00    +0.009 C 
ATOM      7  C   UNL A   1     -24.298  -1.249  29.495  0.00  0.00    +0.023 C 
ATOM      8  C   UNL A   1     -24.102  -4.667  28.585  0.00  0.00    -0.000 A 
ATOM      9  C   UNL A   1     -25.321  -5.184  29.066  0.00  0.00    -0.000 A 
ATOM     10  C   UNL A   1     -26.295  -4.366  29.690  0.00  0.00    -0.001 A 
ATOM     11  C   UNL A   1     -27.537  -4.841  30.172  0.00  0.00    -0.000 A 
ATOM     12  C   UNL A   1     -28.102  -2.402  30.844  0.00  0.00    -0.026 A 
ATOM     13  C   UNL A   1     -28.945  -1.712  31.344  0.00  0.00    +0.031 C 
ATOM     14  C   UNL A   1     -28.351  -3.955  30.699  0.00  0.00    -0.005 A 
ENDROOT
BRANCH   7  15
ATOM     15  C   UNL A   1     -23.022  -0.754  28.928  0.00  0.00    +0.004 C 
ATOM     16  C   UNL A   1     -22.089  -0.450  29.882  0.00  0.00    +0.000 C 
ATOM     17  C   UNL A   1     -23.214   0.313  27.862  0.00  0.00    +0.000 C 
ENDBRANCH   7  15
TORSDOF 1
ENDMDL
ENDMDL
