REMARK  Name = No_4064-gen_results/8p0m/2024-11-26-14-13-15/
REMARK  4 active torsions:
REMARK  status: ('A' for Active; 'I' for Inactive)
REMARK    1  A    between atoms: C_3  and  C_11
REMARK    2  A    between atoms: C_7  and  C_8
REMARK    3  A    between atoms: C_11  and  C_12
REMARK    4  A    between atoms: C_13  and  C_18
REMARK                            x       y       z     vdW  Elec       q    Type
REMARK                         _______ _______ _______ _____ _____    ______ ____
ROOT
ATOM      1  C   UNL A   1     -28.433   1.772  30.870  0.00  0.00    -0.018 A 
ATOM      2  C   UNL A   1     -29.052   2.529  30.642  0.00  0.00    -0.004 A 
ATOM      3  C   UNL A   1     -29.192   3.945  31.191  0.00  0.00    -0.000 A 
ATOM      4  C   UNL A   1     -28.290   4.278  32.185  0.00  0.00    -0.000 A 
ATOM      5  C   UNL A   1     -27.368   3.290  32.633  0.00  0.00    -0.000 A 
ATOM      6  C   UNL A   1     -27.341   2.025  31.999  0.00  0.00    -0.004 A 
ENDROOT
BRANCH   2   7
ATOM      7  C   UNL A   1     -30.119   2.412  29.551  0.00  0.00    -0.000 A 
ATOM      8  C   UNL A   1     -31.279   1.829  29.804  0.00  0.00    -0.000 A 
ATOM      9  C   UNL A   1     -29.487   1.970  28.242  0.00  0.00    -0.000 A 
ATOM     10  C   UNL A   1     -30.339   1.605  27.234  0.00  0.00    -0.000 A 
ATOM     11  C   UNL A   1     -32.201   1.515  28.786  0.00  0.00    -0.000 A 
ATOM     12  C   UNL A   1     -31.658   1.320  27.513  0.00  0.00    -0.000 A 
ENDBRANCH   2   7
BRANCH   1  13
ATOM     13  C   UNL A   1     -28.224   0.523  30.497  0.00  0.00    +0.058 C 
BRANCH  13  16
ATOM     14  O   UNL A   1     -28.123  -1.335  28.487  0.00  0.00    -0.266 OA
ATOM     15  C   UNL A   1     -27.064  -0.824  28.869  0.00  0.00    +0.276 A 
ATOM     16  C   UNL A   1     -27.025   0.188  29.736  0.00  0.00    +0.040 A 
ATOM     17  C   UNL A   1     -25.839   0.851  29.996  0.00  0.00    +0.009 A 
ATOM     18  N   UNL A   1     -25.779  -0.996  28.190  0.00  0.00    -0.206 NA
ATOM     19  C   UNL A   1     -24.612  -0.425  28.439  0.00  0.00    +0.109 A 
ATOM     20  C   UNL A   1     -24.586   0.556  29.370  0.00  0.00    +0.099 A 
BRANCH  20  21
ATOM     21  C   UNL A   1     -23.331   1.223  29.636  0.00  0.00    +0.389 C 
ATOM     22  O   UNL A   1     -22.247   0.784  29.219  0.00  0.00    -0.240 OA
ATOM     23  O   UNL A   1     -23.323   2.219  30.496  0.00  0.00    -0.240 OA
ENDBRANCH  20  21
ENDBRANCH  13  16
ENDBRANCH   1  13
TORSDOF 4
