MODEL 4064
MODEL 1
REMARK VINA RESULT:    -7.364      0.000      0.000
REMARK INTER + INTRA:         -10.595
REMARK INTER:                  -9.086
REMARK INTRA:                  -1.509
REMARK UNBOUND:                -1.509
REMARK  Name = No_4064-gen_results/8p0m/2024-11-26-14-13-15/
REMARK  4 active torsions:
REMARK  status: ('A' for Active; 'I' for Inactive)
REMARK    1  A    between atoms: C_3  and  C_11
REMARK    2  A    between atoms: C_7  and  C_8
REMARK    3  A    between atoms: C_11  and  C_12
REMARK    4  A    between atoms: C_13  and  C_18
REMARK                            x       y       z     vdW  Elec       q    Type
REMARK                         _______ _______ _______ _____ _____    ______ ____
ROOT
ATOM      1  C   UNL A   1     -23.453  -0.428  29.308  0.00  0.00    -0.018 A 
ATOM      2  C   UNL A   1     -24.043  -1.046  28.781  0.00  0.00    -0.004 A 
ATOM      3  C   UNL A   1     -24.758  -0.894  27.442  0.00  0.00    -0.000 A 
ATOM      4  C   UNL A   1     -24.555   0.317  26.805  0.00  0.00    -0.000 A 
ATOM      5  C   UNL A   1     -23.761   1.306  27.452  0.00  0.00    -0.000 A 
ATOM      6  C   UNL A   1     -23.135   1.001  28.684  0.00  0.00    -0.004 A 
ENDROOT
BRANCH   2   7
ATOM      7  C   UNL A   1     -24.390  -2.456  29.265  0.00  0.00    -0.000 A 
ATOM      8  C   UNL A   1     -23.925  -3.519  28.630  0.00  0.00    -0.000 A 
ATOM      9  C   UNL A   1     -25.867  -2.547  29.607  0.00  0.00    -0.000 A 
ATOM     10  C   UNL A   1     -26.375  -3.797  29.839  0.00  0.00    -0.000 A 
ATOM     11  C   UNL A   1     -24.382  -4.822  28.910  0.00  0.00    -0.000 A 
ATOM     12  C   UNL A   1     -25.673  -4.913  29.439  0.00  0.00    -0.000 A 
ENDBRANCH   2   7
BRANCH   1  13
ATOM     13  C   UNL A   1     -22.803  -0.427  30.457  0.00  0.00    +0.058 C 
BRANCH  13  16
ATOM     14  O   UNL A   1     -22.050  -1.768  32.723  0.00  0.00    -0.266 OA
ATOM     15  C   UNL A   1     -23.158  -1.219  32.706  0.00  0.00    +0.276 A 
ATOM     16  C   UNL A   1     -23.552  -0.426  31.709  0.00  0.00    +0.040 A 
ATOM     17  C   UNL A   1     -24.717   0.313  31.813  0.00  0.00    +0.009 A 
ATOM     18  N   UNL A   1     -24.016  -1.068  33.881  0.00  0.00    -0.206 NA
ATOM     19  C   UNL A   1     -25.161  -0.417  34.010  0.00  0.00    +0.109 A 
ATOM     20  C   UNL A   1     -25.572   0.330  32.960  0.00  0.00    +0.099 A 
BRANCH  20  21
ATOM     21  C   UNL A   1     -26.802   1.081  33.086  0.00  0.00    +0.389 C 
ATOM     22  O   UNL A   1     -27.177   1.886  32.218  0.00  0.00    -0.240 OA
ATOM     23  O   UNL A   1     -27.441   1.044  34.236  0.00  0.00    -0.240 OA
ENDBRANCH  20  21
ENDBRANCH  13  16
ENDBRANCH   1  13
TORSDOF 4
ENDMDL
ENDMDL
