REMARK  Name = No_4065-gen_results/8p0m/2024-11-26-14-13-15/
REMARK  7 active torsions:
REMARK  status: ('A' for Active; 'I' for Inactive)
REMARK    1  A    between atoms: C_2  and  C_26
REMARK    2  A    between atoms: C_3  and  C_7
REMARK    3  A    between atoms: C_7  and  C_15
REMARK    4  A    between atoms: C_8  and  C_9
REMARK    5  A    between atoms: C_18  and  C_22
REMARK    6  A    between atoms: C_22  and  O_25
REMARK    7  A    between atoms: O_25  and  C_29
REMARK                            x       y       z     vdW  Elec       q    Type
REMARK                         _______ _______ _______ _____ _____    ______ ____
ROOT
ATOM      1  C   UNL A   1     -27.114   0.469  26.067  0.00  0.00    +0.249 C 
ATOM      2  N   UNL A   1     -28.268   0.721  25.914  0.00  0.00    -0.276 N 
ATOM      3  C   UNL A   1     -29.040   1.167  26.895  0.00  0.00    +0.105 C 
ATOM      4  C   UNL A   1     -30.560   1.377  26.460  0.00  0.00    +0.119 C 
ATOM      5  C   UNL A   1     -28.959   0.402  24.690  0.00  0.00    +0.094 C 
ATOM      6  O   UNL A   1     -26.322   0.299  25.014  0.00  0.00    -0.270 OA
ATOM      7  C   UNL A   1     -30.272   0.554  24.390  0.00  0.00    +0.022 C 
ATOM      8  C   UNL A   1     -30.991   1.053  25.274  0.00  0.00    +0.015 C 
ENDROOT
BRANCH   1   9
ATOM      9  C   UNL A   1     -26.399   0.295  27.228  0.00  0.00    +0.054 C 
ATOM     10  C   UNL A   1     -25.039   0.236  27.354  0.00  0.00    +0.004 C 
BRANCH   9  13
ATOM     11  C   UNL A   1     -28.016  -0.814  28.878  0.00  0.00    +0.007 A 
ATOM     12  C   UNL A   1     -28.469  -0.785  29.829  0.00  0.00    +0.080 A 
ATOM     13  C   UNL A   1     -27.136   0.236  28.535  0.00  0.00    +0.005 A 
ATOM     14  C   UNL A   1     -26.875   1.282  29.398  0.00  0.00    +0.000 A 
ATOM     15  C   UNL A   1     -28.361   0.199  30.924  0.00  0.00    +0.007 A 
ATOM     16  C   UNL A   1     -27.528   1.223  30.636  0.00  0.00    +0.000 A 
BRANCH  12  17
ATOM     17  C   UNL A   1     -29.521  -1.899  30.302  0.00  0.00    +0.388 C 
ATOM     18  O   UNL A   1     -29.314  -2.928  30.682  0.00  0.00    -0.241 OA
ATOM     19  O   UNL A   1     -30.849  -1.649  29.889  0.00  0.00    -0.241 OA
ENDBRANCH  12  17
ENDBRANCH   9  13
BRANCH  10  20
ATOM     20  C   UNL A   1     -24.437   0.006  28.583  0.00  0.00    +0.000 A 
ATOM     21  C   UNL A   1     -22.945   0.264  28.608  0.00  0.00    +0.000 A 
ATOM     22  C   UNL A   1     -22.122  -0.319  29.558  0.00  0.00    +0.000 A 
ATOM     23  C   UNL A   1     -22.775  -0.974  30.621  0.00  0.00    +0.000 A 
ATOM     24  C   UNL A   1     -24.699  -0.858  29.683  0.00  0.00    +0.000 A 
ATOM     25  C   UNL A   1     -23.919  -1.332  30.628  0.00  0.00    +0.000 A 
ENDBRANCH  10  20
ENDBRANCH   1   9
BRANCH   4  26
ATOM     26  C   UNL A   1     -31.433   1.915  27.537  0.00  0.00    +0.323 C 
ATOM     27  O   UNL A   1     -32.442   1.665  27.759  0.00  0.00    -0.250 OA
BRANCH  26  28
ATOM     28  O   UNL A   1     -30.826   2.999  28.182  0.00  0.00    -0.424 OA
BRANCH  28  29
ATOM     29  C   UNL A   1     -31.091   3.209  29.535  0.00  0.00    +0.148 A 
ATOM     30  C   UNL A   1     -31.636   2.560  30.256  0.00  0.00    +0.038 A 
ATOM     31  C   UNL A   1     -31.802   2.819  31.685  0.00  0.00    +0.003 A 
ATOM     32  C   UNL A   1     -31.245   4.010  32.141  0.00  0.00    -0.004 A 
ATOM     33  C   UNL A   1     -30.329   4.459  29.960  0.00  0.00    +0.033 A 
ATOM     34  C   UNL A   1     -30.511   4.819  31.302  0.00  0.00    -0.019 A 
ATOM     35  C   UNL A   1     -29.890   6.083  31.805  0.00  0.00    +0.031 C 
ENDBRANCH  28  29
ENDBRANCH  26  28
ENDBRANCH   4  26
TORSDOF 7
