MODEL 4065
MODEL 1
REMARK VINA RESULT:    -8.695      0.000      0.000
REMARK INTER + INTRA:         -14.065
REMARK INTER:                 -12.253
REMARK INTRA:                  -1.812
REMARK UNBOUND:                -1.812
REMARK  Name = No_4065-gen_results/8p0m/2024-11-26-14-13-15/
REMARK  7 active torsions:
REMARK  status: ('A' for Active; 'I' for Inactive)
REMARK    1  A    between atoms: C_2  and  C_26
REMARK    2  A    between atoms: C_3  and  C_7
REMARK    3  A    between atoms: C_7  and  C_15
REMARK    4  A    between atoms: C_8  and  C_9
REMARK    5  A    between atoms: C_18  and  C_22
REMARK    6  A    between atoms: C_22  and  O_25
REMARK    7  A    between atoms: O_25  and  C_29
REMARK                            x       y       z     vdW  Elec       q    Type
REMARK                         _______ _______ _______ _____ _____    ______ ____
ROOT
ATOM      1  C   UNL A   1     -23.360   0.598  28.145  0.00  0.00    +0.249 C 
ATOM      2  N   UNL A   1     -23.927   1.483  27.585  0.00  0.00    -0.276 N 
ATOM      3  C   UNL A   1     -25.228   1.697  27.717  0.00  0.00    +0.105 C 
ATOM      4  C   UNL A   1     -25.767   2.904  26.824  0.00  0.00    +0.119 C 
ATOM      5  C   UNL A   1     -23.274   2.291  26.585  0.00  0.00    +0.094 C 
ATOM      6  O   UNL A   1     -22.033   0.590  28.209  0.00  0.00    -0.270 OA
ATOM      7  C   UNL A   1     -23.796   3.275  25.813  0.00  0.00    +0.022 C 
ATOM      8  C   UNL A   1     -24.997   3.544  25.990  0.00  0.00    +0.015 C 
ENDROOT
BRANCH   1   9
ATOM      9  C   UNL A   1     -23.869  -0.511  28.776  0.00  0.00    +0.054 C 
ATOM     10  C   UNL A   1     -24.289  -1.671  28.186  0.00  0.00    +0.004 C 
BRANCH   9  13
ATOM     11  C   UNL A   1     -24.999  -0.014  31.022  0.00  0.00    +0.007 A 
ATOM     12  C   UNL A   1     -24.959  -0.100  32.071  0.00  0.00    +0.080 A 
ATOM     13  C   UNL A   1     -23.919  -0.537  30.276  0.00  0.00    +0.005 A 
ATOM     14  C   UNL A   1     -22.832  -1.134  30.885  0.00  0.00    +0.000 A 
ATOM     15  C   UNL A   1     -23.934  -0.685  32.957  0.00  0.00    +0.007 A 
ATOM     16  C   UNL A   1     -22.880  -1.197  32.283  0.00  0.00    +0.000 A 
BRANCH  12  17
ATOM     17  C   UNL A   1     -26.106   0.502  33.016  0.00  0.00    +0.388 C 
ATOM     18  O   UNL A   1     -27.148   0.128  33.162  0.00  0.00    -0.241 OA
ATOM     19  O   UNL A   1     -25.857   1.821  33.455  0.00  0.00    -0.241 OA
ENDBRANCH  12  17
ENDBRANCH   9  13
BRANCH  10  20
ATOM     20  C   UNL A   1     -24.833  -2.706  28.934  0.00  0.00    +0.000 A 
ATOM     21  C   UNL A   1     -24.171  -4.050  28.717  0.00  0.00    +0.000 A 
ATOM     22  C   UNL A   1     -24.826  -5.238  29.001  0.00  0.00    +0.000 A 
ATOM     23  C   UNL A   1     -26.041  -5.118  29.706  0.00  0.00    +0.000 A 
ATOM     24  C   UNL A   1     -26.122  -2.990  29.466  0.00  0.00    +0.000 A 
ATOM     25  C   UNL A   1     -26.696  -4.120  29.812  0.00  0.00    +0.000 A 
ENDBRANCH  10  20
ENDBRANCH   1   9
BRANCH   4  26
ATOM     26  C   UNL A   1     -27.218   3.184  26.990  0.00  0.00    +0.323 C 
ATOM     27  O   UNL A   1     -27.685   4.068  27.352  0.00  0.00    -0.250 OA
BRANCH  26  28
ATOM     28  O   UNL A   1     -27.980   2.029  26.779  0.00  0.00    -0.424 OA
BRANCH  28  29
ATOM     29  C   UNL A   1     -28.572   1.834  25.532  0.00  0.00    +0.148 A 
ATOM     30  C   UNL A   1     -28.952   2.587  24.805  0.00  0.00    +0.038 A 
ATOM     31  C   UNL A   1     -29.489   2.300  23.477  0.00  0.00    +0.003 A 
ATOM     32  C   UNL A   1     -29.547   0.952  23.139  0.00  0.00    -0.004 A 
ATOM     33  C   UNL A   1     -28.464   0.350  25.203  0.00  0.00    +0.033 A 
ATOM     34  C   UNL A   1     -29.037  -0.015  23.977  0.00  0.00    -0.019 A 
ATOM     35  C   UNL A   1     -29.076  -1.460  23.595  0.00  0.00    +0.031 C 
ENDBRANCH  28  29
ENDBRANCH  26  28
ENDBRANCH   4  26
TORSDOF 7
ENDMDL
ENDMDL
