MODEL 4066
MODEL 1
REMARK VINA RESULT:    -6.493      0.000      0.000
REMARK INTER + INTRA:          -8.080
REMARK INTER:                  -7.632
REMARK INTRA:                  -0.449
REMARK UNBOUND:                -0.449
REMARK  Name = No_4066-gen_results/8p0m/2024-11-26-14-13-15/
REMARK  3 active torsions:
REMARK  status: ('A' for Active; 'I' for Inactive)
REMARK    1  A    between atoms: C_2  and  C_7
REMARK    2  A    between atoms: C_8  and  C_9
REMARK    3  A    between atoms: C_9  and  C_10
REMARK                            x       y       z     vdW  Elec       q    Type
REMARK                         _______ _______ _______ _____ _____    ______ ____
ROOT
ATOM      1  C   UNL A   1      -9.559   0.231  37.969  0.00  0.00    -0.004 C 
ATOM      2  C   UNL A   1      -9.817   1.185  36.983  0.00  0.00    -0.021 C 
ENDROOT
BRANCH   1   4
ATOM      3  C   UNL A   1     -10.825  -1.730  37.425  0.00  0.00    -0.000 A 
ATOM      4  C   UNL A   1     -10.582  -0.861  38.230  0.00  0.00    -0.000 A 
ATOM      5  C   UNL A   1     -11.178  -0.767  39.446  0.00  0.00    -0.000 A 
ATOM      6  C   UNL A   1     -12.139  -1.734  39.797  0.00  0.00    -0.000 A 
ATOM      7  C   UNL A   1     -11.726  -2.805  37.754  0.00  0.00    -0.000 A 
ATOM      8  C   UNL A   1     -12.372  -2.741  38.952  0.00  0.00    -0.000 A 
ENDBRANCH   1   4
BRANCH   2   9
ATOM      9  C   UNL A   1     -10.856   0.938  36.121  0.00  0.00    +0.056 C 
BRANCH   9  10
ATOM     10  C   UNL A   1     -11.863   1.511  35.894  0.00  0.00    +0.021 A 
ATOM     11  C   UNL A   1     -12.580   2.104  37.044  0.00  0.00    -0.001 A 
ATOM     12  C   UNL A   1     -13.758   2.825  36.837  0.00  0.00    -0.000 A 
ATOM     13  C   UNL A   1     -14.163   3.075  35.526  0.00  0.00    +0.003 A 
ATOM     14  C   UNL A   1     -13.468   2.632  34.459  0.00  0.00    +0.042 A 
ATOM     15  C   UNL A   1     -12.345   1.914  34.587  0.00  0.00    +0.192 A 
ATOM     16  O   UNL A   1     -11.354   2.408  33.993  0.00  0.00    -0.287 OA
ENDBRANCH   9  10
ENDBRANCH   2   9
TORSDOF 3
ENDMDL
ENDMDL
