REMARK  Name = No_4066-gen_results/8p0m/2024-11-26-14-13-15/
REMARK  3 active torsions:
REMARK  status: ('A' for Active; 'I' for Inactive)
REMARK    1  A    between atoms: C_2  and  C_7
REMARK    2  A    between atoms: C_8  and  C_9
REMARK    3  A    between atoms: C_9  and  C_10
REMARK                            x       y       z     vdW  Elec       q    Type
REMARK                         _______ _______ _______ _____ _____    ______ ____
ROOT
ATOM      1  C   UNL A   1     -25.891  -0.626  27.786  0.00  0.00    -0.004 C 
ATOM      2  C   UNL A   1     -25.463   0.112  26.681  0.00  0.00    -0.021 C 
ENDROOT
BRANCH   1   4
ATOM      3  C   UNL A   1     -28.016  -0.814  28.878  0.00  0.00    -0.000 A 
ATOM      4  C   UNL A   1     -27.064  -0.119  28.608  0.00  0.00    -0.000 A 
ATOM      5  C   UNL A   1     -26.929   1.171  29.008  0.00  0.00    -0.000 A 
ATOM      6  C   UNL A   1     -27.956   1.741  29.784  0.00  0.00    -0.000 A 
ATOM      7  C   UNL A   1     -29.057  -0.327  29.747  0.00  0.00    -0.000 A 
ATOM      8  C   UNL A   1     -28.983   0.972  30.152  0.00  0.00    -0.000 A 
ENDBRANCH   1   4
BRANCH   2   9
ATOM      9  C   UNL A   1     -26.285   1.118  26.236  0.00  0.00    +0.056 C 
BRANCH   9  10
ATOM     10  C   UNL A   1     -27.456   1.266  26.259  0.00  0.00    +0.021 A 
ATOM     11  C   UNL A   1     -28.025   2.308  25.376  0.00  0.00    -0.001 A 
ATOM     12  C   UNL A   1     -29.407   2.507  25.331  0.00  0.00    -0.000 A 
ATOM     13  C   UNL A   1     -30.229   1.625  26.032  0.00  0.00    +0.003 A 
ATOM     14  C   UNL A   1     -29.736   0.603  26.761  0.00  0.00    +0.042 A 
ATOM     15  C   UNL A   1     -28.422   0.371  26.867  0.00  0.00    +0.192 A 
ATOM     16  O   UNL A   1     -28.079  -0.788  26.524  0.00  0.00    -0.287 OA
ENDBRANCH   9  10
ENDBRANCH   2   9
TORSDOF 3
