REMARK  Name = No_4067-gen_results/8p0m/2024-11-26-14-13-15/
REMARK  3 active torsions:
REMARK  status: ('A' for Active; 'I' for Inactive)
REMARK    1  A    between atoms: C_1  and  C_2
REMARK    2  A    between atoms: C_1  and  C_8
REMARK    3  A    between atoms: C_8  and  C_10
REMARK                            x       y       z     vdW  Elec       q    Type
REMARK                         _______ _______ _______ _____ _____    ______ ____
ROOT
ATOM      1  C   UNL A   1     -27.064  -0.119  28.608  0.00  0.00    -0.025 A 
ATOM      2  C   UNL A   1     -26.876   1.133  28.913  0.00  0.00    -0.025 A 
ATOM      3  C   UNL A   1     -25.688   1.952  28.567  0.00  0.00    -0.013 A 
ATOM      4  C   UNL A   1     -24.639   1.283  27.875  0.00  0.00    +0.072 A 
ATOM      5  C   UNL A   1     -24.807  -0.051  27.604  0.00  0.00    +0.006 A 
ATOM      6  C   UNL A   1     -25.902  -0.767  27.951  0.00  0.00    -0.004 A 
ATOM      7  C   UNL A   1     -23.432   1.990  27.486  0.00  0.00    +0.341 C 
ATOM      8  O   UNL A   1     -22.538   1.756  27.093  0.00  0.00    -0.245 OA
ATOM      9  O   UNL A   1     -23.675   3.413  27.642  0.00  0.00    -0.445 OA
ATOM     10  C   UNL A   1     -27.917   1.930  29.645  0.00  0.00    +0.052 C 
ATOM     11  C   UNL A   1     -27.852   3.159  29.601  0.00  0.00    -0.021 A 
ATOM     12  C   UNL A   1     -28.784   3.918  30.353  0.00  0.00    -0.004 A 
ATOM     13  C   UNL A   1     -28.738   5.349  30.423  0.00  0.00    -0.000 A 
ATOM     14  C   UNL A   1     -27.753   5.984  29.664  0.00  0.00    -0.000 A 
ATOM     15  C   UNL A   1     -26.794   5.300  28.931  0.00  0.00    -0.004 A 
ATOM     16  C   UNL A   1     -26.864   3.904  28.950  0.00  0.00    -0.018 A 
ATOM     17  C   UNL A   1     -25.777   3.154  28.389  0.00  0.00    +0.088 C 
ATOM     18  C   UNL A   1     -24.658   3.975  27.966  0.00  0.00    +0.217 C 
ENDROOT
BRANCH   1  19
ATOM     19  C   UNL A   1     -28.016  -0.814  28.878  0.00  0.00    +0.037 C 
BRANCH  19  20
ATOM     20  C   UNL A   1     -28.068  -1.448  30.271  0.00  0.00    +0.108 C 
ATOM     21  C   UNL A   1     -27.036  -1.667  30.824  0.00  0.00    +0.012 C 
BRANCH  20  22
ATOM     22  C   UNL A   1     -29.398  -1.884  30.753  0.00  0.00    +0.365 C 
ATOM     23  O   UNL A   1     -29.584  -2.925  31.233  0.00  0.00    -0.246 OA
ATOM     24  O   UNL A   1     -30.445  -1.186  30.363  0.00  0.00    -0.246 OA
ENDBRANCH  20  22
ENDBRANCH  19  20
ENDBRANCH   1  19
TORSDOF 3
