MODEL 4067
MODEL 1
REMARK VINA RESULT:    -7.498      0.000      0.000
REMARK INTER + INTRA:          -9.422
REMARK INTER:                  -8.813
REMARK INTRA:                  -0.609
REMARK UNBOUND:                -0.609
REMARK  Name = No_4067-gen_results/8p0m/2024-11-26-14-13-15/
REMARK  3 active torsions:
REMARK  status: ('A' for Active; 'I' for Inactive)
REMARK    1  A    between atoms: C_1  and  C_2
REMARK    2  A    between atoms: C_1  and  C_8
REMARK    3  A    between atoms: C_8  and  C_10
REMARK                            x       y       z     vdW  Elec       q    Type
REMARK                         _______ _______ _______ _____ _____    ______ ____
ROOT
ATOM      1  C   UNL A   1     -11.131   0.500  38.333  0.00  0.00    -0.025 A 
ATOM      2  C   UNL A   1     -11.904   1.381  37.765  0.00  0.00    -0.025 A 
ATOM      3  C   UNL A   1     -11.877   1.780  36.336  0.00  0.00    -0.013 A 
ATOM      4  C   UNL A   1     -10.878   1.169  35.528  0.00  0.00    +0.072 A 
ATOM      5  C   UNL A   1     -10.023   0.284  36.135  0.00  0.00    +0.006 A 
ATOM      6  C   UNL A   1     -10.071  -0.042  37.448  0.00  0.00    -0.004 A 
ATOM      7  C   UNL A   1     -10.764   1.485  34.115  0.00  0.00    +0.341 C 
ATOM      8  O   UNL A   1     -10.125   1.285  33.367  0.00  0.00    -0.245 OA
ATOM      9  O   UNL A   1     -11.962   2.203  33.718  0.00  0.00    -0.445 OA
ATOM     10  C   UNL A   1     -12.987   2.087  38.528  0.00  0.00    +0.052 C 
ATOM     11  C   UNL A   1     -13.893   2.628  37.894  0.00  0.00    -0.021 A 
ATOM     12  C   UNL A   1     -14.877   3.363  38.603  0.00  0.00    -0.004 A 
ATOM     13  C   UNL A   1     -15.923   4.089  37.945  0.00  0.00    -0.000 A 
ATOM     14  C   UNL A   1     -15.970   3.999  36.552  0.00  0.00    -0.000 A 
ATOM     15  C   UNL A   1     -15.023   3.322  35.798  0.00  0.00    -0.004 A 
ATOM     16  C   UNL A   1     -13.999   2.681  36.501  0.00  0.00    -0.018 A 
ATOM     17  C   UNL A   1     -12.886   2.154  35.764  0.00  0.00    +0.088 C 
ATOM     18  C   UNL A   1     -12.920   2.471  34.349  0.00  0.00    +0.217 C 
ENDROOT
BRANCH   1  19
ATOM     19  C   UNL A   1     -11.124   0.156  39.493  0.00  0.00    +0.037 C 
BRANCH  19  20
ATOM     20  C   UNL A   1     -11.267  -1.338  39.798  0.00  0.00    +0.108 C 
ATOM     21  C   UNL A   1     -12.209  -1.912  39.348  0.00  0.00    +0.012 C 
BRANCH  20  22
ATOM     22  C   UNL A   1     -10.304  -1.914  40.762  0.00  0.00    +0.365 C 
ATOM     23  O   UNL A   1     -10.623  -2.624  41.624  0.00  0.00    -0.246 OA
ATOM     24  O   UNL A   1      -9.102  -1.377  40.816  0.00  0.00    -0.246 OA
ENDBRANCH  20  22
ENDBRANCH  19  20
ENDBRANCH   1  19
TORSDOF 3
ENDMDL
ENDMDL
