MODEL 4068
MODEL 1
REMARK VINA RESULT:    -6.006      0.000      0.000
REMARK INTER + INTRA:          -6.598
REMARK INTER:                  -6.357
REMARK INTRA:                  -0.241
REMARK UNBOUND:                -0.241
REMARK  Name = No_4068-gen_results/8p0m/2024-11-26-14-13-15/
REMARK  1 active torsions:
REMARK  status: ('A' for Active; 'I' for Inactive)
REMARK    1  A    between atoms: C_3  and  C_4
REMARK                            x       y       z     vdW  Elec       q    Type
REMARK                         _______ _______ _______ _____ _____    ______ ____
ROOT
ATOM      1  C   UNL A   1     -24.004  -4.212  28.685  0.00  0.00    +0.002 A 
ATOM      2  C   UNL A   1     -24.742  -4.931  28.906  0.00  0.00    +0.000 A 
ATOM      3  C   UNL A   1     -24.259  -2.872  29.050  0.00  0.00    +0.018 A 
ATOM      4  C   UNL A   1     -26.064  -4.802  29.545  0.00  0.00    +0.000 A 
ATOM      5  C   UNL A   1     -26.385  -3.501  29.931  0.00  0.00    +0.000 A 
ATOM      6  C   UNL A   1     -25.478  -2.509  29.739  0.00  0.00    +0.002 A 
ENDROOT
BRANCH   3   7
ATOM      7  C   UNL A   1     -23.283  -1.759  28.909  0.00  0.00    +0.090 C 
ATOM      8  N   UNL A   1     -22.325  -1.508  29.227  0.00  0.00    -0.235 NA
ATOM      9  C   UNL A   1     -23.980  -0.478  28.254  0.00  0.00    +0.062 C 
ATOM     10  C   UNL A   1     -21.838  -0.254  28.952  0.00  0.00    +0.140 C 
ATOM     11  C   UNL A   1     -22.915   0.388  28.303  0.00  0.00    -0.079 C 
ENDBRANCH   3   7
TORSDOF 1
ENDMDL
ENDMDL
