MODEL 4069
MODEL 1
REMARK VINA RESULT:    -6.197      0.000      0.000
REMARK INTER + INTRA:          -7.826
REMARK INTER:                  -7.284
REMARK INTRA:                  -0.542
REMARK UNBOUND:                -0.542
REMARK  Name = No_4069-gen_results/8p0m/2024-11-26-14-13-15/
REMARK  3 active torsions:
REMARK  status: ('A' for Active; 'I' for Inactive)
REMARK    1  A    between atoms: C_4  and  C_14
REMARK    2  A    between atoms: C_5  and  C_11
REMARK    3  A    between atoms: C_15  and  C_17
REMARK                            x       y       z     vdW  Elec       q    Type
REMARK                         _______ _______ _______ _____ _____    ______ ____
ROOT
ATOM      1  C   UNL A   1     -23.005  -1.284  29.569  0.00  0.00    -0.000 A 
ATOM      2  C   UNL A   1     -23.113  -0.451  28.699  0.00  0.00    -0.000 A 
ATOM      3  C   UNL A   1     -24.136  -0.413  27.807  0.00  0.00    -0.000 A 
ATOM      4  C   UNL A   1     -24.283   0.600  26.739  0.00  0.00    +0.003 A 
ATOM      5  C   UNL A   1     -23.277   1.619  26.668  0.00  0.00    +0.080 A 
ATOM      6  C   UNL A   1     -22.269   1.587  27.657  0.00  0.00    +0.007 A 
ATOM      7  C   UNL A   1     -22.197   0.614  28.620  0.00  0.00    +0.000 A 
ATOM      8  C   UNL A   1     -24.301  -1.775  30.217  0.00  0.00    -0.000 A 
ATOM      9  C   UNL A   1     -25.239  -2.167  29.321  0.00  0.00    -0.000 A 
ATOM     10  C   UNL A   1     -25.348  -1.200  28.169  0.00  0.00    -0.000 A 
ENDROOT
BRANCH   5  11
ATOM     11  C   UNL A   1     -23.240   2.618  25.632  0.00  0.00    +0.388 C 
ATOM     12  O   UNL A   1     -22.583   2.577  24.780  0.00  0.00    -0.241 OA
ATOM     13  O   UNL A   1     -24.024   3.696  25.892  0.00  0.00    -0.241 OA
ENDBRANCH   5  11
BRANCH   4  14
ATOM     14  C   UNL A   1     -25.360   0.622  25.769  0.00  0.00    -0.020 C 
ATOM     15  C   UNL A   1     -26.543   1.309  26.055  0.00  0.00    +0.018 C 
ATOM     16  C   UNL A   1     -25.295  -0.286  24.723  0.00  0.00    +0.031 C 
BRANCH  15  17
ATOM     17  C   UNL A   1     -26.810   2.048  27.254  0.00  0.00    +0.122 C 
ATOM     18  N   UNL A   1     -27.363   3.241  27.052  0.00  0.00    -0.146 NA
ENDBRANCH  15  17
ENDBRANCH   4  14
TORSDOF 3
ENDMDL
ENDMDL
