MODEL 406
MODEL 1
REMARK VINA RESULT:    -4.279      0.000      0.000
REMARK INTER + INTRA:          -4.279
REMARK INTER:                  -4.279
REMARK INTRA:                   0.000
REMARK UNBOUND:                 0.000
REMARK  Name = No_406-gen_results/8p0m/2024-11-26-14-13-15/
REMARK  0 active torsions:
REMARK  status: ('A' for Active; 'I' for Inactive)
REMARK                            x       y       z     vdW  Elec       q    Type
REMARK                         _______ _______ _______ _____ _____    ______ ____
ROOT
ATOM      1  C   UNL A   1     -25.427  -2.539  29.739  0.00  0.00    +0.011 A 
ATOM      2  C   UNL A   1     -24.388  -2.882  29.225  0.00  0.00    +0.058 A 
ATOM      3  C   UNL A   1     -24.132  -4.221  28.946  0.00  0.00    +0.011 A 
ATOM      4  C   UNL A   1     -25.075  -5.115  28.999  0.00  0.00    +0.001 A 
ATOM      5  C   UNL A   1     -26.319  -4.752  29.622  0.00  0.00    +0.000 A 
ATOM      6  C   UNL A   1     -26.462  -3.498  29.996  0.00  0.00    +0.001 A 
ATOM      7 CL   UNL A   1     -23.041  -1.797  29.015  0.00  0.00    -0.082 Cl
ENDROOT
TORSDOF 0
ENDMDL
ENDMDL
