REMARK  Name = No_407-gen_results/8p0m/2024-11-26-14-13-15/
REMARK  1 active torsions:
REMARK  status: ('A' for Active; 'I' for Inactive)
REMARK    1  A    between atoms: C_3  and  C_7
REMARK                            x       y       z     vdW  Elec       q    Type
REMARK                         _______ _______ _______ _____ _____    ______ ____
ROOT
ATOM      1  C   UNL A   1     -28.016  -0.814  28.878  0.00  0.00    +0.042 A 
ATOM      2  C   UNL A   1     -27.064  -0.119  28.608  0.00  0.00    +0.008 A 
ATOM      3  C   UNL A   1     -25.765  -0.390  29.036  0.00  0.00    +0.058 A 
ATOM      4  C   UNL A   1     -25.530  -1.530  29.901  0.00  0.00    +0.008 A 
ATOM      5  C   UNL A   1     -26.658  -2.292  30.203  0.00  0.00    +0.042 A 
ATOM      6  C   UNL A   1     -27.855  -1.956  29.763  0.00  0.00    +0.196 A 
ATOM      7  O   UNL A   1     -28.929  -2.741  30.132  0.00  0.00    -0.287 OA
ENDROOT
BRANCH   3   8
ATOM      8  C   UNL A   1     -24.535   0.413  28.743  0.00  0.00    +0.275 C 
ATOM      9  N   UNL A   1     -24.109   1.198  29.521  0.00  0.00    -0.232 NA
ATOM     10  O   UNL A   1     -24.279   0.736  27.507  0.00  0.00    -0.266 OA
ATOM     11  C   UNL A   1     -22.960   2.059  29.344  0.00  0.00    +0.155 C 
ENDBRANCH   3   8
TORSDOF 1
