REMARK  Name = No_4070-gen_results/8p0m/2024-11-26-14-13-15/
REMARK  6 active torsions:
REMARK  status: ('A' for Active; 'I' for Inactive)
REMARK    1  A    between atoms: C_2  and  C_13
REMARK    2  A    between atoms: C_5  and  O_7
REMARK    3  A    between atoms: O_7  and  C_8
REMARK    4  A    between atoms: C_8  and  C_9
REMARK    5  A    between atoms: N_11  and  C_12
REMARK    6  A    between atoms: C_12  and  C_16
REMARK                            x       y       z     vdW  Elec       q    Type
REMARK                         _______ _______ _______ _____ _____    ______ ____
ROOT
ATOM      1  O   UNL A   1     -28.719  -2.736  30.278  0.00  0.00    -0.466 OA
ENDROOT
BRANCH   1   6
ATOM      2  C   UNL A   1     -28.016  -0.814  28.878  0.00  0.00    +0.043 A 
ATOM      3  C   UNL A   1     -27.064  -0.119  28.608  0.00  0.00    +0.083 A 
ATOM      4  C   UNL A   1     -25.765  -0.390  29.036  0.00  0.00    +0.007 A 
ATOM      5  C   UNL A   1     -25.489  -1.154  29.717  0.00  0.00    +0.003 A 
ATOM      6  C   UNL A   1     -27.761  -1.903  29.857  0.00  0.00    +0.140 A 
ATOM      7  C   UNL A   1     -26.478  -2.106  30.236  0.00  0.00    +0.037 A 
BRANCH   3   8
ATOM      8  C   UNL A   1     -27.316   1.050  27.620  0.00  0.00    +0.388 C 
ATOM      9  O   UNL A   1     -26.616   1.359  26.788  0.00  0.00    -0.241 OA
ATOM     10  O   UNL A   1     -28.265   1.868  28.024  0.00  0.00    -0.241 OA
ENDBRANCH   3   8
ENDBRANCH   1   6
BRANCH   1  11
ATOM     11  C   UNL A   1     -28.463  -4.022  30.576  0.00  0.00    +0.291 C 
BRANCH  11  12
ATOM     12  C   UNL A   1     -29.634  -4.687  31.183  0.00  0.00    +0.286 C 
ATOM     13  O   UNL A   1     -29.550  -5.767  31.475  0.00  0.00    -0.269 OA
ATOM     14  N   UNL A   1     -30.709  -3.966  31.467  0.00  0.00    -0.193 NA
BRANCH  14  15
ATOM     15  C   UNL A   1     -31.880  -4.581  32.069  0.00  0.00    +0.218 C 
BRANCH  15  16
ATOM     16  C   UNL A   1     -31.850  -4.998  33.172  0.00  0.00    +0.417 C 
ATOM     17  F   UNL A   1     -32.912  -5.754  33.560  0.00  0.00    -0.168 F 
ATOM     18  F   UNL A   1     -31.805  -3.967  34.126  0.00  0.00    -0.168 F 
ATOM     19  F   UNL A   1     -30.806  -5.787  33.464  0.00  0.00    -0.168 F 
ENDBRANCH  15  16
ENDBRANCH  14  15
ENDBRANCH  11  12
ENDBRANCH   1  11
TORSDOF 6
