MODEL 4071
MODEL 1
REMARK VINA RESULT:    -5.028      0.000      0.000
REMARK INTER + INTRA:          -6.094
REMARK INTER:                  -5.909
REMARK INTRA:                  -0.184
REMARK UNBOUND:                -0.184
REMARK  Name = No_4071-gen_results/8p0m/2024-11-26-14-13-15/
REMARK  3 active torsions:
REMARK  status: ('A' for Active; 'I' for Inactive)
REMARK    1  A    between atoms: C_2  and  CA_7
REMARK    2  A    between atoms: CA_7  and  C_8
REMARK    3  A    between atoms: CA_7  and  N_11
REMARK                            x       y       z     vdW  Elec       q    Type
REMARK                         _______ _______ _______ _____ _____    ______ ____
ROOT
ATOM      1  C   UNL A   1     -24.078  -3.272  28.885  0.00  0.00    -0.003 A 
ATOM      2  C   UNL A   1     -24.554  -2.734  29.656  0.00  0.00    +0.000 A 
ATOM      3  C   UNL A   1     -24.212  -4.723  29.016  0.00  0.00    -0.000 A 
ATOM      4  C   UNL A   1     -25.303  -5.271  28.861  0.00  0.00    -0.000 A 
ATOM      5  C   UNL A   1     -26.056  -3.080  29.982  0.00  0.00    -0.024 A 
ATOM      6  C   UNL A   1     -26.345  -4.468  29.772  0.00  0.00    -0.004 A 
ATOM      7  C   UNL A   1     -27.023  -2.118  30.338  0.00  0.00    +0.031 C 
ENDROOT
BRANCH   2   8
ATOM      8  CA  UNL A   1     -24.697  -1.149  29.547  0.00  0.00    +0.198 C 
BRANCH   8   9
ATOM      9  C   UNL A   1     -24.409  -0.698  28.209  0.00  0.00    +0.384 C 
ATOM     10  O   UNL A   1     -25.365  -0.675  27.433  0.00  0.00    -0.244 OA
ATOM     11  OXT UNL A   1     -23.360  -0.077  27.987  0.00  0.00    -0.244 OA
ENDBRANCH   8   9
BRANCH   8  12
ATOM     12  N   UNL A   1     -23.992  -0.339  30.557  0.00  0.00    -0.203 NA
ATOM     13  C   UNL A   1     -23.188  -0.483  31.506  0.00  0.00    +0.108 C 
ENDBRANCH   8  12
ENDBRANCH   2   8
TORSDOF 3
ENDMDL
ENDMDL
