REMARK  Name = No_4071-gen_results/8p0m/2024-11-26-14-13-15/
REMARK  3 active torsions:
REMARK  status: ('A' for Active; 'I' for Inactive)
REMARK    1  A    between atoms: C_2  and  CA_7
REMARK    2  A    between atoms: CA_7  and  C_8
REMARK    3  A    between atoms: CA_7  and  N_11
REMARK                            x       y       z     vdW  Elec       q    Type
REMARK                         _______ _______ _______ _____ _____    ______ ____
ROOT
ATOM      1  C   UNL A   1     -28.016  -0.814  28.878  0.00  0.00    -0.003 A 
ATOM      2  C   UNL A   1     -28.469  -0.785  29.829  0.00  0.00    +0.000 A 
ATOM      3  C   UNL A   1     -27.087   0.290  28.638  0.00  0.00    -0.000 A 
ATOM      4  C   UNL A   1     -26.024   0.364  29.253  0.00  0.00    -0.000 A 
ATOM      5  C   UNL A   1     -27.537  -0.619  31.088  0.00  0.00    -0.024 A 
ATOM      6  C   UNL A   1     -26.384   0.183  30.801  0.00  0.00    -0.004 A 
ATOM      7  C   UNL A   1     -27.759  -1.268  32.320  0.00  0.00    +0.031 C 
ENDROOT
BRANCH   2   8
ATOM      8  CA  UNL A   1     -29.331  -2.027  30.338  0.00  0.00    +0.198 C 
BRANCH   8   9
ATOM      9  C   UNL A   1     -30.739  -1.787  30.148  0.00  0.00    +0.384 C 
ATOM     10  O   UNL A   1     -31.416  -2.772  29.850  0.00  0.00    -0.244 OA
ATOM     11  OXT UNL A   1     -31.245  -0.743  30.582  0.00  0.00    -0.244 OA
ENDBRANCH   8   9
BRANCH   8  12
ATOM     12  N   UNL A   1     -29.045  -2.534  31.692  0.00  0.00    -0.203 NA
ATOM     13  C   UNL A   1     -29.500  -3.355  32.521  0.00  0.00    +0.108 C 
ENDBRANCH   8  12
ENDBRANCH   2   8
TORSDOF 3
