REMARK  Name = No_4073-gen_results/8p0m/2024-11-26-14-13-15/
REMARK  3 active torsions:
REMARK  status: ('A' for Active; 'I' for Inactive)
REMARK    1  A    between atoms: C_3  and  C_4
REMARK    2  A    between atoms: C_8  and  O_13
REMARK    3  A    between atoms: O_13  and  C_14
REMARK                            x       y       z     vdW  Elec       q    Type
REMARK                         _______ _______ _______ _____ _____    ______ ____
ROOT
ATOM      1  C   UNL A   1     -28.016  -0.814  28.878  0.00  0.00    +0.000 A 
ATOM      2  C   UNL A   1     -28.469  -0.785  29.829  0.00  0.00    +0.003 A 
ATOM      3  C   UNL A   1     -28.182   0.428  28.113  0.00  0.00    +0.003 A 
ATOM      4  C   UNL A   1     -29.440   0.083  30.445  0.00  0.00    +0.037 A 
ATOM      5  C   UNL A   1     -29.651   1.210  29.752  0.00  0.00    +0.145 A 
ATOM      6  C   UNL A   1     -29.026   1.424  28.572  0.00  0.00    +0.037 A 
ENDROOT
BRANCH   3   7
ATOM      7  C   UNL A   1     -27.450   0.643  26.850  0.00  0.00    +0.000 A 
ATOM      8  C   UNL A   1     -26.453   0.994  26.668  0.00  0.00    +0.000 A 
ATOM      9  C   UNL A   1     -25.583   0.482  25.600  0.00  0.00    +0.000 A 
ATOM     10  C   UNL A   1     -26.225  -0.202  24.568  0.00  0.00    +0.000 A 
ATOM     11  C   UNL A   1     -28.348   0.655  25.675  0.00  0.00    +0.000 A 
ATOM     12  C   UNL A   1     -27.623  -0.040  24.574  0.00  0.00    +0.000 A 
ENDBRANCH   3   7
BRANCH   5  13
ATOM     13  O   UNL A   1     -30.488   2.196  30.243  0.00  0.00    -0.451 OA
BRANCH  13  14
ATOM     14  C   UNL A   1     -30.397   2.679  31.419  0.00  0.00    +0.175 C 
ATOM     15  C   UNL A   1     -30.683   3.899  31.674  0.00  0.00    +0.015 C 
ATOM     16  C   UNL A   1     -30.610   4.452  33.027  0.00  0.00    +0.034 C 
ENDBRANCH  13  14
ENDBRANCH   5  13
TORSDOF 3
