MODEL 4073
MODEL 1
REMARK VINA RESULT:    -7.158      0.000      0.000
REMARK INTER + INTRA:          -9.067
REMARK INTER:                  -8.413
REMARK INTRA:                  -0.654
REMARK UNBOUND:                -0.654
REMARK  Name = No_4073-gen_results/8p0m/2024-11-26-14-13-15/
REMARK  3 active torsions:
REMARK  status: ('A' for Active; 'I' for Inactive)
REMARK    1  A    between atoms: C_3  and  C_4
REMARK    2  A    between atoms: C_8  and  O_13
REMARK    3  A    between atoms: O_13  and  C_14
REMARK                            x       y       z     vdW  Elec       q    Type
REMARK                         _______ _______ _______ _____ _____    ______ ____
ROOT
ATOM      1  C   UNL A   1     -24.192  -1.411  31.375  0.00  0.00    +0.000 A 
ATOM      2  C   UNL A   1     -23.770  -0.510  31.722  0.00  0.00    +0.003 A 
ATOM      3  C   UNL A   1     -24.201  -1.527  29.911  0.00  0.00    +0.003 A 
ATOM      4  C   UNL A   1     -23.450   0.748  31.096  0.00  0.00    +0.037 A 
ATOM      5  C   UNL A   1     -23.491   0.693  29.758  0.00  0.00    +0.145 A 
ATOM      6  C   UNL A   1     -23.858  -0.442  29.122  0.00  0.00    +0.037 A 
ENDROOT
BRANCH   3   7
ATOM      7  C   UNL A   1     -24.566  -2.796  29.254  0.00  0.00    +0.000 A 
ATOM      8  C   UNL A   1     -24.060  -3.367  28.500  0.00  0.00    +0.000 A 
ATOM      9  C   UNL A   1     -24.026  -4.835  28.464  0.00  0.00    +0.000 A 
ATOM     10  C   UNL A   1     -25.004  -5.485  29.218  0.00  0.00    +0.000 A 
ATOM     11  C   UNL A   1     -25.985  -3.153  29.470  0.00  0.00    +0.000 A 
ATOM     12  C   UNL A   1     -26.033  -4.630  29.655  0.00  0.00    +0.000 A 
ENDBRANCH   3   7
BRANCH   5  13
ATOM     13  O   UNL A   1     -23.127   1.788  28.994  0.00  0.00    -0.451 OA
BRANCH  13  14
ATOM     14  C   UNL A   1     -22.769   1.710  27.774  0.00  0.00    +0.175 C 
ATOM     15  C   UNL A   1     -23.340   2.393  26.856  0.00  0.00    +0.015 C 
ATOM     16  C   UNL A   1     -22.914   2.332  25.457  0.00  0.00    +0.034 C 
ENDBRANCH  13  14
ENDBRANCH   5  13
TORSDOF 3
ENDMDL
ENDMDL
