MODEL 4074
MODEL 1
REMARK VINA RESULT:    -6.226      0.000      0.000
REMARK INTER + INTRA:          -7.922
REMARK INTER:                  -7.318
REMARK INTRA:                  -0.604
REMARK UNBOUND:                -0.604
REMARK  Name = No_4074-gen_results/8p0m/2024-11-26-14-13-15/
REMARK  3 active torsions:
REMARK  status: ('A' for Active; 'I' for Inactive)
REMARK    1  A    between atoms: C_4  and  C_9
REMARK    2  A    between atoms: C_9  and  C_10
REMARK    3  A    between atoms: N_11  and  C_12
REMARK                            x       y       z     vdW  Elec       q    Type
REMARK                         _______ _______ _______ _____ _____    ______ ____
ROOT
ATOM      1  C   UNL A   1     -21.346  -0.294  28.942  0.00  0.00    -0.000 A 
ATOM      2  C   UNL A   1     -22.511  -0.614  28.892  0.00  0.00    -0.004 A 
ATOM      3  C   UNL A   1     -23.465  -0.053  28.207  0.00  0.00    -0.023 A 
ATOM      4  C   UNL A   1     -24.886  -0.479  28.168  0.00  0.00    +0.046 C 
ATOM      5  C   UNL A   1     -25.906   0.147  27.441  0.00  0.00    +0.096 C 
ATOM      6  C   UNL A   1     -20.890   0.828  28.099  0.00  0.00    -0.000 A 
ATOM      7  C   UNL A   1     -21.806   1.517  27.384  0.00  0.00    -0.003 A 
ATOM      8  C   UNL A   1     -23.196   1.081  27.361  0.00  0.00    -0.006 A 
ATOM      9  N   UNL A   1     -25.674   1.091  26.555  0.00  0.00    -0.302 N 
ATOM     10  C   UNL A   1     -24.273   1.680  26.518  0.00  0.00    +0.117 C 
ENDROOT
BRANCH   9  11
ATOM     11  C   UNL A   1     -26.726   1.568  25.748  0.00  0.00    +0.057 C 
ATOM     12  C   UNL A   1     -27.443   0.629  25.010  0.00  0.00    -0.010 C 
ATOM     13  C   UNL A   1     -27.658   0.685  23.924  0.00  0.00    +0.032 C 
ENDBRANCH   9  11
BRANCH   4  14
ATOM     14  C   UNL A   1     -25.282  -1.577  29.032  0.00  0.00    +0.032 C 
BRANCH  14  15
ATOM     15  C   UNL A   1     -25.270  -2.896  28.597  0.00  0.00    -0.030 C 
ATOM     16  C   UNL A   1     -24.531  -3.808  29.335  0.00  0.00    -0.030 C 
ATOM     17  C   UNL A   1     -24.030  -4.932  28.555  0.00  0.00    +0.030 C 
ENDBRANCH  14  15
ENDBRANCH   4  14
TORSDOF 3
ENDMDL
ENDMDL
