REMARK  Name = No_4074-gen_results/8p0m/2024-11-26-14-13-15/
REMARK  3 active torsions:
REMARK  status: ('A' for Active; 'I' for Inactive)
REMARK    1  A    between atoms: C_4  and  C_9
REMARK    2  A    between atoms: C_9  and  C_10
REMARK    3  A    between atoms: N_11  and  C_12
REMARK                            x       y       z     vdW  Elec       q    Type
REMARK                         _______ _______ _______ _____ _____    ______ ____
ROOT
ATOM      1  C   UNL A   1     -28.016  -0.814  28.878  0.00  0.00    -0.000 A 
ATOM      2  C   UNL A   1     -27.064  -0.119  28.608  0.00  0.00    -0.004 A 
ATOM      3  C   UNL A   1     -26.876   1.133  28.913  0.00  0.00    -0.023 A 
ATOM      4  C   UNL A   1     -25.688   1.952  28.567  0.00  0.00    +0.046 C 
ATOM      5  C   UNL A   1     -25.509   3.304  28.886  0.00  0.00    +0.096 C 
ATOM      6  C   UNL A   1     -29.097  -0.235  29.699  0.00  0.00    -0.000 A 
ATOM      7  C   UNL A   1     -29.030   1.073  30.032  0.00  0.00    -0.003 A 
ATOM      8  C   UNL A   1     -27.855   1.859  29.680  0.00  0.00    -0.006 A 
ATOM      9  N   UNL A   1     -26.310   3.957  29.699  0.00  0.00    -0.302 N 
ATOM     10  C   UNL A   1     -27.608   3.272  30.095  0.00  0.00    +0.117 C 
ENDROOT
BRANCH   9  11
ATOM     11  C   UNL A   1     -25.984   5.268  30.099  0.00  0.00    +0.057 C 
ATOM     12  C   UNL A   1     -26.321   5.644  31.398  0.00  0.00    -0.010 C 
ATOM     13  C   UNL A   1     -26.881   6.557  31.684  0.00  0.00    +0.032 C 
ENDBRANCH   9  11
BRANCH   4  14
ATOM     14  C   UNL A   1     -24.665   1.337  27.741  0.00  0.00    +0.032 C 
BRANCH  14  15
ATOM     15  C   UNL A   1     -23.558   2.046  27.291  0.00  0.00    -0.030 C 
ATOM     16  C   UNL A   1     -22.401   1.330  27.028  0.00  0.00    -0.030 C 
ATOM     17  C   UNL A   1     -21.177   2.102  27.194  0.00  0.00    +0.030 C 
ENDBRANCH  14  15
ENDBRANCH   4  14
TORSDOF 3
