REMARK  Name = No_4075-gen_results/8p0m/2024-11-26-14-13-15/
REMARK  1 active torsions:
REMARK  status: ('A' for Active; 'I' for Inactive)
REMARK    1  A    between atoms: C_2  and  C_4
REMARK                            x       y       z     vdW  Elec       q    Type
REMARK                         _______ _______ _______ _____ _____    ______ ____
ROOT
ATOM      1 CL   UNL A   1     -28.149  -0.820  28.908  0.00  0.00    -0.040 Cl
ATOM      2  C   UNL A   1     -28.532  -0.047  29.773  0.00  0.00    +0.399 C 
ATOM      3  F   UNL A   1     -27.651   0.717  30.309  0.00  0.00    -0.179 F 
ATOM      4  F   UNL A   1     -29.454   0.827  29.245  0.00  0.00    -0.179 F 
ENDROOT
BRANCH   2   5
ATOM      5  C   UNL A   1     -29.253  -0.689  30.972  0.00  0.00    +0.399 C 
ATOM      6 CL   UNL A   1     -28.737  -0.316  32.357  0.00  0.00    -0.040 Cl
ATOM      7  F   UNL A   1     -30.599  -0.477  30.954  0.00  0.00    -0.179 F 
ATOM      8  F   UNL A   1     -28.915  -1.965  31.097  0.00  0.00    -0.179 F 
ENDBRANCH   2   5
TORSDOF 1
