MODEL 4075
MODEL 1
REMARK VINA RESULT:    -5.008      0.000      0.000
REMARK INTER + INTRA:          -5.301
REMARK INTER:                  -5.301
REMARK INTRA:                   0.000
REMARK UNBOUND:                 0.000
REMARK  Name = No_4075-gen_results/8p0m/2024-11-26-14-13-15/
REMARK  1 active torsions:
REMARK  status: ('A' for Active; 'I' for Inactive)
REMARK    1  A    between atoms: C_2  and  C_4
REMARK                            x       y       z     vdW  Elec       q    Type
REMARK                         _______ _______ _______ _____ _____    ______ ____
ROOT
ATOM      1 CL   UNL A   1      -8.948 -10.958  17.890  0.00  0.00    -0.040 Cl
ATOM      2  C   UNL A   1      -9.005  -9.787  18.235  0.00  0.00    +0.399 C 
ATOM      3  F   UNL A   1      -8.388  -8.930  17.506  0.00  0.00    -0.179 F 
ATOM      4  F   UNL A   1     -10.313  -9.359  18.219  0.00  0.00    -0.179 F 
ENDROOT
BRANCH   2   5
ATOM      5  C   UNL A   1      -8.518  -9.486  19.664  0.00  0.00    +0.399 C 
ATOM      6 CL   UNL A   1      -7.497  -8.364  19.814  0.00  0.00    -0.040 Cl
ATOM      7  F   UNL A   1      -9.542  -9.241  20.530  0.00  0.00    -0.179 F 
ATOM      8  F   UNL A   1      -7.677 -10.422  20.082  0.00  0.00    -0.179 F 
ENDBRANCH   2   5
TORSDOF 1
ENDMDL
ENDMDL
