REMARK  Name = No_4076-gen_results/8p0m/2024-11-26-14-13-15/
REMARK  10 active torsions:
REMARK  status: ('A' for Active; 'I' for Inactive)
REMARK    1  A    between atoms: C_3  and  C_4
REMARK    2  A    between atoms: C_10  and  C_13
REMARK    3  A    between atoms: C_13  and  O_15
REMARK    4  A    between atoms: O_15  and  C_17
REMARK    5  A    between atoms: C_17  and  C_18
REMARK    6  A    between atoms: C_18  and  N_19
REMARK    7  A    between atoms: N_19  and  C_20
REMARK    8  A    between atoms: N_19  and  C_26
REMARK    9  A    between atoms: C_30  and  C_32
REMARK   10  A    between atoms: C_32  and  O_34
REMARK                            x       y       z     vdW  Elec       q    Type
REMARK                         _______ _______ _______ _____ _____    ______ ____
ROOT
ATOM      1  C   UNL A   1     -32.517  -2.161  30.536  0.00  0.00    +0.143 C 
ENDROOT
BRANCH   1   2
ATOM      2  C   UNL A   1     -31.303  -2.846  30.838  0.00  0.00    +0.230 C 
BRANCH   2   3
ATOM      3  O   UNL A   1     -30.131  -2.161  30.601  0.00  0.00    -0.444 OA
BRANCH   3   4
ATOM      4  C   UNL A   1     -29.062  -2.722  30.242  0.00  0.00    +0.341 C 
ATOM      5  O   UNL A   1     -28.974  -3.930  30.277  0.00  0.00    -0.245 OA
BRANCH   4   9
ATOM      6  C   UNL A   1     -28.016  -0.814  28.878  0.00  0.00    +0.006 A 
ATOM      7  C   UNL A   1     -27.064  -0.119  28.608  0.00  0.00    +0.000 A 
ATOM      8  C   UNL A   1     -25.765  -0.390  29.036  0.00  0.00    +0.000 A 
ATOM      9  C   UNL A   1     -27.897  -1.895  29.859  0.00  0.00    +0.076 A 
ATOM     10  C   UNL A   1     -26.653  -2.340  30.273  0.00  0.00    +0.006 A 
ATOM     11  C   UNL A   1     -25.533  -1.557  29.909  0.00  0.00    +0.000 A 
BRANCH   8  12
ATOM     12  C   UNL A   1     -24.552   0.406  28.765  0.00  0.00    +0.003 A 
ATOM     13  C   UNL A   1     -24.696   1.448  27.799  0.00  0.00    +0.042 A 
ATOM     14  C   UNL A   1     -23.582   2.217  27.463  0.00  0.00    +0.196 A 
ATOM     15  C   UNL A   1     -22.321   1.824  27.981  0.00  0.00    +0.042 A 
ATOM     16  C   UNL A   1     -22.178   0.817  28.888  0.00  0.00    +0.003 A 
ATOM     17  C   UNL A   1     -23.318   0.042  29.260  0.00  0.00    +0.000 A 
ATOM     18  O   UNL A   1     -23.657   3.192  26.575  0.00  0.00    -0.287 OA
ENDBRANCH   8  12
ENDBRANCH   4   9
ENDBRANCH   3   4
ENDBRANCH   2   3
ENDBRANCH   1   2
BRANCH   1  19
ATOM     19  N   UNL A   1     -32.460  -0.887  30.538  0.00  0.00    -0.283 N 
BRANCH  19  20
ATOM     20  C   UNL A   1     -32.491  -0.222  31.625  0.00  0.00    +0.052 A 
ATOM     21  C   UNL A   1     -32.185   0.839  31.967  0.00  0.00    +0.015 A 
ATOM     22  C   UNL A   1     -32.128   1.464  33.289  0.00  0.00    +0.001 A 
ATOM     23  C   UNL A   1     -32.522   0.599  34.313  0.00  0.00    +0.000 A 
ATOM     24  C   UNL A   1     -32.834  -0.684  34.028  0.00  0.00    +0.001 A 
ATOM     25  C   UNL A   1     -32.753  -1.165  32.766  0.00  0.00    +0.015 A 
ENDBRANCH  19  20
BRANCH  19  26
ATOM     26  C   UNL A   1     -32.544  -0.080  29.320  0.00  0.00    +0.052 A 
ATOM     27  C   UNL A   1     -33.648   0.041  28.753  0.00  0.00    +0.015 A 
ATOM     28  C   UNL A   1     -33.749   0.820  27.621  0.00  0.00    +0.002 A 
ATOM     29  C   UNL A   1     -32.598   1.403  27.061  0.00  0.00    +0.006 A 
ATOM     30  C   UNL A   1     -31.371   1.228  27.681  0.00  0.00    +0.077 A 
ATOM     31  C   UNL A   1     -31.317   0.521  28.860  0.00  0.00    +0.021 A 
BRANCH  30  32
ATOM     32  C   UNL A   1     -30.159   1.881  27.127  0.00  0.00    +0.341 C 
ATOM     33  O   UNL A   1     -30.191   2.837  26.382  0.00  0.00    -0.245 OA
BRANCH  32  34
ATOM     34  O   UNL A   1     -29.031   1.484  27.569  0.00  0.00    -0.441 OA
ATOM     35  C   UNL A   1     -27.900   2.085  26.913  0.00  0.00    +0.256 C 
ENDBRANCH  32  34
ENDBRANCH  30  32
ENDBRANCH  19  26
ENDBRANCH   1  19
TORSDOF 10
