MODEL 4076
MODEL 1
REMARK VINA RESULT:    -6.812      0.000      0.000
REMARK INTER + INTRA:         -14.745
REMARK INTER:                 -10.795
REMARK INTRA:                  -3.950
REMARK UNBOUND:                -3.950
REMARK  Name = No_4076-gen_results/8p0m/2024-11-26-14-13-15/
REMARK  10 active torsions:
REMARK  status: ('A' for Active; 'I' for Inactive)
REMARK    1  A    between atoms: C_3  and  C_4
REMARK    2  A    between atoms: C_10  and  C_13
REMARK    3  A    between atoms: C_13  and  O_15
REMARK    4  A    between atoms: O_15  and  C_17
REMARK    5  A    between atoms: C_17  and  C_18
REMARK    6  A    between atoms: C_18  and  N_19
REMARK    7  A    between atoms: N_19  and  C_20
REMARK    8  A    between atoms: N_19  and  C_26
REMARK    9  A    between atoms: C_30  and  C_32
REMARK   10  A    between atoms: C_32  and  O_34
REMARK                            x       y       z     vdW  Elec       q    Type
REMARK                         _______ _______ _______ _____ _____    ______ ____
ROOT
ATOM      1  C   UNL A   1     -23.729  -0.762  29.930  0.00  0.00    +0.143 C 
ENDROOT
BRANCH   1   2
ATOM      2  C   UNL A   1     -24.302   0.311  30.676  0.00  0.00    +0.230 C 
BRANCH   2   3
ATOM      3  O   UNL A   1     -25.472   0.039  31.350  0.00  0.00    -0.444 OA
BRANCH   3   4
ATOM      4  C   UNL A   1     -26.523   0.720  31.215  0.00  0.00    +0.341 C 
ATOM      5  O   UNL A   1     -27.132   1.089  32.196  0.00  0.00    -0.245 OA
BRANCH   4   9
ATOM      6  C   UNL A   1     -26.750   2.248  29.163  0.00  0.00    +0.006 A 
ATOM      7  C   UNL A   1     -27.149   2.438  28.038  0.00  0.00    +0.000 A 
ATOM      8  C   UNL A   1     -28.059   1.602  27.391  0.00  0.00    +0.000 A 
ATOM      9  C   UNL A   1     -27.046   0.994  29.859  0.00  0.00    +0.076 A 
ATOM     10  C   UNL A   1     -28.021   0.133  29.381  0.00  0.00    +0.006 A 
ATOM     11  C   UNL A   1     -28.529   0.389  28.087  0.00  0.00    +0.000 A 
BRANCH   8  12
ATOM     12  C   UNL A   1     -28.588   1.750  26.021  0.00  0.00    +0.003 A 
ATOM     13  C   UNL A   1     -29.566   0.788  25.626  0.00  0.00    +0.042 A 
ATOM     14  C   UNL A   1     -30.084   0.842  24.332  0.00  0.00    +0.196 A 
ATOM     15  C   UNL A   1     -29.497   1.754  23.418  0.00  0.00    +0.042 A 
ATOM     16  C   UNL A   1     -28.549   2.661  23.788  0.00  0.00    +0.003 A 
ATOM     17  C   UNL A   1     -28.033   2.632  25.119  0.00  0.00    +0.000 A 
ATOM     18  O   UNL A   1     -30.988  -0.024  23.912  0.00  0.00    -0.287 OA
ENDBRANCH   8  12
ENDBRANCH   4   9
ENDBRANCH   3   4
ENDBRANCH   2   3
ENDBRANCH   1   2
BRANCH   1  19
ATOM     19  N   UNL A   1     -24.456  -1.256  29.006  0.00  0.00    -0.283 N 
BRANCH  19  20
ATOM     20  C   UNL A   1     -24.920  -2.440  29.087  0.00  0.00    +0.052 A 
ATOM     21  C   UNL A   1     -25.842  -2.948  29.567  0.00  0.00    +0.015 A 
ATOM     22  C   UNL A   1     -26.213  -4.354  29.728  0.00  0.00    +0.001 A 
ATOM     23  C   UNL A   1     -25.262  -5.228  29.194  0.00  0.00    +0.000 A 
ATOM     24  C   UNL A   1     -24.117  -4.739  28.671  0.00  0.00    +0.001 A 
ATOM     25  C   UNL A   1     -23.852  -3.412  28.670  0.00  0.00    +0.015 A 
ENDBRANCH  19  20
BRANCH  19  26
ATOM     26  C   UNL A   1     -24.662  -0.601  27.714  0.00  0.00    +0.052 A 
ATOM     27  C   UNL A   1     -25.488  -1.088  26.917  0.00  0.00    +0.015 A 
ATOM     28  C   UNL A   1     -25.714  -0.468  25.708  0.00  0.00    +0.002 A 
ATOM     29  C   UNL A   1     -24.956   0.658  25.340  0.00  0.00    +0.006 A 
ATOM     30  C   UNL A   1     -24.014   1.166  26.220  0.00  0.00    +0.077 A 
ATOM     31  C   UNL A   1     -23.875   0.579  27.457  0.00  0.00    +0.021 A 
BRANCH  30  32
ATOM     32  C   UNL A   1     -23.244   2.384  25.863  0.00  0.00    +0.341 C 
ATOM     33  O   UNL A   1     -22.469   2.441  24.933  0.00  0.00    -0.245 OA
BRANCH  32  34
ATOM     34  O   UNL A   1     -23.520   3.454  26.500  0.00  0.00    -0.441 OA
ATOM     35  C   UNL A   1     -24.661   4.163  25.986  0.00  0.00    +0.256 C 
ENDBRANCH  32  34
ENDBRANCH  30  32
ENDBRANCH  19  26
ENDBRANCH   1  19
TORSDOF 10
ENDMDL
ENDMDL
