MODEL 4077
MODEL 1
REMARK VINA RESULT:    -5.554      0.000      0.000
REMARK INTER + INTRA:          -6.015
REMARK INTER:                  -5.879
REMARK INTRA:                  -0.136
REMARK UNBOUND:                -0.136
REMARK  Name = No_4077-gen_results/8p0m/2024-11-26-14-13-15/
REMARK  1 active torsions:
REMARK  status: ('A' for Active; 'I' for Inactive)
REMARK    1  A    between atoms: C_4  and  C_8
REMARK                            x       y       z     vdW  Elec       q    Type
REMARK                         _______ _______ _______ _____ _____    ______ ____
ROOT
ATOM      1  C   UNL A   1     -26.422  -3.398  29.875  0.00  0.00    +0.004 C 
ATOM      2  C   UNL A   1     -25.539  -2.580  29.756  0.00  0.00    +0.022 C 
ATOM      3  C   UNL A   1     -24.317  -2.920  29.186  0.00  0.00    -0.044 C 
ATOM      4  C   UNL A   1     -23.276  -1.983  28.958  0.00  0.00    -0.009 C 
ATOM      5  C   UNL A   1     -26.143  -4.817  29.642  0.00  0.00    +0.001 C 
ATOM      6  C   UNL A   1     -25.006  -5.231  28.994  0.00  0.00    +0.004 C 
ATOM      7  C   UNL A   1     -24.023  -4.268  28.755  0.00  0.00    +0.022 C 
ENDROOT
BRANCH   4   8
ATOM      8  C   UNL A   1     -23.423  -0.647  29.055  0.00  0.00    -0.005 C 
ATOM      9  C   UNL A   1     -22.862   0.231  28.115  0.00  0.00    -0.026 C 
ATOM     10  C   UNL A   1     -23.001   1.644  28.258  0.00  0.00    +0.031 C 
ENDBRANCH   4   8
TORSDOF 1
ENDMDL
ENDMDL
