REMARK  Name = No_4078-gen_results/8p0m/2024-11-26-14-13-15/
REMARK  2 active torsions:
REMARK  status: ('A' for Active; 'I' for Inactive)
REMARK    1  A    between atoms: C_4  and  C_6
REMARK    2  A    between atoms: C_8  and  C_14
REMARK                            x       y       z     vdW  Elec       q    Type
REMARK                         _______ _______ _______ _____ _____    ______ ____
ROOT
ATOM      1  C   UNL A   1     -24.409  -0.596  30.037  0.00  0.00    +0.080 C 
ATOM      2  C   UNL A   1     -23.855   0.793  29.989  0.00  0.00    +0.114 C 
ATOM      3  C   UNL A   1     -22.573   0.927  29.426  0.00  0.00    +0.012 C 
ATOM      4  C   UNL A   1     -21.813  -0.148  29.016  0.00  0.00    +0.008 C 
ATOM      5  C   UNL A   1     -23.639  -1.287  31.086  0.00  0.00    +0.012 C 
ATOM      6  C   UNL A   1     -23.872  -1.264  28.651  0.00  0.00    +0.154 C 
ATOM      7  C   UNL A   1     -22.367  -1.332  28.743  0.00  0.00    +0.065 C 
ATOM      8  O   UNL A   1     -24.501  -1.905  27.946  0.00  0.00    -0.296 OA
ENDROOT
BRANCH   1  12
ATOM      9  C   UNL A   1     -28.016  -0.814  28.878  0.00  0.00    -0.000 A 
ATOM     10  C   UNL A   1     -28.469  -0.785  29.829  0.00  0.00    -0.000 A 
ATOM     11  C   UNL A   1     -26.504  -0.778  28.877  0.00  0.00    -0.004 A 
ATOM     12  C   UNL A   1     -25.915  -0.658  29.923  0.00  0.00    -0.016 A 
ATOM     13  C   UNL A   1     -27.969  -0.724  31.205  0.00  0.00    -0.000 A 
ATOM     14  C   UNL A   1     -26.550  -0.655  31.192  0.00  0.00    -0.004 A 
ENDBRANCH   1  12
BRANCH   2  15
ATOM     15  C   UNL A   1     -24.606   1.911  30.493  0.00  0.00    +0.365 C 
ATOM     16  O   UNL A   1     -25.683   1.982  30.606  0.00  0.00    -0.246 OA
ATOM     17  O   UNL A   1     -23.811   2.935  30.893  0.00  0.00    -0.246 OA
ENDBRANCH   2  15
TORSDOF 2
