MODEL 4078
MODEL 1
REMARK VINA RESULT:    -6.695      0.000      0.000
REMARK INTER + INTRA:          -7.360
REMARK INTER:                  -7.478
REMARK INTRA:                   0.118
REMARK UNBOUND:                 0.118
REMARK  Name = No_4078-gen_results/8p0m/2024-11-26-14-13-15/
REMARK  2 active torsions:
REMARK  status: ('A' for Active; 'I' for Inactive)
REMARK    1  A    between atoms: C_4  and  C_6
REMARK    2  A    between atoms: C_8  and  C_14
REMARK                            x       y       z     vdW  Elec       q    Type
REMARK                         _______ _______ _______ _____ _____    ______ ____
ROOT
ATOM      1  C   UNL A   1     -23.767  -1.263  29.297  0.00  0.00    +0.080 C 
ATOM      2  C   UNL A   1     -23.836  -0.379  30.503  0.00  0.00    +0.114 C 
ATOM      3  C   UNL A   1     -23.684   0.999  30.268  0.00  0.00    +0.012 C 
ATOM      4  C   UNL A   1     -23.400   1.525  29.025  0.00  0.00    +0.008 C 
ATOM      5  C   UNL A   1     -22.349  -1.267  28.897  0.00  0.00    +0.012 C 
ATOM      6  C   UNL A   1     -24.499  -0.379  28.140  0.00  0.00    +0.154 C 
ATOM      7  C   UNL A   1     -23.644   0.842  27.904  0.00  0.00    +0.065 C 
ATOM      8  O   UNL A   1     -25.262  -0.782  27.392  0.00  0.00    -0.296 OA
ENDROOT
BRANCH   1  12
ATOM      9  C   UNL A   1     -26.516  -3.823  29.839  0.00  0.00    -0.000 A 
ATOM     10  C   UNL A   1     -25.976  -4.673  29.528  0.00  0.00    -0.000 A 
ATOM     11  C   UNL A   1     -25.768  -2.511  29.752  0.00  0.00    -0.004 A 
ATOM     12  C   UNL A   1     -24.613  -2.511  29.405  0.00  0.00    -0.016 A 
ATOM     13  C   UNL A   1     -24.627  -4.900  29.004  0.00  0.00    -0.000 A 
ATOM     14  C   UNL A   1     -23.921  -3.668  28.960  0.00  0.00    -0.004 A 
ENDBRANCH   1  12
BRANCH   2  15
ATOM     15  C   UNL A   1     -24.048  -0.928  31.815  0.00  0.00    +0.365 C 
ATOM     16  O   UNL A   1     -23.349  -1.516  32.402  0.00  0.00    -0.246 OA
ATOM     17  O   UNL A   1     -25.258  -0.595  32.331  0.00  0.00    -0.246 OA
ENDBRANCH   2  15
TORSDOF 2
ENDMDL
ENDMDL
