MODEL 4079
MODEL 1
REMARK VINA RESULT:    -6.693      0.000      0.000
REMARK INTER + INTRA:          -7.860
REMARK INTER:                  -7.475
REMARK INTRA:                  -0.385
REMARK UNBOUND:                -0.385
REMARK  Name = No_4079-gen_results/8p0m/2024-11-26-14-13-15/
REMARK  2 active torsions:
REMARK  status: ('A' for Active; 'I' for Inactive)
REMARK    1  A    between atoms: C_4  and  C_7
REMARK    2  A    between atoms: C_9  and  C_12
REMARK                            x       y       z     vdW  Elec       q    Type
REMARK                         _______ _______ _______ _____ _____    ______ ____
ROOT
ATOM      1  C   UNL A   1     -23.976  -1.452  28.673  0.00  0.00    -0.007 C 
ATOM      2  C   UNL A   1     -24.508  -0.513  27.992  0.00  0.00    -0.003 C 
ATOM      3  C   UNL A   1     -23.931   0.833  27.888  0.00  0.00    +0.173 C 
ATOM      4  C   UNL A   1     -23.469  -0.640  29.845  0.00  0.00    +0.116 C 
ATOM      5  N   UNL A   1     -23.081   0.596  29.565  0.00  0.00    -0.201 NA
ENDROOT
BRANCH   1   9
ATOM      6  C   UNL A   1     -24.613  -5.234  28.948  0.00  0.00    -0.000 A 
ATOM      7  C   UNL A   1     -25.585  -5.186  29.351  0.00  0.00    -0.000 A 
ATOM      8  C   UNL A   1     -23.972  -3.951  28.620  0.00  0.00    -0.000 A 
ATOM      9  C   UNL A   1     -24.596  -2.718  28.970  0.00  0.00    -0.003 A 
ATOM     10  C   UNL A   1     -25.838  -2.815  29.546  0.00  0.00    -0.000 A 
ATOM     11  C   UNL A   1     -26.391  -4.020  29.802  0.00  0.00    -0.000 A 
ENDBRANCH   1   9
BRANCH   3  12
ATOM     12  C   UNL A   1     -23.620   1.375  28.411  0.00  0.00    +0.262 C 
ATOM     13  O   UNL A   1     -22.653   1.613  29.189  0.00  0.00    -0.272 OA
ATOM     14  N   UNL A   1     -23.069   2.027  27.877  0.00  0.00    -0.202 NA
ATOM     15  C   UNL A   1     -21.599   1.784  27.371  0.00  0.00    +0.139 C 
ENDBRANCH   3  12
TORSDOF 2
ENDMDL
ENDMDL
