REMARK  Name = No_4079-gen_results/8p0m/2024-11-26-14-13-15/
REMARK  2 active torsions:
REMARK  status: ('A' for Active; 'I' for Inactive)
REMARK    1  A    between atoms: C_4  and  C_7
REMARK    2  A    between atoms: C_9  and  C_12
REMARK                            x       y       z     vdW  Elec       q    Type
REMARK                         _______ _______ _______ _____ _____    ______ ____
ROOT
ATOM      1  C   UNL A   1     -24.366  -1.113  30.048  0.00  0.00    -0.007 C 
ATOM      2  C   UNL A   1     -23.625  -0.943  29.023  0.00  0.00    -0.003 C 
ATOM      3  C   UNL A   1     -22.163  -0.829  29.096  0.00  0.00    +0.173 C 
ATOM      4  C   UNL A   1     -23.619  -0.238  31.031  0.00  0.00    +0.116 C 
ATOM      5  N   UNL A   1     -22.304  -0.186  30.873  0.00  0.00    -0.201 NA
ENDROOT
BRANCH   1   9
ATOM      6  C   UNL A   1     -28.016  -0.814  28.878  0.00  0.00    -0.000 A 
ATOM      7  C   UNL A   1     -28.469  -0.785  29.829  0.00  0.00    -0.000 A 
ATOM      8  C   UNL A   1     -26.546  -0.876  28.850  0.00  0.00    -0.000 A 
ATOM      9  C   UNL A   1     -25.804  -1.032  30.057  0.00  0.00    -0.003 A 
ATOM     10  C   UNL A   1     -26.537  -1.039  31.217  0.00  0.00    -0.000 A 
ATOM     11  C   UNL A   1     -27.884  -0.953  31.186  0.00  0.00    -0.000 A 
ENDBRANCH   1   9
BRANCH   3  12
ATOM     12  C   UNL A   1     -21.633  -0.417  29.559  0.00  0.00    +0.262 C 
ATOM     13  O   UNL A   1     -20.449   0.020  29.622  0.00  0.00    -0.272 OA
ATOM     14  N   UNL A   1     -21.754   0.562  29.357  0.00  0.00    -0.202 NA
ATOM     15  C   UNL A   1     -21.150   1.322  28.119  0.00  0.00    +0.139 C 
ENDBRANCH   3  12
TORSDOF 2
