MODEL 407
MODEL 1
REMARK VINA RESULT:    -4.918      0.000      0.000
REMARK INTER + INTRA:          -5.279
REMARK INTER:                  -5.206
REMARK INTRA:                  -0.073
REMARK UNBOUND:                -0.073
REMARK  Name = No_407-gen_results/8p0m/2024-11-26-14-13-15/
REMARK  1 active torsions:
REMARK  status: ('A' for Active; 'I' for Inactive)
REMARK    1  A    between atoms: C_3  and  C_7
REMARK                            x       y       z     vdW  Elec       q    Type
REMARK                         _______ _______ _______ _____ _____    ______ ____
ROOT
ATOM      1  C   UNL A   1     -24.721  -4.116  29.094  0.00  0.00    +0.042 A 
ATOM      2  C   UNL A   1     -23.852  -3.307  28.868  0.00  0.00    +0.008 A 
ATOM      3  C   UNL A   1     -23.944  -1.959  29.212  0.00  0.00    +0.058 A 
ATOM      4  C   UNL A   1     -25.165  -1.468  29.822  0.00  0.00    +0.008 A 
ATOM      5  C   UNL A   1     -26.148  -2.430  30.046  0.00  0.00    +0.042 A 
ATOM      6  C   UNL A   1     -25.981  -3.686  29.678  0.00  0.00    +0.196 A 
ATOM      7  O   UNL A   1     -27.014  -4.574  29.902  0.00  0.00    -0.287 OA
ENDROOT
BRANCH   3   8
ATOM      8  C   UNL A   1     -22.915  -0.897  28.974  0.00  0.00    +0.275 C 
ATOM      9  N   UNL A   1     -23.136   0.033  28.275  0.00  0.00    -0.232 NA
ATOM     10  O   UNL A   1     -21.656  -1.233  28.986  0.00  0.00    -0.266 OA
ATOM     11  C   UNL A   1     -22.220   1.100  27.934  0.00  0.00    +0.155 C 
ENDBRANCH   3   8
TORSDOF 1
ENDMDL
ENDMDL
