REMARK  Name = No_408-gen_results/8p0m/2024-11-26-14-13-15/
REMARK  7 active torsions:
REMARK  status: ('A' for Active; 'I' for Inactive)
REMARK    1  A    between atoms: C_1  and  C_7
REMARK    2  A    between atoms: C_4  and  C_12
REMARK    3  A    between atoms: C_7  and  N_8
REMARK    4  A    between atoms: C_12  and  C_13
REMARK    5  A    between atoms: C_15  and  O_22
REMARK    6  A    between atoms: O_22  and  C_23
REMARK    7  A    between atoms: C_27  and  O_34
REMARK                            x       y       z     vdW  Elec       q    Type
REMARK                         _______ _______ _______ _____ _____    ______ ____
ROOT
ATOM      1  C   UNL A   1     -28.011   2.777  25.552  0.00  0.00    -0.004 A 
ATOM      2  C   UNL A   1     -27.445   3.502  26.647  0.00  0.00    +0.034 A 
ATOM      3  C   UNL A   1     -27.839   4.835  27.003  0.00  0.00    +0.139 A 
ATOM      4  C   UNL A   1     -28.799   5.429  26.160  0.00  0.00    +0.038 A 
ATOM      5  C   UNL A   1     -29.478   4.766  25.167  0.00  0.00    +0.014 A 
ATOM      6  C   UNL A   1     -29.143   3.515  24.906  0.00  0.00    +0.054 A 
ATOM      7 CL   UNL A   1     -29.954   2.702  23.696  0.00  0.00    -0.083 Cl
ENDROOT
BRANCH   1   8
ATOM      8  C   UNL A   1     -28.102   1.610  25.446  0.00  0.00    +0.056 C 
BRANCH   8  12
ATOM      9  C   UNL A   1     -28.016  -0.814  28.878  0.00  0.00    -0.000 A 
ATOM     10  C   UNL A   1     -27.064  -0.119  28.608  0.00  0.00    -0.003 A 
ATOM     11  C   UNL A   1     -27.001   0.691  27.491  0.00  0.00    -0.002 A 
ATOM     12  C   UNL A   1     -28.137   0.736  26.635  0.00  0.00    +0.010 A 
ATOM     13  C   UNL A   1     -29.236   0.076  27.069  0.00  0.00    +0.136 A 
ATOM     14  C   UNL A   1     -29.218  -0.643  28.175  0.00  0.00    +0.027 A 
ATOM     15  F   UNL A   1     -30.333   0.180  26.312  0.00  0.00    -0.204 F 
BRANCH   9  16
ATOM     16  C   UNL A   1     -28.003  -1.660  30.127  0.00  0.00    +0.123 C 
BRANCH  16  17
ATOM     17  N   UNL A   1     -27.044  -2.495  30.269  0.00  0.00    -0.247 N 
ATOM     18  C   UNL A   1     -25.765  -2.066  30.274  0.00  0.00    +0.118 C 
ATOM     19  C   UNL A   1     -27.260  -3.886  30.062  0.00  0.00    +0.394 C 
ATOM     20  F   UNL A   1     -26.323  -4.629  29.853  0.00  0.00    -0.143 F 
ATOM     21  O   UNL A   1     -28.398  -4.419  30.287  0.00  0.00    -0.236 OA
ENDBRANCH  16  17
ENDBRANCH   9  16
ENDBRANCH   8  12
ENDBRANCH   1   8
BRANCH   3  22
ATOM     22  O   UNL A   1     -27.131   5.539  27.854  0.00  0.00    -0.469 OA
BRANCH  22  23
ATOM     23  C   UNL A   1     -26.261   5.300  28.606  0.00  0.00    +0.249 C 
ATOM     24  C   UNL A   1     -24.995   4.983  28.067  0.00  0.00    +0.361 C 
ATOM     25  O   UNL A   1     -24.659   3.666  28.057  0.00  0.00    -0.246 OA
ATOM     26  O   UNL A   1     -24.363   5.765  27.291  0.00  0.00    -0.419 OA
ATOM     27  C   UNL A   1     -26.608   4.303  29.739  0.00  0.00    +0.162 C 
ATOM     28  C   UNL A   1     -26.458   4.822  31.091  0.00  0.00    +0.034 C 
ATOM     29  C   UNL A   1     -26.268   6.117  31.283  0.00  0.00    +0.003 C 
ATOM     30  C   UNL A   1     -26.025   6.973  30.287  0.00  0.00    +0.009 C 
ATOM     31  C   UNL A   1     -25.859   6.523  28.957  0.00  0.00    +0.075 C 
ATOM     32  C   UNL A   1     -25.216   7.441  28.098  0.00  0.00    +0.018 C 
ATOM     33  C   UNL A   1     -24.232   7.015  27.296  0.00  0.00    +0.178 C 
BRANCH  27  34
ATOM     34  O   UNL A   1     -26.928   3.142  29.562  0.00  0.00    -0.349 OA
ATOM     35  C   UNL A   1     -27.771   2.587  30.590  0.00  0.00    +0.174 C 
ENDBRANCH  27  34
ENDBRANCH  22  23
ENDBRANCH   3  22
TORSDOF 7
