MODEL 4080
MODEL 1
REMARK VINA RESULT:    -6.736      0.000      0.000
REMARK INTER + INTRA:         -10.084
REMARK INTER:                  -9.099
REMARK INTRA:                  -0.985
REMARK UNBOUND:                -0.985
REMARK  Name = No_4080-gen_results/8p0m/2024-11-26-14-13-15/
REMARK  6 active torsions:
REMARK  status: ('A' for Active; 'I' for Inactive)
REMARK    1  A    between atoms: C_2  and  O_11
REMARK    2  A    between atoms: C_3  and  C_7
REMARK    3  A    between atoms: O_11  and  C_12
REMARK    4  A    between atoms: C_12  and  C_13
REMARK    5  A    between atoms: N_15  and  C_16
REMARK    6  A    between atoms: C_16  and  C_18
REMARK                            x       y       z     vdW  Elec       q    Type
REMARK                         _______ _______ _______ _____ _____    ______ ____
ROOT
ATOM      1  C   UNL A   1     -22.960  -0.764  29.543  0.00  0.00    +0.290 C 
ENDROOT
BRANCH   1   2
ATOM      2  C   UNL A   1     -23.153  -0.800  30.901  0.00  0.00    +0.271 C 
ATOM      3  O   UNL A   1     -22.276  -0.708  31.711  0.00  0.00    -0.271 OA
ATOM      4  N   UNL A   1     -24.423  -0.928  31.456  0.00  0.00    -0.271 N 
ATOM      5  C   UNL A   1     -24.656  -0.929  32.894  0.00  0.00    +0.115 C 
BRANCH   4   6
ATOM      6  C   UNL A   1     -25.592  -1.122  30.642  0.00  0.00    +0.120 C 
BRANCH   6   7
ATOM      7  C   UNL A   1     -26.188  -2.080  30.537  0.00  0.00    -0.002 A 
ATOM      8  C   UNL A   1     -27.527  -2.266  30.934  0.00  0.00    -0.003 A 
ATOM      9  C   UNL A   1     -28.291  -3.490  30.692  0.00  0.00    -0.000 A 
ATOM     10  C   UNL A   1     -27.568  -4.520  30.095  0.00  0.00    -0.000 A 
ATOM     11  C   UNL A   1     -26.309  -4.436  29.666  0.00  0.00    -0.000 A 
ATOM     12  C   UNL A   1     -25.634  -3.232  29.825  0.00  0.00    -0.003 A 
ENDBRANCH   6   7
ENDBRANCH   4   6
ENDBRANCH   1   2
BRANCH   1  13
ATOM     13  O   UNL A   1     -22.742   0.431  29.219  0.00  0.00    -0.466 OA
BRANCH  13  15
ATOM     14  C   UNL A   1     -23.954   0.511  27.492  0.00  0.00    +0.041 A 
ATOM     15  C   UNL A   1     -23.083   0.942  27.898  0.00  0.00    +0.139 A 
ATOM     16  C   UNL A   1     -24.281   0.819  26.153  0.00  0.00    +0.074 A 
ATOM     17  C   UNL A   1     -23.503   1.666  25.389  0.00  0.00    +0.004 A 
ATOM     18  C   UNL A   1     -22.372   2.184  25.998  0.00  0.00    +0.003 A 
ATOM     19  C   UNL A   1     -22.083   1.814  27.298  0.00  0.00    +0.037 A 
BRANCH  16  20
ATOM     20  C   UNL A   1     -25.480   0.246  25.445  0.00  0.00    +0.419 C 
ATOM     21  F   UNL A   1     -26.369   0.792  25.641  0.00  0.00    -0.166 F 
ATOM     22  F   UNL A   1     -25.767  -1.073  25.815  0.00  0.00    -0.166 F 
ATOM     23  F   UNL A   1     -25.189   0.131  24.071  0.00  0.00    -0.166 F 
ENDBRANCH  16  20
ENDBRANCH  13  15
ENDBRANCH   1  13
TORSDOF 6
ENDMDL
ENDMDL
