REMARK  Name = No_4080-gen_results/8p0m/2024-11-26-14-13-15/
REMARK  6 active torsions:
REMARK  status: ('A' for Active; 'I' for Inactive)
REMARK    1  A    between atoms: C_2  and  O_11
REMARK    2  A    between atoms: C_3  and  C_7
REMARK    3  A    between atoms: O_11  and  C_12
REMARK    4  A    between atoms: C_12  and  C_13
REMARK    5  A    between atoms: N_15  and  C_16
REMARK    6  A    between atoms: C_16  and  C_18
REMARK                            x       y       z     vdW  Elec       q    Type
REMARK                         _______ _______ _______ _____ _____    ______ ____
ROOT
ATOM      1  C   UNL A   1     -30.461  -1.967  30.347  0.00  0.00    +0.290 C 
ENDROOT
BRANCH   1   2
ATOM      2  C   UNL A   1     -30.936  -3.242  30.174  0.00  0.00    +0.271 C 
ATOM      3  O   UNL A   1     -30.261  -4.229  30.229  0.00  0.00    -0.271 OA
ATOM      4  N   UNL A   1     -32.284  -3.493  29.935  0.00  0.00    -0.271 N 
ATOM      5  C   UNL A   1     -32.819  -4.840  29.787  0.00  0.00    +0.115 C 
BRANCH   4   6
ATOM      6  C   UNL A   1     -33.237  -2.430  29.765  0.00  0.00    +0.120 C 
BRANCH   6   7
ATOM      7  C   UNL A   1     -33.599  -1.715  30.566  0.00  0.00    -0.002 A 
ATOM      8  C   UNL A   1     -33.516  -1.923  31.957  0.00  0.00    -0.003 A 
ATOM      9  C   UNL A   1     -33.908  -0.932  32.959  0.00  0.00    -0.000 A 
ATOM     10  C   UNL A   1     -34.456   0.238  32.438  0.00  0.00    -0.000 A 
ATOM     11  C   UNL A   1     -34.559   0.537  31.143  0.00  0.00    -0.000 A 
ATOM     12  C   UNL A   1     -34.095  -0.384  30.212  0.00  0.00    -0.003 A 
ENDBRANCH   6   7
ENDBRANCH   4   6
ENDBRANCH   1   2
BRANCH   1  13
ATOM     13  O   UNL A   1     -29.219  -1.991  30.152  0.00  0.00    -0.466 OA
BRANCH  13  15
ATOM     14  C   UNL A   1     -28.016  -0.814  28.878  0.00  0.00    +0.041 A 
ATOM     15  C   UNL A   1     -28.469  -0.785  29.829  0.00  0.00    +0.139 A 
ATOM     16  C   UNL A   1     -27.136   0.236  28.535  0.00  0.00    +0.074 A 
ATOM     17  C   UNL A   1     -26.875   1.282  29.398  0.00  0.00    +0.004 A 
ATOM     18  C   UNL A   1     -27.507   1.238  30.630  0.00  0.00    +0.003 A 
ATOM     19  C   UNL A   1     -28.327   0.164  30.924  0.00  0.00    +0.037 A 
BRANCH  16  20
ATOM     20  C   UNL A   1     -26.401   0.298  27.222  0.00  0.00    +0.419 C 
ATOM     21  F   UNL A   1     -25.787  -0.553  27.058  0.00  0.00    -0.166 F 
ATOM     22  F   UNL A   1     -25.544   1.399  27.114  0.00  0.00    -0.166 F 
ATOM     23  F   UNL A   1     -27.331   0.521  26.186  0.00  0.00    -0.166 F 
ENDBRANCH  16  20
ENDBRANCH  13  15
ENDBRANCH   1  13
TORSDOF 6
