REMARK  Name = No_4081-gen_results/8p0m/2024-11-26-14-13-15/
REMARK  1 active torsions:
REMARK  status: ('A' for Active; 'I' for Inactive)
REMARK    1  A    between atoms: C_1  and  C_7
REMARK                            x       y       z     vdW  Elec       q    Type
REMARK                         _______ _______ _______ _____ _____    ______ ____
ROOT
ATOM      1  C   UNL A   1     -28.016  -0.814  28.878  0.00  0.00    +0.071 A 
ATOM      2  C   UNL A   1     -27.064  -0.119  28.608  0.00  0.00    +0.004 A 
ATOM      3  C   UNL A   1     -27.001   0.691  27.491  0.00  0.00    -0.000 A 
ATOM      4  C   UNL A   1     -28.142   0.828  26.799  0.00  0.00    -0.000 A 
ATOM      5  C   UNL A   1     -29.290  -0.487  28.366  0.00  0.00    +0.004 A 
ATOM      6  C   UNL A   1     -29.285   0.261  27.262  0.00  0.00    -0.000 A 
ENDROOT
BRANCH   1   7
ATOM      7  C   UNL A   1     -27.936  -1.682  30.138  0.00  0.00    +0.419 C 
ATOM      8  F   UNL A   1     -26.965  -2.411  30.190  0.00  0.00    -0.166 F 
ATOM      9  F   UNL A   1     -27.960  -1.037  31.315  0.00  0.00    -0.166 F 
ATOM     10  F   UNL A   1     -29.084  -2.497  30.177  0.00  0.00    -0.166 F 
ENDBRANCH   1   7
TORSDOF 1
