MODEL 4081
MODEL 1
REMARK VINA RESULT:    -5.233      0.000      0.000
REMARK INTER + INTRA:          -5.694
REMARK INTER:                  -5.539
REMARK INTRA:                  -0.155
REMARK UNBOUND:                -0.155
REMARK  Name = No_4081-gen_results/8p0m/2024-11-26-14-13-15/
REMARK  1 active torsions:
REMARK  status: ('A' for Active; 'I' for Inactive)
REMARK    1  A    between atoms: C_1  and  C_7
REMARK                            x       y       z     vdW  Elec       q    Type
REMARK                         _______ _______ _______ _____ _____    ______ ____
ROOT
ATOM      1  C   UNL A   1     -24.392  -2.785  29.154  0.00  0.00    +0.071 A 
ATOM      2  C   UNL A   1     -23.841  -3.671  28.545  0.00  0.00    +0.004 A 
ATOM      3  C   UNL A   1     -24.224  -4.997  28.609  0.00  0.00    -0.000 A 
ATOM      4  C   UNL A   1     -25.381  -5.244  29.241  0.00  0.00    -0.000 A 
ATOM      5  C   UNL A   1     -25.731  -2.948  29.571  0.00  0.00    +0.004 A 
ATOM      6  C   UNL A   1     -26.140  -4.212  29.690  0.00  0.00    -0.000 A 
ENDROOT
BRANCH   1   7
ATOM      7  C   UNL A   1     -23.842  -1.362  29.006  0.00  0.00    +0.419 C 
ATOM      8  F   UNL A   1     -24.228  -0.770  28.018  0.00  0.00    -0.166 F 
ATOM      9  F   UNL A   1     -24.061  -0.524  30.031  0.00  0.00    -0.166 F 
ATOM     10  F   UNL A   1     -22.438  -1.446  28.933  0.00  0.00    -0.166 F 
ENDBRANCH   1   7
TORSDOF 1
ENDMDL
ENDMDL
