MODEL 4082
MODEL 1
REMARK VINA RESULT:    -6.193      0.000      0.000
REMARK INTER + INTRA:         -12.072
REMARK INTER:                 -10.175
REMARK INTRA:                  -1.897
REMARK UNBOUND:                -1.897
REMARK  Name = No_4082-gen_results/8p0m/2024-11-26-14-13-15/
REMARK  11 active torsions:
REMARK  status: ('A' for Active; 'I' for Inactive)
REMARK    1  A    between atoms: C_1  and  C_2
REMARK    2  A    between atoms: C_1  and  N_8
REMARK    3  A    between atoms: C_3  and  C_31
REMARK    4  A    between atoms: C_5  and  C_9
REMARK    5  A    between atoms: C_7  and  C_18
REMARK    6  A    between atoms: C_11  and  C_12
REMARK    7  A    between atoms: C_18  and  O_20
REMARK    8  A    between atoms: O_20  and  C_21
REMARK    9  A    between atoms: C_21  and  C_22
REMARK   10  A    between atoms: C_31  and  O_32
REMARK   11  A    between atoms: O_32  and  C_33
REMARK                            x       y       z     vdW  Elec       q    Type
REMARK                         _______ _______ _______ _____ _____    ______ ____
ROOT
ATOM      1  C   UNL A   1     -29.178 -10.854   9.356  0.00  0.00    +0.007 A 
ATOM      2  C   UNL A   1     -30.341 -10.359   9.946  0.00  0.00    +0.046 A 
ATOM      3  C   UNL A   1     -30.727  -8.943  10.105  0.00  0.00    +0.135 A 
ATOM      4  C   UNL A   1     -29.712  -7.985   9.803  0.00  0.00    +0.001 A 
ATOM      5  C   UNL A   1     -28.511  -8.442   9.252  0.00  0.00    -0.018 A 
ATOM      6  C   UNL A   1     -28.240  -9.751   9.050  0.00  0.00    +0.069 A 
ATOM      7  F   UNL A   1     -31.834  -8.652  10.694  0.00  0.00    -0.205 F 
ATOM      8  C   UNL A   1     -27.520  -7.379   8.877  0.00  0.00    +0.031 C 
ENDROOT
BRANCH   4   9
ATOM      9  C   UNL A   1     -30.064  -6.611  10.038  0.00  0.00    +0.028 C 
ATOM     10  C   UNL A   1     -30.941  -6.053   8.868  0.00  0.00    +0.005 C 
ENDBRANCH   4   9
BRANCH   6  11
ATOM     11  C   UNL A   1     -26.953 -10.212   8.434  0.00  0.00    +0.341 C 
ATOM     12  O   UNL A   1     -26.047 -10.368   9.129  0.00  0.00    -0.245 OA
BRANCH  11  13
ATOM     13  O   UNL A   1     -26.888 -10.028   7.072  0.00  0.00    -0.435 OA
BRANCH  13  14
ATOM     14  C   UNL A   1     -26.885 -11.151   6.281  0.00  0.00    +0.293 C 
BRANCH  14  15
ATOM     15  C   UNL A   1     -25.692 -11.196   5.610  0.00  0.00    +0.270 C 
ATOM     16  O   UNL A   1     -25.347 -10.311   4.879  0.00  0.00    -0.271 OA
ATOM     17  N   UNL A   1     -24.912 -12.324   5.570  0.00  0.00    -0.277 N 
ATOM     18  C   UNL A   1     -23.628 -12.425   4.969  0.00  0.00    +0.093 C 
ATOM     19  C   UNL A   1     -25.125 -13.535   6.466  0.00  0.00    +0.093 C 
ATOM     20  C   UNL A   1     -24.228 -14.331   6.659  0.00  0.00    +0.022 C 
ATOM     21  C   UNL A   1     -23.094 -14.336   5.833  0.00  0.00    +0.004 C 
ATOM     22  C   UNL A   1     -22.750 -13.250   5.122  0.00  0.00    +0.022 C 
ENDBRANCH  14  15
ENDBRANCH  13  14
ENDBRANCH  11  13
ENDBRANCH   6  11
BRANCH   1  23
ATOM     23  C   UNL A   1     -28.932 -12.033   9.251  0.00  0.00    +0.142 C 
BRANCH  23  24
ATOM     24  N   UNL A   1     -29.467 -12.680   8.153  0.00  0.00    -0.193 NA
ATOM     25  C   UNL A   1     -29.491 -14.036   7.951  0.00  0.00    +0.320 C 
ATOM     26  O   UNL A   1     -30.147 -14.526   6.914  0.00  0.00    -0.263 OA
BRANCH  25  27
ATOM     27  C   UNL A   1     -28.854 -14.823   8.740  0.00  0.00    +0.320 C 
ATOM     28  O   UNL A   1     -28.756 -15.258   9.673  0.00  0.00    -0.263 OA
ATOM     29  N   UNL A   1     -27.702 -15.500   7.873  0.00  0.00    -0.196 NA
ATOM     30  C   UNL A   1     -26.843 -16.477   8.440  0.00  0.00    +0.139 C 
ENDBRANCH  25  27
ENDBRANCH  23  24
ENDBRANCH   1  23
BRANCH   2  31
ATOM     31  C   UNL A   1     -31.453 -11.322  10.361  0.00  0.00    +0.234 C 
BRANCH  31  32
ATOM     32  O   UNL A   1     -31.574 -11.595  11.535  0.00  0.00    -0.468 OA
BRANCH  32  33
ATOM     33  C   UNL A   1     -31.413 -12.878  12.092  0.00  0.00    +0.168 C 
ATOM     34  C   UNL A   1     -30.181 -13.256  12.593  0.00  0.00    +0.014 C 
ATOM     35  C   UNL A   1     -29.866 -14.659  12.805  0.00  0.00    +0.034 C 
ENDBRANCH  32  33
ENDBRANCH  31  32
ENDBRANCH   2  31
TORSDOF 11
ENDMDL
ENDMDL
