REMARK  Name = No_4083-gen_results/8p0m/2024-11-26-14-13-15/
REMARK  6 active torsions:
REMARK  status: ('A' for Active; 'I' for Inactive)
REMARK    1  A    between atoms: C_2  and  C_13
REMARK    2  A    between atoms: C_4  and  C_7
REMARK    3  A    between atoms: C_13  and  O_15
REMARK    4  A    between atoms: O_15  and  C_16
REMARK    5  A    between atoms: C_16  and  C_17
REMARK    6  A    between atoms: C_18  and  C_19
REMARK                            x       y       z     vdW  Elec       q    Type
REMARK                         _______ _______ _______ _____ _____    ______ ____
ROOT
ATOM      1  C   UNL A   1     -28.016  -0.814  28.878  0.00  0.00    +0.006 A 
ATOM      2  C   UNL A   1     -28.469  -0.785  29.829  0.00  0.00    +0.076 A 
ATOM      3  C   UNL A   1     -26.504  -0.778  28.877  0.00  0.00    +0.000 A 
ATOM      4  C   UNL A   1     -25.810  -0.853  30.103  0.00  0.00    +0.000 A 
ATOM      5  C   UNL A   1     -27.991  -0.892  31.226  0.00  0.00    +0.006 A 
ATOM      6  C   UNL A   1     -26.604  -0.868  31.265  0.00  0.00    +0.000 A 
ENDROOT
BRANCH   4   7
ATOM      7  C   UNL A   1     -24.389  -0.805  30.164  0.00  0.00    +0.000 A 
ATOM      8  C   UNL A   1     -23.766  -0.950  31.068  0.00  0.00    +0.000 A 
ATOM      9  C   UNL A   1     -22.267  -0.838  31.225  0.00  0.00    +0.000 A 
ATOM     10  C   UNL A   1     -21.670  -0.526  30.065  0.00  0.00    +0.000 A 
ATOM     11  C   UNL A   1     -23.644  -0.443  28.962  0.00  0.00    +0.000 A 
ATOM     12  C   UNL A   1     -22.348  -0.303  28.918  0.00  0.00    +0.000 A 
ENDBRANCH   4   7
BRANCH   2  13
ATOM     13  C   UNL A   1     -30.092  -0.779  29.845  0.00  0.00    +0.342 C 
ATOM     14  O   UNL A   1     -30.762  -1.604  30.294  0.00  0.00    -0.245 OA
BRANCH  13  15
ATOM     15  O   UNL A   1     -30.612   0.393  29.547  0.00  0.00    -0.440 OA
BRANCH  15  16
ATOM     16  C   UNL A   1     -31.654   0.695  29.230  0.00  0.00    +0.235 C 
BRANCH  16  17
ATOM     17  C   UNL A   1     -31.923   1.757  28.228  0.00  0.00    +0.021 C 
ATOM     18  C   UNL A   1     -30.994   2.689  28.182  0.00  0.00    -0.001 C 
BRANCH  18  19
ATOM     19  C   UNL A   1     -31.048   3.724  27.122  0.00  0.00    -0.005 C 
ATOM     20  C   UNL A   1     -30.036   4.736  27.053  0.00  0.00    -0.026 C 
ATOM     21  C   UNL A   1     -30.086   5.733  26.037  0.00  0.00    +0.031 C 
ENDBRANCH  18  19
ENDBRANCH  16  17
ENDBRANCH  15  16
ENDBRANCH  13  15
ENDBRANCH   2  13
TORSDOF 6
