MODEL 4083
MODEL 1
REMARK VINA RESULT:    -6.613      0.000      0.000
REMARK INTER + INTRA:         -10.134
REMARK INTER:                  -8.932
REMARK INTRA:                  -1.202
REMARK UNBOUND:                -1.202
REMARK  Name = No_4083-gen_results/8p0m/2024-11-26-14-13-15/
REMARK  6 active torsions:
REMARK  status: ('A' for Active; 'I' for Inactive)
REMARK    1  A    between atoms: C_2  and  C_13
REMARK    2  A    between atoms: C_4  and  C_7
REMARK    3  A    between atoms: C_13  and  O_15
REMARK    4  A    between atoms: O_15  and  C_16
REMARK    5  A    between atoms: C_16  and  C_17
REMARK    6  A    between atoms: C_18  and  C_19
REMARK                            x       y       z     vdW  Elec       q    Type
REMARK                         _______ _______ _______ _____ _____    ______ ____
ROOT
ATOM      1  C   UNL A   1     -25.683   1.988  26.235  0.00  0.00    +0.006 A 
ATOM      2  C   UNL A   1     -24.964   1.272  25.950  0.00  0.00    +0.076 A 
ATOM      3  C   UNL A   1     -27.051   1.818  25.614  0.00  0.00    +0.000 A 
ATOM      4  C   UNL A   1     -27.320   0.672  24.836  0.00  0.00    +0.000 A 
ATOM      5  C   UNL A   1     -24.990  -0.005  25.202  0.00  0.00    +0.006 A 
ATOM      6  C   UNL A   1     -26.236  -0.200  24.622  0.00  0.00    +0.000 A 
ENDROOT
BRANCH   4   7
ATOM      7  C   UNL A   1     -28.583   0.469  24.213  0.00  0.00    +0.000 A 
ATOM      8  C   UNL A   1     -29.289   1.258  23.888  0.00  0.00    +0.000 A 
ATOM      9  C   UNL A   1     -30.672   1.119  23.295  0.00  0.00    +0.000 A 
ATOM     10  C   UNL A   1     -31.026  -0.168  23.161  0.00  0.00    +0.000 A 
ATOM     11  C   UNL A   1     -29.076  -0.895  24.048  0.00  0.00    +0.000 A 
ATOM     12  C   UNL A   1     -30.244  -1.197  23.553  0.00  0.00    +0.000 A 
ENDBRANCH   4   7
BRANCH   2  13
ATOM     13  C   UNL A   1     -23.478   1.467  26.573  0.00  0.00    +0.342 C 
ATOM     14  O   UNL A   1     -22.866   2.444  26.556  0.00  0.00    -0.245 OA
BRANCH  13  15
ATOM     15  O   UNL A   1     -23.113   0.482  27.367  0.00  0.00    -0.440 OA
BRANCH  15  16
ATOM     16  C   UNL A   1     -23.224   0.334  28.482  0.00  0.00    +0.235 C 
BRANCH  16  17
ATOM     17  C   UNL A   1     -23.613  -0.961  29.095  0.00  0.00    +0.021 C 
ATOM     18  C   UNL A   1     -24.677  -1.508  28.545  0.00  0.00    -0.001 C 
BRANCH  18  19
ATOM     19  C   UNL A   1     -25.086  -2.875  28.947  0.00  0.00    -0.005 C 
ATOM     20  C   UNL A   1     -24.280  -4.003  28.586  0.00  0.00    -0.026 C 
ATOM     21  C   UNL A   1     -24.672  -5.318  28.968  0.00  0.00    +0.031 C 
ENDBRANCH  18  19
ENDBRANCH  16  17
ENDBRANCH  15  16
ENDBRANCH  13  15
ENDBRANCH   2  13
TORSDOF 6
ENDMDL
ENDMDL
