MODEL 4084
MODEL 1
REMARK VINA RESULT:    -8.171      0.000      0.000
REMARK INTER + INTRA:         -10.727
REMARK INTER:                 -10.082
REMARK INTRA:                  -0.645
REMARK UNBOUND:                -0.645
REMARK  Name = No_4084-gen_results/8p0m/2024-11-26-14-13-15/
REMARK  4 active torsions:
REMARK  status: ('A' for Active; 'I' for Inactive)
REMARK    1  A    between atoms: C_2  and  N_7
REMARK    2  A    between atoms: C_6  and  C_20
REMARK    3  A    between atoms: N_7  and  C_8
REMARK    4  A    between atoms: N_7  and  C_14
REMARK                            x       y       z     vdW  Elec       q    Type
REMARK                         _______ _______ _______ _____ _____    ______ ____
ROOT
ATOM      1  N   UNL A   1     -24.361  -1.383  29.908  0.00  0.00    -0.251 N 
ENDROOT
BRANCH   1   3
ATOM      2  C   UNL A   1     -23.949   0.449  28.556  0.00  0.00    +0.040 A 
ATOM      3  C   UNL A   1     -23.529  -0.463  29.230  0.00  0.00    +0.139 A 
ATOM      4  N   UNL A   1     -22.236  -0.806  29.313  0.00  0.00    -0.229 NA
ATOM      5  C   UNL A   1     -21.310  -0.028  28.723  0.00  0.00    +0.101 A 
ATOM      6  C   UNL A   1     -21.736   1.020  27.899  0.00  0.00    +0.025 A 
ATOM      7  C   UNL A   1     -23.042   1.254  27.825  0.00  0.00    +0.059 A 
BRANCH   7   8
ATOM      8  C   UNL A   1     -23.532   2.348  26.910  0.00  0.00    +0.265 C 
ATOM      9  N   UNL A   1     -24.184   3.297  27.284  0.00  0.00    -0.200 NA
ATOM     10  O   UNL A   1     -22.991   2.299  25.704  0.00  0.00    -0.268 OA
ATOM     11  C   UNL A   1     -24.711   4.340  26.664  0.00  0.00    +0.139 C 
ENDBRANCH   7   8
ENDBRANCH   1   3
BRANCH   1  12
ATOM     12  C   UNL A   1     -24.594  -2.591  29.510  0.00  0.00    +0.057 A 
ATOM     13  C   UNL A   1     -23.814  -3.357  28.972  0.00  0.00    +0.015 A 
ATOM     14  C   UNL A   1     -24.074  -4.748  28.555  0.00  0.00    +0.001 A 
ATOM     15  C   UNL A   1     -25.273  -5.256  28.927  0.00  0.00    +0.000 A 
ATOM     16  C   UNL A   1     -26.198  -4.505  29.655  0.00  0.00    +0.001 A 
ATOM     17  C   UNL A   1     -25.870  -3.177  29.968  0.00  0.00    +0.015 A 
ENDBRANCH   1  12
BRANCH   1  18
ATOM     18  C   UNL A   1     -24.608  -0.894  31.245  0.00  0.00    +0.057 A 
ATOM     19  C   UNL A   1     -25.547  -0.073  31.610  0.00  0.00    +0.015 A 
ATOM     20  C   UNL A   1     -23.716  -1.436  32.223  0.00  0.00    +0.015 A 
ATOM     21  C   UNL A   1     -23.884  -1.121  33.505  0.00  0.00    +0.001 A 
ATOM     22  C   UNL A   1     -25.808   0.288  32.914  0.00  0.00    +0.001 A 
ATOM     23  C   UNL A   1     -24.930  -0.221  33.855  0.00  0.00    +0.000 A 
ENDBRANCH   1  18
TORSDOF 4
ENDMDL
ENDMDL
