REMARK  Name = No_4084-gen_results/8p0m/2024-11-26-14-13-15/
REMARK  4 active torsions:
REMARK  status: ('A' for Active; 'I' for Inactive)
REMARK    1  A    between atoms: C_2  and  N_7
REMARK    2  A    between atoms: C_6  and  C_20
REMARK    3  A    between atoms: N_7  and  C_8
REMARK    4  A    between atoms: N_7  and  C_14
REMARK                            x       y       z     vdW  Elec       q    Type
REMARK                         _______ _______ _______ _____ _____    ______ ____
ROOT
ATOM      1  N   UNL A   1     -27.162   1.106  27.910  0.00  0.00    -0.251 N 
ENDROOT
BRANCH   1   3
ATOM      2  C   UNL A   1     -28.016  -0.814  28.878  0.00  0.00    +0.040 A 
ATOM      3  C   UNL A   1     -27.064  -0.119  28.608  0.00  0.00    +0.139 A 
ATOM      4  N   UNL A   1     -25.818  -0.343  29.049  0.00  0.00    -0.229 NA
ATOM      5  C   UNL A   1     -25.555  -1.473  29.730  0.00  0.00    +0.101 A 
ATOM      6  C   UNL A   1     -26.621  -2.299  30.105  0.00  0.00    +0.025 A 
ATOM      7  C   UNL A   1     -27.835  -1.970  29.676  0.00  0.00    +0.059 A 
BRANCH   7   8
ATOM      8  C   UNL A   1     -29.008  -2.817  30.101  0.00  0.00    +0.265 C 
ATOM      9  N   UNL A   1     -30.135  -2.393  30.227  0.00  0.00    -0.200 NA
ATOM     10  O   UNL A   1     -28.741  -4.113  30.101  0.00  0.00    -0.268 OA
ATOM     11  C   UNL A   1     -31.280  -2.946  30.589  0.00  0.00    +0.139 C 
ENDBRANCH   7   8
ENDBRANCH   1   3
BRANCH   1  12
ATOM     12  C   UNL A   1     -26.777   2.248  28.378  0.00  0.00    +0.057 A 
ATOM     13  C   UNL A   1     -26.157   2.457  29.406  0.00  0.00    +0.015 A 
ATOM     14  C   UNL A   1     -25.686   3.759  29.916  0.00  0.00    +0.001 A 
ATOM     15  C   UNL A   1     -25.861   4.812  29.082  0.00  0.00    +0.000 A 
ATOM     16  C   UNL A   1     -26.452   4.666  27.825  0.00  0.00    +0.001 A 
ATOM     17  C   UNL A   1     -26.902   3.391  27.450  0.00  0.00    +0.015 A 
ENDBRANCH   1  12
BRANCH   1  18
ATOM     18  C   UNL A   1     -27.418   0.831  26.515  0.00  0.00    +0.057 A 
ATOM     19  C   UNL A   1     -26.566   0.381  25.643  0.00  0.00    +0.015 A 
ATOM     20  C   UNL A   1     -28.776   1.064  26.130  0.00  0.00    +0.015 A 
ATOM     21  C   UNL A   1     -29.159   0.779  24.887  0.00  0.00    +0.001 A 
ATOM     22  C   UNL A   1     -26.880   0.037  24.347  0.00  0.00    +0.001 A 
ATOM     23  C   UNL A   1     -28.189   0.284  23.971  0.00  0.00    +0.000 A 
ENDBRANCH   1  18
TORSDOF 4
