MODEL 4085
MODEL 1
REMARK VINA RESULT:    -4.803      0.000      0.000
REMARK INTER + INTRA:          -5.265
REMARK INTER:                  -5.084
REMARK INTRA:                  -0.181
REMARK UNBOUND:                -0.181
REMARK  Name = No_4085-gen_results/8p0m/2024-11-26-14-13-15/
REMARK  1 active torsions:
REMARK  status: ('A' for Active; 'I' for Inactive)
REMARK    1  A    between atoms: C_3  and  C_4
REMARK                            x       y       z     vdW  Elec       q    Type
REMARK                         _______ _______ _______ _____ _____    ______ ____
ROOT
ATOM      1  C   UNL A   1     -23.841  -3.667  28.767  0.00  0.00    -0.000 A 
ATOM      2  C   UNL A   1     -24.292  -4.601  28.581  0.00  0.00    -0.000 A 
ATOM      3  C   UNL A   1     -24.795  -2.612  29.106  0.00  0.00    -0.000 A 
ATOM      4  C   UNL A   1     -25.333  -5.254  29.295  0.00  0.00    -0.000 A 
ATOM      5  C   UNL A   1     -26.409  -4.366  29.714  0.00  0.00    -0.000 A 
ATOM      6  C   UNL A   1     -26.088  -3.022  29.628  0.00  0.00    -0.000 A 
ENDROOT
BRANCH   3   7
ATOM      7  C   UNL A   1     -24.616  -1.320  28.753  0.00  0.00    -0.005 C 
ATOM      8  C   UNL A   1     -23.951  -0.428  29.502  0.00  0.00    -0.026 C 
ATOM      9  C   UNL A   1     -23.448  -0.866  30.819  0.00  0.00    +0.031 C 
ENDBRANCH   3   7
TORSDOF 1
ENDMDL
ENDMDL
