REMARK  Name = No_4085-gen_results/8p0m/2024-11-26-14-13-15/
REMARK  1 active torsions:
REMARK  status: ('A' for Active; 'I' for Inactive)
REMARK    1  A    between atoms: C_3  and  C_4
REMARK                            x       y       z     vdW  Elec       q    Type
REMARK                         _______ _______ _______ _____ _____    ______ ____
ROOT
ATOM      1  C   UNL A   1     -28.016  -0.814  28.878  0.00  0.00    -0.000 A 
ATOM      2  C   UNL A   1     -28.469  -0.785  29.829  0.00  0.00    -0.000 A 
ATOM      3  C   UNL A   1     -27.087   0.290  28.638  0.00  0.00    -0.000 A 
ATOM      4  C   UNL A   1     -27.886  -0.505  31.094  0.00  0.00    -0.000 A 
ATOM      5  C   UNL A   1     -26.929   0.593  31.074  0.00  0.00    -0.000 A 
ATOM      6  C   UNL A   1     -26.523   0.955  29.801  0.00  0.00    -0.000 A 
ENDROOT
BRANCH   3   7
ATOM      7  C   UNL A   1     -26.910   0.849  27.420  0.00  0.00    -0.005 C 
ATOM      8  C   UNL A   1     -26.092   1.886  27.188  0.00  0.00    -0.026 C 
ATOM      9  C   UNL A   1     -25.402   2.497  28.341  0.00  0.00    +0.031 C 
ENDBRANCH   3   7
TORSDOF 1
