REMARK  Name = No_4086-gen_results/8p0m/2024-11-26-14-13-15/
REMARK  9 active torsions:
REMARK  status: ('A' for Active; 'I' for Inactive)
REMARK    1  A    between atoms: C_1  and  O_12
REMARK    2  A    between atoms: C_4  and  C_9
REMARK    3  A    between atoms: C_9  and  C_10
REMARK    4  A    between atoms: C_10  and  C_13
REMARK    5  A    between atoms: O_12  and  C_19
REMARK    6  A    between atoms: C_19  and  C_20
REMARK    7  A    between atoms: C_20  and  C_22
REMARK    8  A    between atoms: C_21  and  C_24
REMARK    9  A    between atoms: C_22  and  C_23
REMARK                            x       y       z     vdW  Elec       q    Type
REMARK                         _______ _______ _______ _____ _____    ______ ____
ROOT
ATOM      1  C   UNL A   1     -28.016  -0.814  28.878  0.00  0.00    +0.148 C 
ATOM      2  C   UNL A   1     -28.469  -0.785  29.829  0.00  0.00    +0.209 C 
ATOM      3  C   UNL A   1     -26.504  -0.778  28.877  0.00  0.00    +0.032 C 
ATOM      4  C   UNL A   1     -25.831  -1.681  29.685  0.00  0.00    +0.005 C 
ATOM      5  C   UNL A   1     -28.149  -1.885  30.903  0.00  0.00    +0.185 C 
ATOM      6  C   UNL A   1     -26.646  -1.956  31.033  0.00  0.00    +0.036 C 
ATOM      7  O   UNL A   1     -28.627  -1.731  32.186  0.00  0.00    -0.220 OA
ATOM      8  O   UNL A   1     -30.017  -0.927  29.877  0.00  0.00    -0.218 OA
ENDROOT
BRANCH   4   9
ATOM      9  C   UNL A   1     -24.653  -2.303  29.381  0.00  0.00    +0.004 C 
ATOM     10  C   UNL A   1     -24.650  -3.691  28.859  0.00  0.00    +0.000 C 
BRANCH   9  11
ATOM     11  C   UNL A   1     -23.357  -1.898  29.852  0.00  0.00    +0.026 C 
BRANCH  11  12
ATOM     12  C   UNL A   1     -23.077  -0.446  29.661  0.00  0.00    -0.022 A 
ATOM     13  C   UNL A   1     -23.628   0.450  30.456  0.00  0.00    -0.004 A 
ATOM     14  C   UNL A   1     -22.152  -0.017  28.598  0.00  0.00    -0.004 A 
ATOM     15  C   UNL A   1     -22.005   1.297  28.214  0.00  0.00    -0.000 A 
ATOM     16  C   UNL A   1     -23.448   1.907  30.172  0.00  0.00    -0.000 A 
ATOM     17  C   UNL A   1     -22.574   2.326  29.046  0.00  0.00    -0.000 A 
ENDBRANCH  11  12
ENDBRANCH   9  11
ENDBRANCH   4   9
BRANCH   1  18
ATOM     18  O   UNL A   1     -28.520  -0.231  27.694  0.00  0.00    -0.349 OA
BRANCH  18  19
ATOM     19  C   UNL A   1     -29.167   0.884  27.626  0.00  0.00    +0.164 C 
BRANCH  19  20
ATOM     20  C   UNL A   1     -29.688   1.052  26.537  0.00  0.00    -0.015 C 
ATOM     21  C   UNL A   1     -30.576   0.845  26.092  0.00  0.00    -0.020 C 
BRANCH  20  22
ATOM     22  C   UNL A   1     -28.510   1.548  25.574  0.00  0.00    +0.043 C 
ATOM     23  C   UNL A   1     -28.820   1.689  24.184  0.00  0.00    +0.009 C 
BRANCH  22  24
ATOM     24  C   UNL A   1     -27.225   1.889  26.026  0.00  0.00    -0.019 A 
ATOM     25  C   UNL A   1     -26.169   1.099  25.626  0.00  0.00    -0.004 A 
ATOM     26  C   UNL A   1     -24.814   1.475  26.137  0.00  0.00    -0.000 A 
ATOM     27  C   UNL A   1     -24.621   2.631  26.846  0.00  0.00    -0.000 A 
ATOM     28  C   UNL A   1     -25.808   3.469  27.139  0.00  0.00    -0.000 A 
ATOM     29  C   UNL A   1     -27.044   3.040  26.717  0.00  0.00    -0.004 A 
ENDBRANCH  22  24
ENDBRANCH  20  22
BRANCH  21  30
ATOM     30  C   UNL A   1     -31.733   0.384  26.916  0.00  0.00    +0.093 C 
ATOM     31 BR   UNL A   1     -31.952   1.038  28.464  0.00  0.00    -0.076 Br
ENDBRANCH  21  30
ENDBRANCH  19  20
ENDBRANCH  18  19
ENDBRANCH   1  18
TORSDOF 9
