MODEL 4086
MODEL 1
REMARK VINA RESULT:    -7.825      0.000      0.000
REMARK INTER + INTRA:         -13.910
REMARK INTER:                 -11.941
REMARK INTRA:                  -1.969
REMARK UNBOUND:                -1.969
REMARK  Name = No_4086-gen_results/8p0m/2024-11-26-14-13-15/
REMARK  9 active torsions:
REMARK  status: ('A' for Active; 'I' for Inactive)
REMARK    1  A    between atoms: C_1  and  O_12
REMARK    2  A    between atoms: C_4  and  C_9
REMARK    3  A    between atoms: C_9  and  C_10
REMARK    4  A    between atoms: C_10  and  C_13
REMARK    5  A    between atoms: O_12  and  C_19
REMARK    6  A    between atoms: C_19  and  C_20
REMARK    7  A    between atoms: C_20  and  C_22
REMARK    8  A    between atoms: C_21  and  C_24
REMARK    9  A    between atoms: C_22  and  C_23
REMARK                            x       y       z     vdW  Elec       q    Type
REMARK                         _______ _______ _______ _____ _____    ______ ____
ROOT
ATOM      1  C   UNL A   1     -11.197   1.495  34.565  0.00  0.00    +0.148 C 
ATOM      2  C   UNL A   1     -11.634   1.763  33.644  0.00  0.00    +0.209 C 
ATOM      3  C   UNL A   1     -11.578   2.364  35.743  0.00  0.00    +0.032 C 
ATOM      4  C   UNL A   1     -12.925   2.593  35.974  0.00  0.00    +0.005 C 
ATOM      5  C   UNL A   1     -13.195   1.809  33.482  0.00  0.00    +0.185 C 
ATOM      6  C   UNL A   1     -13.733   2.674  34.597  0.00  0.00    +0.036 C 
ATOM      7  O   UNL A   1     -13.736   2.318  32.321  0.00  0.00    -0.220 OA
ATOM      8  O   UNL A   1     -11.351   0.831  32.432  0.00  0.00    -0.218 OA
ENDROOT
BRANCH   4   9
ATOM      9  C   UNL A   1     -13.520   2.695  37.200  0.00  0.00    +0.004 C 
ATOM     10  C   UNL A   1     -12.855   2.145  38.405  0.00  0.00    +0.000 C 
BRANCH   9  11
ATOM     11  C   UNL A   1     -14.915   2.960  37.424  0.00  0.00    +0.026 C 
BRANCH  11  12
ATOM     12  C   UNL A   1     -15.237   4.412  37.539  0.00  0.00    -0.022 A 
ATOM     13  C   UNL A   1     -14.326   5.266  37.960  0.00  0.00    -0.004 A 
ATOM     14  C   UNL A   1     -16.573   4.894  37.145  0.00  0.00    -0.004 A 
ATOM     15  C   UNL A   1     -17.024   6.165  37.419  0.00  0.00    -0.000 A 
ATOM     16  C   UNL A   1     -14.700   6.694  38.200  0.00  0.00    -0.000 A 
ATOM     17  C   UNL A   1     -16.076   7.150  37.873  0.00  0.00    -0.000 A 
ENDBRANCH  11  12
ENDBRANCH   9  11
ENDBRANCH   4   9
BRANCH   1  18
ATOM     18  O   UNL A   1      -9.903   0.958  34.751  0.00  0.00    -0.349 OA
BRANCH  18  19
ATOM     19  C   UNL A   1      -9.095   1.270  35.708  0.00  0.00    +0.164 C 
BRANCH  19  20
ATOM     20  C   UNL A   1      -8.656   0.289  36.282  0.00  0.00    -0.015 C 
ATOM     21  C   UNL A   1      -8.110  -0.534  36.048  0.00  0.00    -0.020 C 
BRANCH  20  22
ATOM     22  C   UNL A   1      -9.353   0.292  37.723  0.00  0.00    +0.043 C 
ATOM     23  C   UNL A   1      -9.051   1.390  38.590  0.00  0.00    +0.009 C 
BRANCH  22  24
ATOM     24  C   UNL A   1     -10.264  -0.687  38.150  0.00  0.00    -0.019 A 
ATOM     25  C   UNL A   1     -10.680  -0.653  39.464  0.00  0.00    -0.004 A 
ATOM     26  C   UNL A   1     -11.637  -1.718  39.896  0.00  0.00    -0.000 A 
ATOM     27  C   UNL A   1     -12.181  -2.590  38.991  0.00  0.00    -0.000 A 
ATOM     28  C   UNL A   1     -11.747  -2.481  37.578  0.00  0.00    -0.000 A 
ATOM     29  C   UNL A   1     -10.804  -1.537  37.245  0.00  0.00    -0.004 A 
ENDBRANCH  22  24
ENDBRANCH  20  22
BRANCH  21  30
ATOM     30  C   UNL A   1      -7.418  -0.619  34.728  0.00  0.00    +0.093 C 
ATOM     31 BR   UNL A   1      -6.361  -1.910  34.435  0.00  0.00    -0.076 Br
ENDBRANCH  21  30
ENDBRANCH  19  20
ENDBRANCH  18  19
ENDBRANCH   1  18
TORSDOF 9
ENDMDL
ENDMDL
