MODEL 4087
MODEL 1
REMARK VINA RESULT:    -8.626      0.000      0.000
REMARK INTER + INTRA:         -14.459
REMARK INTER:                 -12.661
REMARK INTRA:                  -1.799
REMARK UNBOUND:                -1.799
REMARK  Name = No_4087-gen_results/8p0m/2024-11-26-14-13-15/
REMARK  8 active torsions:
REMARK  status: ('A' for Active; 'I' for Inactive)
REMARK    1  A    between atoms: C_3  and  C_7
REMARK    2  A    between atoms: C_7  and  C_8
REMARK    3  A    between atoms: C_7  and  C_15
REMARK    4  A    between atoms: C_8  and  C_9
REMARK    5  A    between atoms: C_13  and  C_16
REMARK    6  A    between atoms: N_17  and  C_19
REMARK    7  A    between atoms: C_19  and  C_24
REMARK    8  A    between atoms: N_21  and  C_22
REMARK                            x       y       z     vdW  Elec       q    Type
REMARK                         _______ _______ _______ _____ _____    ______ ____
ROOT
ATOM      1  C   UNL A   1     -12.150   1.576  36.077  0.00  0.00    -0.021 A 
ATOM      2  C   UNL A   1     -12.070   1.610  34.656  0.00  0.00    -0.004 A 
ATOM      3  C   UNL A   1     -12.907   2.293  33.917  0.00  0.00    -0.000 A 
ATOM      4  C   UNL A   1     -14.072   2.806  34.516  0.00  0.00    +0.004 A 
ATOM      5  C   UNL A   1     -14.200   2.871  35.896  0.00  0.00    +0.055 A 
ATOM      6  C   UNL A   1     -13.182   2.343  36.627  0.00  0.00    +0.000 A 
ENDROOT
BRANCH   5   7
ATOM      7  C   UNL A   1     -15.397   3.558  36.460  0.00  0.00    +0.265 C 
ATOM      8  N   UNL A   1     -15.302   4.143  37.577  0.00  0.00    -0.201 NA
ATOM      9  O   UNL A   1     -16.404   3.775  35.672  0.00  0.00    -0.268 OA
BRANCH   8  10
ATOM     10  C   UNL A   1     -16.474   4.800  38.263  0.00  0.00    +0.098 C 
ATOM     11  C   UNL A   1     -17.423   4.197  38.483  0.00  0.00    +0.026 C 
ATOM     12  C   UNL A   1     -15.773   5.029  39.786  0.00  0.00    +0.026 C 
BRANCH  10  13
ATOM     13  C   UNL A   1     -16.513   6.164  37.802  0.00  0.00    -0.004 A 
ATOM     14  C   UNL A   1     -17.502   6.705  37.207  0.00  0.00    -0.003 A 
ATOM     15  C   UNL A   1     -17.642   8.081  36.923  0.00  0.00    -0.000 A 
ATOM     16  C   UNL A   1     -16.594   8.913  37.237  0.00  0.00    -0.000 A 
ATOM     17  C   UNL A   1     -15.483   8.337  37.815  0.00  0.00    -0.000 A 
ATOM     18  C   UNL A   1     -15.394   6.970  38.113  0.00  0.00    -0.003 A 
ENDBRANCH  10  13
ENDBRANCH   8  10
ENDBRANCH   5   7
BRANCH   1  19
ATOM     19  C   UNL A   1     -10.983   1.700  36.831  0.00  0.00    +0.040 C 
BRANCH  19  20
ATOM     20  C   UNL A   1     -10.233   0.542  37.234  0.00  0.00    +0.105 C 
BRANCH  20  23
ATOM     21  C   UNL A   1     -11.121  -1.840  37.248  0.00  0.00    -0.004 A 
ATOM     22  C   UNL A   1     -11.566  -2.602  37.824  0.00  0.00    -0.000 A 
ATOM     23  C   UNL A   1     -10.967  -0.573  37.974  0.00  0.00    -0.013 A 
ATOM     24  C   UNL A   1     -11.508  -0.366  39.176  0.00  0.00    -0.004 A 
ATOM     25  C   UNL A   1     -12.230  -2.613  39.105  0.00  0.00    -0.000 A 
ATOM     26  C   UNL A   1     -12.098  -1.420  39.753  0.00  0.00    -0.000 A 
ENDBRANCH  20  23
BRANCH  20  27
ATOM     27  C   UNL A   1      -8.898   0.363  36.991  0.00  0.00    +0.249 C 
ATOM     28  O   UNL A   1      -8.099   0.564  37.836  0.00  0.00    -0.273 OA
ATOM     29  N   UNL A   1      -8.457   0.404  35.683  0.00  0.00    -0.179 NA
BRANCH  29  30
ATOM     30  C   UNL A   1      -7.373  -0.017  35.214  0.00  0.00    +0.073 A 
ATOM     31  C   UNL A   1      -7.382  -1.318  34.602  0.00  0.00    +0.017 A 
ATOM     32  C   UNL A   1      -6.194  -2.127  34.512  0.00  0.00    +0.001 A 
ATOM     33  C   UNL A   1      -4.983  -1.435  34.725  0.00  0.00    +0.000 A 
ATOM     34  C   UNL A   1      -4.947  -0.104  35.190  0.00  0.00    +0.001 A 
ATOM     35  C   UNL A   1      -6.135   0.488  35.470  0.00  0.00    +0.017 A 
ENDBRANCH  29  30
ENDBRANCH  20  27
ENDBRANCH  19  20
ENDBRANCH   1  19
TORSDOF 8
ENDMDL
ENDMDL
