REMARK  Name = No_4087-gen_results/8p0m/2024-11-26-14-13-15/
REMARK  8 active torsions:
REMARK  status: ('A' for Active; 'I' for Inactive)
REMARK    1  A    between atoms: C_3  and  C_7
REMARK    2  A    between atoms: C_7  and  C_8
REMARK    3  A    between atoms: C_7  and  C_15
REMARK    4  A    between atoms: C_8  and  C_9
REMARK    5  A    between atoms: C_13  and  C_16
REMARK    6  A    between atoms: N_17  and  C_19
REMARK    7  A    between atoms: C_19  and  C_24
REMARK    8  A    between atoms: N_21  and  C_22
REMARK                            x       y       z     vdW  Elec       q    Type
REMARK                         _______ _______ _______ _____ _____    ______ ____
ROOT
ATOM      1  C   UNL A   1     -25.226   1.351  27.372  0.00  0.00    -0.021 A 
ATOM      2  C   UNL A   1     -23.824   1.131  27.477  0.00  0.00    -0.004 A 
ATOM      3  C   UNL A   1     -23.149   1.383  28.570  0.00  0.00    -0.000 A 
ATOM      4  C   UNL A   1     -23.770   2.128  29.589  0.00  0.00    +0.004 A 
ATOM      5  C   UNL A   1     -25.143   2.330  29.596  0.00  0.00    +0.055 A 
ATOM      6  C   UNL A   1     -25.834   1.842  28.531  0.00  0.00    +0.000 A 
ENDROOT
BRANCH   5   7
ATOM      7  C   UNL A   1     -25.750   3.003  30.780  0.00  0.00    +0.265 C 
ATOM      8  N   UNL A   1     -25.376   4.172  31.082  0.00  0.00    -0.201 NA
ATOM      9  O   UNL A   1     -26.828   2.490  31.287  0.00  0.00    -0.268 OA
BRANCH   8  10
ATOM     10  C   UNL A   1     -25.876   4.905  32.303  0.00  0.00    +0.098 C 
ATOM     11  C   UNL A   1     -26.329   4.321  33.178  0.00  0.00    +0.026 C 
ATOM     12  C   UNL A   1     -24.385   5.441  32.897  0.00  0.00    +0.026 C 
BRANCH  10  13
ATOM     13  C   UNL A   1     -26.422   6.155  31.841  0.00  0.00    -0.004 A 
ATOM     14  C   UNL A   1     -25.777   7.033  31.179  0.00  0.00    -0.003 A 
ATOM     15  C   UNL A   1     -26.335   8.166  30.549  0.00  0.00    -0.000 A 
ATOM     16  C   UNL A   1     -27.678   8.403  30.722  0.00  0.00    -0.000 A 
ATOM     17  C   UNL A   1     -28.382   7.505  31.496  0.00  0.00    -0.000 A 
ATOM     18  C   UNL A   1     -27.799   6.371  32.078  0.00  0.00    -0.003 A 
ENDBRANCH  10  13
ENDBRANCH   8  10
ENDBRANCH   5   7
BRANCH   1  19
ATOM     19  C   UNL A   1     -26.026   0.384  26.762  0.00  0.00    +0.040 C 
BRANCH  19  20
ATOM     20  C   UNL A   1     -27.459   0.493  26.770  0.00  0.00    +0.105 C 
BRANCH  20  23
ATOM     21  C   UNL A   1     -28.016  -0.814  28.878  0.00  0.00    -0.004 A 
ATOM     22  C   UNL A   1     -28.469  -0.785  29.829  0.00  0.00    -0.000 A 
ATOM     23  C   UNL A   1     -28.182   0.428  28.113  0.00  0.00    -0.013 A 
ATOM     24  C   UNL A   1     -28.984   1.415  28.515  0.00  0.00    -0.004 A 
ATOM     25  C   UNL A   1     -29.380   0.138  30.461  0.00  0.00    -0.000 A 
ATOM     26  C   UNL A   1     -29.541   1.274  29.724  0.00  0.00    -0.000 A 
ENDBRANCH  20  23
BRANCH  20  27
ATOM     27  C   UNL A   1     -28.227   0.661  25.649  0.00  0.00    +0.249 C 
ATOM     28  O   UNL A   1     -28.205  -0.135  24.778  0.00  0.00    -0.273 OA
ATOM     29  N   UNL A   1     -28.652   1.936  25.329  0.00  0.00    -0.179 NA
BRANCH  29  30
ATOM     30  C   UNL A   1     -29.576   2.275  24.554  0.00  0.00    +0.073 A 
ATOM     31  C   UNL A   1     -30.460   3.319  25.000  0.00  0.00    +0.017 A 
ATOM     32  C   UNL A   1     -31.807   3.441  24.505  0.00  0.00    +0.001 A 
ATOM     33  C   UNL A   1     -32.077   2.719  23.323  0.00  0.00    +0.000 A 
ATOM     34  C   UNL A   1     -31.163   1.791  22.781  0.00  0.00    +0.001 A 
ATOM     35  C   UNL A   1     -30.012   1.580  23.468  0.00  0.00    +0.017 A 
ENDBRANCH  29  30
ENDBRANCH  20  27
ENDBRANCH  19  20
ENDBRANCH   1  19
TORSDOF 8
