MODEL 4088
MODEL 1
REMARK VINA RESULT:    -7.169      0.000      0.000
REMARK INTER + INTRA:          -8.932
REMARK INTER:                  -8.426
REMARK INTRA:                  -0.506
REMARK UNBOUND:                -0.506
REMARK  Name = No_4088-gen_results/8p0m/2024-11-26-14-13-15/
REMARK  3 active torsions:
REMARK  status: ('A' for Active; 'I' for Inactive)
REMARK    1  A    between atoms: C_1  and  C_2
REMARK    2  A    between atoms: C_4  and  C_13
REMARK    3  A    between atoms: C_5  and  C_10
REMARK                            x       y       z     vdW  Elec       q    Type
REMARK                         _______ _______ _______ _____ _____    ______ ____
ROOT
ATOM      1  C   UNL A   1     -23.649   0.777  27.764  0.00  0.00    +0.043 A 
ATOM      2  C   UNL A   1     -24.020  -0.516  27.946  0.00  0.00    +0.001 A 
ATOM      3  C   UNL A   1     -24.007  -1.220  29.248  0.00  0.00    +0.026 A 
ATOM      4  C   UNL A   1     -23.547  -0.475  30.383  0.00  0.00    +0.059 A 
ATOM      5  C   UNL A   1     -23.102   0.844  30.140  0.00  0.00    +0.004 A 
ATOM      6  C   UNL A   1     -23.143   1.432  28.902  0.00  0.00    +0.001 A 
ENDROOT
BRANCH   3   7
ATOM      7  C   UNL A   1     -24.433  -2.590  29.368  0.00  0.00    +0.211 C 
ATOM      8  O   UNL A   1     -23.653  -3.411  28.879  0.00  0.00    -0.467 OA
ATOM      9  C   UNL A   1     -23.998  -4.732  28.543  0.00  0.00    +0.173 C 
ATOM     10  C   UNL A   1     -25.019  -5.217  29.151  0.00  0.00    +0.040 C 
ATOM     11  C   UNL A   1     -25.788  -4.559  29.487  0.00  0.00    +0.003 C 
ATOM     12  C   UNL A   1     -25.656  -3.061  29.729  0.00  0.00    +0.021 C 
ENDBRANCH   3   7
BRANCH   1  13
ATOM     13  C   UNL A   1     -23.662   1.340  26.694  0.00  0.00    +0.341 C 
ATOM     14  F   UNL A   1     -22.693   2.257  26.406  0.00  0.00    -0.193 F 
ATOM     15  F   UNL A   1     -24.425   1.176  25.742  0.00  0.00    -0.193 F 
ENDBRANCH   1  13
BRANCH   4  16
ATOM     16  C   UNL A   1     -23.463  -1.037  31.679  0.00  0.00    +0.297 C 
ATOM     17  N   UNL A   1     -24.424  -1.167  32.515  0.00  0.00    -0.102 NA
ATOM     18  O   UNL A   1     -22.285  -1.222  32.175  0.00  0.00    -0.264 OA
ENDBRANCH   4  16
TORSDOF 3
ENDMDL
ENDMDL
