REMARK  Name = No_4088-gen_results/8p0m/2024-11-26-14-13-15/
REMARK  3 active torsions:
REMARK  status: ('A' for Active; 'I' for Inactive)
REMARK    1  A    between atoms: C_1  and  C_2
REMARK    2  A    between atoms: C_4  and  C_13
REMARK    3  A    between atoms: C_5  and  C_10
REMARK                            x       y       z     vdW  Elec       q    Type
REMARK                         _______ _______ _______ _____ _____    ______ ____
ROOT
ATOM      1  C   UNL A   1     -27.064  -0.119  28.608  0.00  0.00    +0.043 A 
ATOM      2  C   UNL A   1     -26.929   1.171  29.008  0.00  0.00    +0.001 A 
ATOM      3  C   UNL A   1     -25.770   2.034  28.688  0.00  0.00    +0.026 A 
ATOM      4  C   UNL A   1     -24.714   1.443  27.919  0.00  0.00    +0.059 A 
ATOM      5  C   UNL A   1     -24.859   0.078  27.584  0.00  0.00    +0.004 A 
ATOM      6  C   UNL A   1     -25.965  -0.661  27.916  0.00  0.00    +0.001 A 
ENDROOT
BRANCH   3   7
ATOM      7  C   UNL A   1     -25.704   3.402  29.132  0.00  0.00    +0.211 C 
ATOM      8  O   UNL A   1     -25.662   3.539  30.357  0.00  0.00    -0.467 OA
ATOM      9  C   UNL A   1     -25.961   4.735  31.034  0.00  0.00    +0.173 C 
ATOM     10  C   UNL A   1     -25.857   5.812  30.342  0.00  0.00    +0.040 C 
ATOM     11  C   UNL A   1     -26.008   5.771  29.287  0.00  0.00    +0.003 C 
ATOM     12  C   UNL A   1     -25.913   4.532  28.406  0.00  0.00    +0.021 C 
ENDBRANCH   3   7
BRANCH   1  13
ATOM     13  C   UNL A   1     -28.016  -0.814  28.878  0.00  0.00    +0.341 C 
ATOM     14  F   UNL A   1     -27.815  -2.022  29.481  0.00  0.00    -0.193 F 
ATOM     15  F   UNL A   1     -29.215  -0.575  28.734  0.00  0.00    -0.193 F 
ENDBRANCH   1  13
BRANCH   4  16
ATOM     16  C   UNL A   1     -23.541   2.151  27.567  0.00  0.00    +0.297 C 
ATOM     17  N   UNL A   1     -22.476   1.653  27.059  0.00  0.00    -0.102 NA
ATOM     18  O   UNL A   1     -23.417   3.360  28.005  0.00  0.00    -0.264 OA
ENDBRANCH   4  16
TORSDOF 3
