REMARK  Name = No_4089-gen_results/8p0m/2024-11-26-14-13-15/
REMARK  1 active torsions:
REMARK  status: ('A' for Active; 'I' for Inactive)
REMARK    1  A    between atoms: C_6  and  C_7
REMARK                            x       y       z     vdW  Elec       q    Type
REMARK                         _______ _______ _______ _____ _____    ______ ____
ROOT
ATOM      1  C   UNL A   1     -28.016  -0.814  28.878  0.00  0.00    +0.006 A 
ATOM      2  C   UNL A   1     -27.064  -0.119  28.608  0.00  0.00    -0.001 A 
ATOM      3  C   UNL A   1     -25.792  -0.430  29.076  0.00  0.00    +0.014 A 
ATOM      4  C   UNL A   1     -25.576  -1.565  29.936  0.00  0.00    -0.001 A 
ATOM      5  C   UNL A   1     -26.735  -2.300  30.217  0.00  0.00    +0.006 A 
ATOM      6  C   UNL A   1     -27.918  -1.954  29.763  0.00  0.00    +0.080 A 
ATOM      7  C   UNL A   1     -26.867   1.088  27.698  0.00  0.00    -0.000 A 
ATOM      8  C   UNL A   1     -27.867   1.590  27.209  0.00  0.00    -0.000 A 
ATOM      9  C   UNL A   1     -27.820   2.710  26.297  0.00  0.00    -0.000 A 
ATOM     10  C   UNL A   1     -26.570   3.229  25.904  0.00  0.00    -0.000 A 
ATOM     11  C   UNL A   1     -25.408   2.615  26.431  0.00  0.00    -0.000 A 
ATOM     12  C   UNL A   1     -25.539   1.565  27.327  0.00  0.00    -0.001 A 
ATOM     13  C   UNL A   1     -24.098   3.168  26.081  0.00  0.00    -0.000 A 
ATOM     14  C   UNL A   1     -22.942   2.295  26.367  0.00  0.00    -0.000 A 
ATOM     15  C   UNL A   1     -23.140   1.292  27.414  0.00  0.00    -0.001 A 
ATOM     16  C   UNL A   1     -24.377   0.898  27.761  0.00  0.00    +0.014 A 
ATOM     17  C   UNL A   1     -24.497  -0.213  28.677  0.00  0.00    +0.206 C 
ATOM     18  F   UNL A   1     -23.437  -0.706  29.058  0.00  0.00    -0.228 F 
ENDROOT
BRANCH   6  19
ATOM     19  C   UNL A   1     -29.073  -2.784  30.178  0.00  0.00    +0.388 C 
ATOM     20  O   UNL A   1     -29.002  -3.985  30.235  0.00  0.00    -0.241 OA
ATOM     21  O   UNL A   1     -30.181  -2.190  30.460  0.00  0.00    -0.241 OA
ENDBRANCH   6  19
TORSDOF 1
