REMARK  Name = No_409-gen_results/8p0m/2024-11-26-14-13-15/
REMARK  1 active torsions:
REMARK  status: ('A' for Active; 'I' for Inactive)
REMARK    1  A    between atoms: C_7  and  C_8
REMARK                            x       y       z     vdW  Elec       q    Type
REMARK                         _______ _______ _______ _____ _____    ______ ____
ROOT
ATOM      1  F   UNL A   1     -28.073  -1.254  28.532  0.00  0.00    -0.204 F 
ATOM      2  C   UNL A   1     -27.061  -0.629  28.872  0.00  0.00    +0.140 A 
ATOM      3  C   UNL A   1     -27.176   0.615  29.369  0.00  0.00    +0.030 A 
ATOM      4  C   UNL A   1     -25.730  -1.269  28.724  0.00  0.00    +0.030 A 
ATOM      5  C   UNL A   1     -24.553  -0.508  29.013  0.00  0.00    +0.006 A 
ATOM      6  C   UNL A   1     -25.947   1.375  29.681  0.00  0.00    +0.006 A 
ATOM      7  C   UNL A   1     -24.675   0.820  29.507  0.00  0.00    +0.072 A 
ENDROOT
BRANCH   7   8
ATOM      8  C   UNL A   1     -23.470   1.560  29.776  0.00  0.00    +0.419 C 
ATOM      9  F   UNL A   1     -22.972   2.161  28.864  0.00  0.00    -0.166 F 
ATOM     10  F   UNL A   1     -23.826   2.577  30.748  0.00  0.00    -0.166 F 
ATOM     11  F   UNL A   1     -22.559   0.812  30.387  0.00  0.00    -0.166 F 
ENDBRANCH   7   8
TORSDOF 1
