MODEL 4090
MODEL 1
REMARK VINA RESULT:    -8.155      0.000      0.000
REMARK INTER + INTRA:          -9.109
REMARK INTER:                  -8.631
REMARK INTRA:                  -0.477
REMARK UNBOUND:                -0.477
REMARK  Name = No_4090-gen_results/8p0m/2024-11-26-14-13-15/
REMARK  1 active torsions:
REMARK  status: ('A' for Active; 'I' for Inactive)
REMARK    1  A    between atoms: C_8  and  C_9
REMARK                            x       y       z     vdW  Elec       q    Type
REMARK                         _______ _______ _______ _____ _____    ______ ____
ROOT
ATOM      1  C   UNL A   1      -9.294   0.621  34.356  0.00  0.00    +0.003 A 
ATOM      2  C   UNL A   1     -10.413   1.014  34.590  0.00  0.00    +0.035 A 
ATOM      3  C   UNL A   1     -11.388   1.255  33.637  0.00  0.00    +0.177 C 
ATOM      4  C   UNL A   1     -12.702   1.801  33.879  0.00  0.00    +0.095 C 
ATOM      5  C   UNL A   1     -13.065   2.127  35.207  0.00  0.00    -0.014 A 
ATOM      6  C   UNL A   1     -12.061   1.919  36.213  0.00  0.00    -0.003 A 
ATOM      7  C   UNL A   1     -10.812   1.425  35.959  0.00  0.00    +0.003 A 
ATOM      8  C   UNL A   1      -8.386   0.230  35.485  0.00  0.00    +0.000 A 
ATOM      9  C   UNL A   1      -9.199  -0.438  36.506  0.00  0.00    +0.000 A 
ATOM     10  C   UNL A   1     -10.341   0.440  37.041  0.00  0.00    +0.000 A 
ATOM     11  O   UNL A   1     -11.110   1.122  32.340  0.00  0.00    -0.291 OA
ATOM     12  C   UNL A   1     -12.430   2.336  37.631  0.00  0.00    -0.000 A 
ATOM     13  C   UNL A   1     -13.522   3.126  37.866  0.00  0.00    -0.000 A 
ATOM     14  C   UNL A   1     -14.415   3.537  36.909  0.00  0.00    -0.000 A 
ATOM     15  C   UNL A   1     -14.202   3.014  35.453  0.00  0.00    -0.004 A 
ENDROOT
BRANCH   8  16
ATOM     16  C   UNL A   1      -7.103  -0.302  35.227  0.00  0.00    +0.000 A 
ATOM     17  C   UNL A   1      -6.080   0.423  35.691  0.00  0.00    +0.000 A 
ATOM     18  C   UNL A   1      -4.831  -0.105  35.463  0.00  0.00    +0.000 A 
ATOM     19  C   UNL A   1      -4.653  -1.324  34.848  0.00  0.00    +0.000 A 
ATOM     20  C   UNL A   1      -5.716  -2.080  34.335  0.00  0.00    +0.000 A 
ATOM     21  C   UNL A   1      -7.007  -1.535  34.569  0.00  0.00    +0.000 A 
ENDBRANCH   8  16
TORSDOF 1
ENDMDL
ENDMDL
