REMARK  Name = No_4090-gen_results/8p0m/2024-11-26-14-13-15/
REMARK  1 active torsions:
REMARK  status: ('A' for Active; 'I' for Inactive)
REMARK    1  A    between atoms: C_8  and  C_9
REMARK                            x       y       z     vdW  Elec       q    Type
REMARK                         _______ _______ _______ _____ _____    ______ ____
ROOT
ATOM      1  C   UNL A   1     -28.016  -0.814  28.878  0.00  0.00    +0.003 A 
ATOM      2  C   UNL A   1     -27.064  -0.119  28.608  0.00  0.00    +0.035 A 
ATOM      3  C   UNL A   1     -26.972   0.714  27.506  0.00  0.00    +0.177 C 
ATOM      4  C   UNL A   1     -25.820   1.491  27.116  0.00  0.00    +0.095 C 
ATOM      5  C   UNL A   1     -24.656   1.424  27.918  0.00  0.00    -0.014 A 
ATOM      6  C   UNL A   1     -24.711   0.542  29.051  0.00  0.00    -0.003 A 
ATOM      7  C   UNL A   1     -25.804  -0.206  29.388  0.00  0.00    +0.003 A 
ATOM      8  C   UNL A   1     -28.067  -1.538  30.191  0.00  0.00    +0.000 A 
ATOM      9  C   UNL A   1     -27.489  -0.659  31.212  0.00  0.00    +0.000 A 
ATOM     10  C   UNL A   1     -26.041  -0.245  30.906  0.00  0.00    +0.000 A 
ATOM     11  O   UNL A   1     -27.952   0.746  26.602  0.00  0.00    -0.291 OA
ATOM     12  C   UNL A   1     -23.434   0.419  29.872  0.00  0.00    -0.000 A 
ATOM     13  C   UNL A   1     -22.242   0.883  29.386  0.00  0.00    -0.000 A 
ATOM     14  C   UNL A   1     -22.086   1.558  28.202  0.00  0.00    -0.000 A 
ATOM     15  C   UNL A   1     -23.374   1.873  27.377  0.00  0.00    -0.004 A 
ENDROOT
BRANCH   8  16
ATOM     16  C   UNL A   1     -29.204  -2.294  30.553  0.00  0.00    +0.000 A 
ATOM     17  C   UNL A   1     -30.376  -1.789  30.155  0.00  0.00    +0.000 A 
ATOM     18  C   UNL A   1     -31.483  -2.537  30.484  0.00  0.00    +0.000 A 
ATOM     19  C   UNL A   1     -31.382  -3.748  31.130  0.00  0.00    +0.000 A 
ATOM     20  C   UNL A   1     -30.161  -4.274  31.574  0.00  0.00    +0.000 A 
ATOM     21  C   UNL A   1     -29.017  -3.503  31.236  0.00  0.00    +0.000 A 
ENDBRANCH   8  16
TORSDOF 1
