MODEL 4091
MODEL 1
REMARK VINA RESULT:    -5.459      0.000      0.000
REMARK INTER + INTRA:          -6.204
REMARK INTER:                  -6.097
REMARK INTRA:                  -0.107
REMARK UNBOUND:                -0.107
REMARK  Name = No_4091-gen_results/8p0m/2024-11-26-14-13-15/
REMARK  2 active torsions:
REMARK  status: ('A' for Active; 'I' for Inactive)
REMARK    1  A    between atoms: C_1  and  C_8
REMARK    2  A    between atoms: C_5  and  C_10
REMARK                            x       y       z     vdW  Elec       q    Type
REMARK                         _______ _______ _______ _____ _____    ______ ____
ROOT
ATOM      1  C   UNL A   1     -30.295 -10.468  29.198  0.00  0.00    +0.014 C 
ATOM      2  C   UNL A   1     -29.621 -10.814  30.140  0.00  0.00    -0.043 C 
ATOM      3  C   UNL A   1     -28.658 -11.690  30.156  0.00  0.00    +0.023 C 
ATOM      4  C   UNL A   1     -27.849 -12.085  31.336  0.00  0.00    +0.016 C 
ATOM      5  C   UNL A   1     -28.131 -11.401  32.552  0.00  0.00    +0.104 C 
ATOM      6  C   UNL A   1     -29.104 -10.435  32.527  0.00  0.00    +0.016 C 
ATOM      7  C   UNL A   1     -29.810 -10.093  31.424  0.00  0.00    +0.023 C 
ENDROOT
BRANCH   5   8
ATOM      8  C   UNL A   1     -27.395 -11.688  33.765  0.00  0.00    +0.364 C 
ATOM      9  O   UNL A   1     -27.246 -10.940  34.578  0.00  0.00    -0.246 OA
ATOM     10  O   UNL A   1     -26.705 -12.896  33.747  0.00  0.00    -0.246 OA
ENDBRANCH   5   8
BRANCH   1  11
ATOM     11  C   UNL A   1     -30.340 -11.379  28.110  0.00  0.00    +0.121 C 
ATOM     12  N   UNL A   1     -30.188 -10.954  26.901  0.00  0.00    -0.146 NA
ENDBRANCH   1  11
TORSDOF 2
ENDMDL
ENDMDL
