REMARK  Name = No_4091-gen_results/8p0m/2024-11-26-14-13-15/
REMARK  2 active torsions:
REMARK  status: ('A' for Active; 'I' for Inactive)
REMARK    1  A    between atoms: C_1  and  C_8
REMARK    2  A    between atoms: C_5  and  C_10
REMARK                            x       y       z     vdW  Elec       q    Type
REMARK                         _______ _______ _______ _____ _____    ______ ____
ROOT
ATOM      1  C   UNL A   1     -28.016  -0.814  28.878  0.00  0.00    +0.014 C 
ATOM      2  C   UNL A   1     -27.064  -0.119  28.608  0.00  0.00    -0.043 C 
ATOM      3  C   UNL A   1     -26.876   1.133  28.913  0.00  0.00    +0.023 C 
ATOM      4  C   UNL A   1     -25.688   1.952  28.567  0.00  0.00    +0.016 C 
ATOM      5  C   UNL A   1     -24.639   1.283  27.875  0.00  0.00    +0.104 C 
ATOM      6  C   UNL A   1     -24.807  -0.051  27.604  0.00  0.00    +0.016 C 
ATOM      7  C   UNL A   1     -25.902  -0.767  27.951  0.00  0.00    +0.023 C 
ENDROOT
BRANCH   5   8
ATOM      8  C   UNL A   1     -23.424   1.974  27.500  0.00  0.00    +0.364 C 
ATOM      9  O   UNL A   1     -23.349   2.629  26.601  0.00  0.00    -0.246 OA
ATOM     10  O   UNL A   1     -22.298   1.590  28.221  0.00  0.00    -0.246 OA
ENDBRANCH   5   8
BRANCH   1  11
ATOM     11  C   UNL A   1     -29.216  -0.118  29.181  0.00  0.00    +0.121 C 
ATOM     12  N   UNL A   1     -30.161  -0.708  29.831  0.00  0.00    -0.146 NA
ENDBRANCH   1  11
TORSDOF 2
