MODEL 4092
MODEL 1
REMARK VINA RESULT:    -5.018      0.000      0.000
REMARK INTER + INTRA:          -5.349
REMARK INTER:                  -5.312
REMARK INTRA:                  -0.037
REMARK UNBOUND:                -0.037
REMARK  Name = No_4092-gen_results/8p0m/2024-11-26-14-13-15/
REMARK  1 active torsions:
REMARK  status: ('A' for Active; 'I' for Inactive)
REMARK    1  A    between atoms: C_2  and  C_7
REMARK                            x       y       z     vdW  Elec       q    Type
REMARK                         _______ _______ _______ _____ _____    ______ ____
ROOT
ATOM      1  C   UNL A   1     -27.885 -12.040  31.632  0.00  0.00    +0.007 A 
ATOM      2  C   UNL A   1     -28.191 -11.474  32.467  0.00  0.00    +0.080 A 
ATOM      3  C   UNL A   1     -28.615 -11.806  30.376  0.00  0.00    +0.000 A 
ATOM      4  C   UNL A   1     -29.582 -10.763  30.283  0.00  0.00    +0.000 A 
ATOM      5  C   UNL A   1     -29.108 -10.312  32.623  0.00  0.00    +0.007 A 
ATOM      6  C   UNL A   1     -29.810 -10.071  31.480  0.00  0.00    +0.000 A 
ENDROOT
BRANCH   2   7
ATOM      7  C   UNL A   1     -27.366 -11.876  33.741  0.00  0.00    +0.388 C 
ATOM      8  O   UNL A   1     -26.708 -12.845  33.799  0.00  0.00    -0.241 OA
ATOM      9  O   UNL A   1     -27.117 -10.876  34.580  0.00  0.00    -0.241 OA
ENDBRANCH   2   7
TORSDOF 1
ENDMDL
ENDMDL
