REMARK  Name = No_4093-gen_results/8p0m/2024-11-26-14-13-15/
REMARK  4 active torsions:
REMARK  status: ('A' for Active; 'I' for Inactive)
REMARK    1  A    between atoms: C_1  and  C_2
REMARK    2  A    between atoms: C_1  and  C_8
REMARK    3  A    between atoms: C_3  and  C_29
REMARK    4  A    between atoms: N_9  and  C_22
REMARK                            x       y       z     vdW  Elec       q    Type
REMARK                         _______ _______ _______ _____ _____    ______ ____
ROOT
ATOM      1  C   UNL A   1     -28.016  -0.814  28.878  0.00  0.00    +0.073 C 
ENDROOT
BRANCH   1   2
ATOM      2  C   UNL A   1     -27.064  -0.119  28.608  0.00  0.00    -0.040 C 
ATOM      3  C   UNL A   1     -27.001   0.691  27.491  0.00  0.00    -0.012 C 
ATOM      4  C   UNL A   1     -25.855   1.482  27.083  0.00  0.00    -0.005 C 
ATOM      5  C   UNL A   1     -24.901   1.389  27.592  0.00  0.00    -0.018 C 
ATOM      6  C   UNL A   1     -24.678   0.576  28.830  0.00  0.00    +0.048 C 
ATOM      7  C   UNL A   1     -25.770  -0.205  29.280  0.00  0.00    +0.031 C 
ATOM      8  C   UNL A   1     -23.574   2.177  27.306  0.00  0.00    -0.004 C 
ATOM      9  C   UNL A   1     -22.528   2.219  28.202  0.00  0.00    -0.001 C 
ATOM     10  C   UNL A   1     -22.512   1.192  29.203  0.00  0.00    -0.004 C 
ATOM     11  C   UNL A   1     -23.534   0.491  29.609  0.00  0.00    -0.022 C 
BRANCH   3  12
ATOM     12  C   UNL A   1     -28.279   0.851  26.662  0.00  0.00    -0.022 C 
ATOM     13  C   UNL A   1     -28.989   1.884  26.927  0.00  0.00    -0.005 C 
ATOM     14  C   UNL A   1     -30.239   2.071  26.221  0.00  0.00    -0.005 C 
ATOM     15  C   UNL A   1     -30.770   1.038  25.506  0.00  0.00    -0.026 C 
ATOM     16  C   UNL A   1     -29.948  -0.096  25.280  0.00  0.00    +0.031 C 
ATOM     17  C   UNL A   1     -28.706  -0.167  25.860  0.00  0.00    +0.031 C 
ENDBRANCH   3  12
ENDBRANCH   1   2
BRANCH   1  18
ATOM     18  C   UNL A   1     -28.643  -0.446  30.238  0.00  0.00    +0.201 C 
ATOM     19  N   UNL A   1     -29.424  -1.315  30.823  0.00  0.00    -0.263 N 
ATOM     20  C   UNL A   1     -30.530  -1.251  30.978  0.00  0.00    +0.066 C 
ATOM     21  C   UNL A   1     -31.235  -0.151  30.694  0.00  0.00    +0.024 C 
ATOM     22  C   UNL A   1     -32.512   0.063  30.644  0.00  0.00    -0.000 C 
ATOM     23  C   UNL A   1     -33.144   1.269  30.209  0.00  0.00    -0.000 C 
ATOM     24  C   UNL A   1     -32.278   2.317  29.842  0.00  0.00    -0.002 C 
ATOM     25  C   UNL A   1     -30.919   2.169  29.831  0.00  0.00    +0.007 C 
ATOM     26  C   UNL A   1     -30.389   1.008  30.226  0.00  0.00    +0.163 C 
ATOM     27  O   UNL A   1     -28.882   0.820  30.492  0.00  0.00    -0.331 OA
BRANCH  19  28
ATOM     28  C   UNL A   1     -28.669  -2.674  31.194  0.00  0.00    +0.063 C 
ATOM     29  C   UNL A   1     -29.406  -3.789  31.381  0.00  0.00    -0.003 C 
ATOM     30  C   UNL A   1     -29.469  -4.648  30.253  0.00  0.00    -0.003 C 
ATOM     31  C   UNL A   1     -30.318  -5.832  30.283  0.00  0.00    -0.001 C 
ATOM     32  C   UNL A   1     -31.121  -5.962  31.444  0.00  0.00    -0.004 C 
ATOM     33  C   UNL A   1     -31.115  -5.099  32.483  0.00  0.00    -0.021 C 
ATOM     34  C   UNL A   1     -30.262  -3.967  32.452  0.00  0.00    +0.054 C 
ENDBRANCH  19  28
ENDBRANCH   1  18
TORSDOF 4
