MODEL 4093
MODEL 1
REMARK VINA RESULT:    -7.019      0.000      0.000
REMARK INTER + INTRA:         -11.657
REMARK INTER:                  -8.660
REMARK INTRA:                  -2.997
REMARK UNBOUND:                -2.997
REMARK  Name = No_4093-gen_results/8p0m/2024-11-26-14-13-15/
REMARK  4 active torsions:
REMARK  status: ('A' for Active; 'I' for Inactive)
REMARK    1  A    between atoms: C_1  and  C_2
REMARK    2  A    between atoms: C_1  and  C_8
REMARK    3  A    between atoms: C_3  and  C_29
REMARK    4  A    between atoms: N_9  and  C_22
REMARK                            x       y       z     vdW  Elec       q    Type
REMARK                         _______ _______ _______ _____ _____    ______ ____
ROOT
ATOM      1  C   UNL A   1     -30.920 -12.806   7.752  0.00  0.00    +0.073 C 
ENDROOT
BRANCH   1   2
ATOM      2  C   UNL A   1     -30.031 -13.625   7.710  0.00  0.00    -0.040 C 
ATOM      3  C   UNL A   1     -28.693 -13.308   7.840  0.00  0.00    -0.012 C 
ATOM      4  C   UNL A   1     -27.587 -14.240   7.721  0.00  0.00    -0.005 C 
ATOM      5  C   UNL A   1     -27.750 -15.263   7.395  0.00  0.00    -0.018 C 
ATOM      6  C   UNL A   1     -29.098 -15.876   7.174  0.00  0.00    +0.048 C 
ATOM      7  C   UNL A   1     -30.214 -15.012   7.292  0.00  0.00    +0.031 C 
ATOM      8  C   UNL A   1     -26.686 -16.405   7.236  0.00  0.00    -0.004 C 
ATOM      9  C   UNL A   1     -27.034 -17.734   7.130  0.00  0.00    -0.001 C 
ATOM     10  C   UNL A   1     -28.390 -18.003   6.747  0.00  0.00    -0.004 C 
ATOM     11  C   UNL A   1     -29.405 -17.195   6.874  0.00  0.00    -0.022 C 
BRANCH   3  12
ATOM     12  C   UNL A   1     -28.343 -11.872   8.242  0.00  0.00    -0.022 C 
ATOM     13  C   UNL A   1     -27.736 -11.177   7.354  0.00  0.00    -0.005 C 
ATOM     14  C   UNL A   1     -27.325  -9.829   7.684  0.00  0.00    -0.005 C 
ATOM     15  C   UNL A   1     -27.338  -9.420   8.985  0.00  0.00    -0.026 C 
ATOM     16  C   UNL A   1     -27.991 -10.253   9.930  0.00  0.00    +0.031 C 
ATOM     17  C   UNL A   1     -28.492 -11.469   9.538  0.00  0.00    +0.031 C 
ENDBRANCH   3  12
ENDBRANCH   1   2
BRANCH   1  18
ATOM     18  C   UNL A   1     -31.868 -13.030   8.947  0.00  0.00    +0.201 C 
ATOM     19  N   UNL A   1     -32.043 -12.055   9.799  0.00  0.00    -0.263 N 
ATOM     20  C   UNL A   1     -31.695 -12.000  10.861  0.00  0.00    +0.066 C 
ATOM     21  C   UNL A   1     -31.139 -13.038  11.493  0.00  0.00    +0.024 C 
ATOM     22  C   UNL A   1     -30.534 -13.126  12.635  0.00  0.00    -0.000 C 
ATOM     23  C   UNL A   1     -29.875 -14.286  13.148  0.00  0.00    -0.000 C 
ATOM     24  C   UNL A   1     -29.935 -15.435  12.336  0.00  0.00    -0.002 C 
ATOM     25  C   UNL A   1     -30.522 -15.424  11.101  0.00  0.00    +0.007 C 
ATOM     26  C   UNL A   1     -31.100 -14.301  10.667  0.00  0.00    +0.163 C 
ATOM     27  O   UNL A   1     -32.001 -14.249   9.417  0.00  0.00    -0.331 OA
BRANCH  19  28
ATOM     28  C   UNL A   1     -32.697 -10.759   9.131  0.00  0.00    +0.063 C 
ATOM     29  C   UNL A   1     -32.073  -9.573   9.282  0.00  0.00    -0.003 C 
ATOM     30  C   UNL A   1     -31.263  -9.190   8.181  0.00  0.00    -0.003 C 
ATOM     31  C   UNL A   1     -30.449  -7.984   8.258  0.00  0.00    -0.001 C 
ATOM     32  C   UNL A   1     -30.457  -7.337   9.519  0.00  0.00    -0.004 C 
ATOM     33  C   UNL A   1     -31.170  -7.749  10.590  0.00  0.00    -0.021 C 
ATOM     34  C   UNL A   1     -31.980  -8.908  10.491  0.00  0.00    +0.054 C 
ENDBRANCH  19  28
ENDBRANCH   1  18
TORSDOF 4
ENDMDL
ENDMDL
