MODEL 4094
MODEL 1
REMARK VINA RESULT:    -7.503      0.000      0.000
REMARK INTER + INTRA:          -7.779
REMARK INTER:                  -7.942
REMARK INTRA:                   0.163
REMARK UNBOUND:                 0.163
REMARK  Name = No_4094-gen_results/8p0m/2024-11-26-14-13-15/
REMARK  1 active torsions:
REMARK  status: ('A' for Active; 'I' for Inactive)
REMARK    1  A    between atoms: C_2  and  C_7
REMARK                            x       y       z     vdW  Elec       q    Type
REMARK                         _______ _______ _______ _____ _____    ______ ____
ROOT
ATOM      1  C   UNL A   1     -24.415  -1.278  30.147  0.00  0.00    +0.266 C 
ATOM      2  N   UNL A   1     -24.511  -0.353  29.403  0.00  0.00    -0.186 N 
ATOM      3  O   UNL A   1     -23.483  -1.327  31.039  0.00  0.00    -0.268 OA
ATOM      4  C   UNL A   1     -23.855   0.920  29.599  0.00  0.00    +0.122 C 
ATOM      5  C   UNL A   1     -23.474   1.521  28.540  0.00  0.00    +0.051 C 
ATOM      6  C   UNL A   1     -23.992   1.190  27.232  0.00  0.00    -0.004 A 
ATOM      7  C   UNL A   1     -23.547   1.801  26.070  0.00  0.00    -0.003 A 
ATOM      8  C   UNL A   1     -23.993   1.321  24.843  0.00  0.00    -0.000 A 
ATOM      9  C   UNL A   1     -24.977   0.285  24.803  0.00  0.00    +0.001 A 
ATOM     10  C   UNL A   1     -25.409  -0.314  25.976  0.00  0.00    +0.018 A 
ATOM     11  C   UNL A   1     -24.929   0.098  27.129  0.00  0.00    +0.084 A 
ATOM     12  N   UNL A   1     -25.190  -0.597  28.327  0.00  0.00    -0.145 NA
ENDROOT
BRANCH   1  14
ATOM     13  C   UNL A   1     -25.830  -3.066  30.096  0.00  0.00    +0.005 A 
ATOM     14  C   UNL A   1     -24.901  -2.747  29.715  0.00  0.00    +0.055 A 
ATOM     15  C   UNL A   1     -26.258  -4.457  29.684  0.00  0.00    +0.000 A 
ATOM     16  C   UNL A   1     -25.359  -5.272  28.964  0.00  0.00    +0.000 A 
ATOM     17  C   UNL A   1     -23.783  -3.392  28.990  0.00  0.00    +0.005 A 
ATOM     18  C   UNL A   1     -24.137  -4.676  28.601  0.00  0.00    +0.000 A 
ENDBRANCH   1  14
TORSDOF 1
ENDMDL
ENDMDL
