REMARK  Name = No_4094-gen_results/8p0m/2024-11-26-14-13-15/
REMARK  1 active torsions:
REMARK  status: ('A' for Active; 'I' for Inactive)
REMARK    1  A    between atoms: C_2  and  C_7
REMARK                            x       y       z     vdW  Elec       q    Type
REMARK                         _______ _______ _______ _____ _____    ______ ____
ROOT
ATOM      1  C   UNL A   1     -30.074  -0.836  29.861  0.00  0.00    +0.266 C 
ATOM      2  N   UNL A   1     -30.653  -1.794  30.268  0.00  0.00    -0.186 N 
ATOM      3  O   UNL A   1     -30.594  -0.071  28.961  0.00  0.00    -0.268 OA
ATOM      4  C   UNL A   1     -32.065  -2.034  30.076  0.00  0.00    +0.122 C 
ATOM      5  C   UNL A   1     -32.410  -3.254  29.927  0.00  0.00    +0.051 C 
ATOM      6  C   UNL A   1     -31.555  -4.353  30.314  0.00  0.00    -0.004 A 
ATOM      7  C   UNL A   1     -31.898  -5.680  30.108  0.00  0.00    -0.003 A 
ATOM      8  C   UNL A   1     -30.957  -6.669  30.376  0.00  0.00    -0.000 A 
ATOM      9  C   UNL A   1     -29.700  -6.312  30.955  0.00  0.00    +0.001 A 
ATOM     10  C   UNL A   1     -29.375  -4.978  31.152  0.00  0.00    +0.018 A 
ATOM     11  C   UNL A   1     -30.244  -4.045  30.830  0.00  0.00    +0.084 A 
ATOM     12  N   UNL A   1     -29.894  -2.680  30.834  0.00  0.00    -0.145 NA
ENDROOT
BRANCH   1  14
ATOM     13  C   UNL A   1     -28.016  -0.814  28.878  0.00  0.00    +0.005 A 
ATOM     14  C   UNL A   1     -28.469  -0.785  29.829  0.00  0.00    +0.055 A 
ATOM     15  C   UNL A   1     -26.504  -0.778  28.877  0.00  0.00    +0.000 A 
ATOM     16  C   UNL A   1     -25.810  -0.853  30.103  0.00  0.00    +0.000 A 
ATOM     17  C   UNL A   1     -27.991  -0.892  31.226  0.00  0.00    +0.005 A 
ATOM     18  C   UNL A   1     -26.604  -0.868  31.265  0.00  0.00    +0.000 A 
ENDBRANCH   1  14
TORSDOF 1
