MODEL 4095
MODEL 1
REMARK VINA RESULT:    -6.641      0.000      0.000
REMARK INTER + INTRA:          -7.406
REMARK INTER:                  -7.029
REMARK INTRA:                  -0.377
REMARK UNBOUND:                -0.377
REMARK  Name = No_4095-gen_results/8p0m/2024-11-26-14-13-15/
REMARK  1 active torsions:
REMARK  status: ('A' for Active; 'I' for Inactive)
REMARK    1  A    between atoms: C_4  and  C_7
REMARK                            x       y       z     vdW  Elec       q    Type
REMARK                         _______ _______ _______ _____ _____    ______ ____
ROOT
ATOM      1  C   UNL A   1     -24.565  -5.194  28.925  0.00  0.00    +0.000 A 
ATOM      2  C   UNL A   1     -25.539  -5.188  29.329  0.00  0.00    +0.000 A 
ATOM      3  C   UNL A   1     -23.977  -3.883  28.605  0.00  0.00    +0.000 A 
ATOM      4  C   UNL A   1     -24.650  -2.679  28.964  0.00  0.00    +0.000 A 
ATOM      5  C   UNL A   1     -25.886  -2.830  29.540  0.00  0.00    +0.000 A 
ATOM      6  C   UNL A   1     -26.390  -4.058  29.787  0.00  0.00    +0.000 A 
ENDROOT
BRANCH   4   7
ATOM      7  C   UNL A   1     -24.082  -1.388  28.676  0.00  0.00    +0.000 A 
ATOM      8  C   UNL A   1     -24.460  -0.650  28.086  0.00  0.00    +0.000 A 
ATOM      9  C   UNL A   1     -23.753   0.637  27.614  0.00  0.00    +0.000 A 
ATOM     10  C   UNL A   1     -22.495   0.769  28.171  0.00  0.00    +0.000 A 
ATOM     11  C   UNL A   1     -22.691  -1.200  29.213  0.00  0.00    +0.000 A 
ATOM     12  C   UNL A   1     -21.958  -0.150  28.912  0.00  0.00    +0.000 A 
ENDBRANCH   4   7
TORSDOF 1
ENDMDL
ENDMDL
