MODEL 4096
MODEL 1
REMARK VINA RESULT:    -4.404      0.000      0.000
REMARK INTER + INTRA:          -4.404
REMARK INTER:                  -4.404
REMARK INTRA:                   0.000
REMARK UNBOUND:                 0.000
REMARK  Name = No_4096-gen_results/8p0m/2024-11-26-14-13-15/
REMARK  0 active torsions:
REMARK  status: ('A' for Active; 'I' for Inactive)
REMARK                            x       y       z     vdW  Elec       q    Type
REMARK                         _______ _______ _______ _____ _____    ______ ____
ROOT
ATOM      1  C   UNL A   1      -9.196  -9.187  20.016  0.00  0.00    +0.011 A 
ATOM      2  C   UNL A   1      -8.367  -9.770  19.725  0.00  0.00    +0.058 A 
ATOM      3  C   UNL A   1     -10.342  -9.151  19.030  0.00  0.00    +0.001 A 
ATOM      4  C   UNL A   1     -10.302  -9.982  17.891  0.00  0.00    +0.000 A 
ATOM      5  C   UNL A   1      -8.089 -10.736  18.638  0.00  0.00    +0.011 A 
ATOM      6  C   UNL A   1      -9.125 -10.735  17.715  0.00  0.00    +0.001 A 
ATOM      7 CL   UNL A   1      -6.985  -9.825  20.917  0.00  0.00    -0.082 Cl
ENDROOT
TORSDOF 0
ENDMDL
ENDMDL
