MODEL 4097
MODEL 1
REMARK VINA RESULT:    -5.271      0.000      0.000
REMARK INTER + INTRA:          -6.191
REMARK INTER:                  -5.887
REMARK INTRA:                  -0.304
REMARK UNBOUND:                -0.304
REMARK  Name = No_4097-gen_results/8p0m/2024-11-26-14-13-15/
REMARK  2 active torsions:
REMARK  status: ('A' for Active; 'I' for Inactive)
REMARK    1  A    between atoms: C_3  and  C_4
REMARK    2  A    between atoms: C_4  and  C_8
REMARK                            x       y       z     vdW  Elec       q    Type
REMARK                         _______ _______ _______ _____ _____    ______ ____
ROOT
ATOM      1  C   UNL A   1     -26.329  -4.479  29.698  0.00  0.00    -0.000 A 
ATOM      2  C   UNL A   1     -26.153  -3.285  29.777  0.00  0.00    -0.004 A 
ATOM      3  C   UNL A   1     -25.020  -2.688  29.235  0.00  0.00    -0.018 A 
ATOM      4  C   UNL A   1     -25.245  -5.351  29.241  0.00  0.00    -0.000 A 
ATOM      5  C   UNL A   1     -24.132  -4.824  28.605  0.00  0.00    -0.000 A 
ATOM      6  C   UNL A   1     -23.975  -3.444  28.603  0.00  0.00    -0.004 A 
ENDROOT
BRANCH   3   7
ATOM      7  C   UNL A   1     -24.801  -1.286  29.237  0.00  0.00    +0.052 C 
BRANCH   7   8
ATOM      8  C   UNL A   1     -23.954  -0.598  28.380  0.00  0.00    -0.026 C 
ATOM      9  C   UNL A   1     -22.697  -0.163  28.795  0.00  0.00    -0.030 C 
ATOM     10  C   UNL A   1     -22.375  -0.229  30.226  0.00  0.00    +0.030 C 
ENDBRANCH   7   8
ENDBRANCH   3   7
TORSDOF 2
ENDMDL
ENDMDL
