REMARK  Name = No_4098-gen_results/8p0m/2024-11-26-14-13-15/
REMARK  2 active torsions:
REMARK  status: ('A' for Active; 'I' for Inactive)
REMARK    1  A    between atoms: C_1  and  C_2
REMARK    2  A    between atoms: C_5  and  C_6
REMARK                            x       y       z     vdW  Elec       q    Type
REMARK                         _______ _______ _______ _____ _____    ______ ____
ROOT
ATOM      1  C   UNL A   1     -27.064  -0.119  28.608  0.00  0.00    -0.000 A 
ATOM      2  C   UNL A   1     -27.001   0.691  27.491  0.00  0.00    -0.000 A 
ATOM      3  C   UNL A   1     -25.855   1.482  27.083  0.00  0.00    +0.004 A 
ATOM      4  C   UNL A   1     -24.690   1.453  27.881  0.00  0.00    +0.071 A 
ATOM      5  C   UNL A   1     -25.812  -0.166  29.430  0.00  0.00    -0.000 A 
ATOM      6  C   UNL A   1     -24.646   0.589  29.081  0.00  0.00    +0.004 A 
ENDROOT
BRANCH   1   7
ATOM      7  C   UNL A   1     -28.016  -0.814  28.878  0.00  0.00    -0.000 A 
ATOM      8  C   UNL A   1     -29.238  -0.100  29.374  0.00  0.00    -0.000 A 
ATOM      9  C   UNL A   1     -30.389  -0.851  29.793  0.00  0.00    +0.000 A 
ATOM     10  C   UNL A   1     -30.154  -2.138  30.213  0.00  0.00    +0.000 A 
ATOM     11  C   UNL A   1     -28.896  -2.763  30.128  0.00  0.00    +0.000 A 
ATOM     12  C   UNL A   1     -27.818  -2.058  29.619  0.00  0.00    -0.000 A 
ENDBRANCH   1   7
BRANCH   4  13
ATOM     13  C   UNL A   1     -23.488   2.145  27.601  0.00  0.00    +0.419 C 
ATOM     14  F   UNL A   1     -23.648   3.263  27.077  0.00  0.00    -0.166 F 
ATOM     15  F   UNL A   1     -22.642   1.429  26.746  0.00  0.00    -0.166 F 
ATOM     16  F   UNL A   1     -22.740   2.414  28.708  0.00  0.00    -0.166 F 
ENDBRANCH   4  13
TORSDOF 2
