MODEL 4098
MODEL 1
REMARK VINA RESULT:    -7.550      0.000      0.000
REMARK INTER + INTRA:          -9.017
REMARK INTER:                  -8.433
REMARK INTRA:                  -0.584
REMARK UNBOUND:                -0.584
REMARK  Name = No_4098-gen_results/8p0m/2024-11-26-14-13-15/
REMARK  2 active torsions:
REMARK  status: ('A' for Active; 'I' for Inactive)
REMARK    1  A    between atoms: C_1  and  C_2
REMARK    2  A    between atoms: C_5  and  C_6
REMARK                            x       y       z     vdW  Elec       q    Type
REMARK                         _______ _______ _______ _____ _____    ______ ____
ROOT
ATOM      1  C   UNL A   1     -24.232  -1.656  28.756  0.00  0.00    -0.000 A 
ATOM      2  C   UNL A   1     -24.903  -0.938  27.785  0.00  0.00    -0.000 A 
ATOM      3  C   UNL A   1     -24.435   0.287  27.165  0.00  0.00    +0.004 A 
ATOM      4  C   UNL A   1     -23.195   0.826  27.575  0.00  0.00    +0.071 A 
ATOM      5  C   UNL A   1     -22.905  -1.092  29.161  0.00  0.00    -0.000 A 
ATOM      6  C   UNL A   1     -22.385   0.113  28.586  0.00  0.00    +0.004 A 
ENDROOT
BRANCH   1   7
ATOM      7  C   UNL A   1     -24.626  -2.710  29.201  0.00  0.00    -0.000 A 
ATOM      8  C   UNL A   1     -24.131  -3.946  28.513  0.00  0.00    -0.000 A 
ATOM      9  C   UNL A   1     -24.608  -5.238  28.923  0.00  0.00    +0.000 A 
ATOM     10  C   UNL A   1     -25.838  -5.264  29.534  0.00  0.00    +0.000 A 
ATOM     11  C   UNL A   1     -26.559  -4.105  29.875  0.00  0.00    +0.000 A 
ATOM     12  C   UNL A   1     -26.032  -2.861  29.568  0.00  0.00    -0.000 A 
ENDBRANCH   1   7
BRANCH   4  13
ATOM     13  C   UNL A   1     -22.595   1.994  27.047  0.00  0.00    +0.419 C 
ATOM     14  F   UNL A   1     -23.173   3.053  27.353  0.00  0.00    -0.166 F 
ATOM     15  F   UNL A   1     -22.524   1.977  25.649  0.00  0.00    -0.166 F 
ATOM     16  F   UNL A   1     -21.316   2.192  27.472  0.00  0.00    -0.166 F 
ENDBRANCH   4  13
TORSDOF 2
ENDMDL
ENDMDL
