REMARK  Name = No_4099-gen_results/8p0m/2024-11-26-14-13-15/
REMARK  4 active torsions:
REMARK  status: ('A' for Active; 'I' for Inactive)
REMARK    1  A    between atoms: C_4  and  C_7
REMARK    2  A    between atoms: C_7  and  C_8
REMARK    3  A    between atoms: C_8  and  C_9
REMARK    4  A    between atoms: C_11  and  C_16
REMARK                            x       y       z     vdW  Elec       q    Type
REMARK                         _______ _______ _______ _____ _____    ______ ____
ROOT
ATOM      1  C   UNL A   1     -23.308  -0.765  29.808  0.00  0.00    +0.031 C 
ENDROOT
BRANCH   1   2
ATOM      2  C   UNL A   1     -23.065   0.185  28.978  0.00  0.00    -0.022 A 
ATOM      3  C   UNL A   1     -23.808   1.351  28.862  0.00  0.00    +0.002 A 
ATOM      4  C   UNL A   1     -23.516   2.344  27.898  0.00  0.00    +0.080 A 
ATOM      5  C   UNL A   1     -22.401   2.062  27.029  0.00  0.00    +0.007 A 
ATOM      6  C   UNL A   1     -21.565   1.011  27.293  0.00  0.00    -0.000 A 
ATOM      7  C   UNL A   1     -21.874   0.104  28.214  0.00  0.00    -0.004 A 
BRANCH   4   8
ATOM      8  C   UNL A   1     -24.386   3.489  27.699  0.00  0.00    +0.388 C 
ATOM      9  O   UNL A   1     -24.882   4.044  28.601  0.00  0.00    -0.241 OA
ATOM     10  O   UNL A   1     -24.763   3.642  26.451  0.00  0.00    -0.241 OA
ENDBRANCH   4   8
ENDBRANCH   1   2
BRANCH   1  11
ATOM     11  C   UNL A   1     -24.392  -1.740  29.564  0.00  0.00    +0.027 C 
ATOM     12  C   UNL A   1     -24.049  -2.991  28.902  0.00  0.00    +0.005 C 
BRANCH  11  16
ATOM     13  C   UNL A   1     -28.016  -0.814  28.878  0.00  0.00    -0.000 A 
ATOM     14  C   UNL A   1     -28.469  -0.785  29.829  0.00  0.00    -0.000 A 
ATOM     15  C   UNL A   1     -26.603  -1.060  28.538  0.00  0.00    -0.004 A 
ATOM     16  C   UNL A   1     -25.797  -1.449  29.727  0.00  0.00    -0.022 A 
ATOM     17  C   UNL A   1     -26.428  -1.541  30.983  0.00  0.00    -0.004 A 
ATOM     18  C   UNL A   1     -27.756  -1.244  31.075  0.00  0.00    -0.000 A 
ENDBRANCH  11  16
ENDBRANCH   1  11
TORSDOF 4
