MODEL 4099
MODEL 1
REMARK VINA RESULT:    -7.097      0.000      0.000
REMARK INTER + INTRA:          -9.795
REMARK INTER:                  -8.756
REMARK INTRA:                  -1.039
REMARK UNBOUND:                -1.039
REMARK  Name = No_4099-gen_results/8p0m/2024-11-26-14-13-15/
REMARK  4 active torsions:
REMARK  status: ('A' for Active; 'I' for Inactive)
REMARK    1  A    between atoms: C_4  and  C_7
REMARK    2  A    between atoms: C_7  and  C_8
REMARK    3  A    between atoms: C_8  and  C_9
REMARK    4  A    between atoms: C_11  and  C_16
REMARK                            x       y       z     vdW  Elec       q    Type
REMARK                         _______ _______ _______ _____ _____    ______ ____
ROOT
ATOM      1  C   UNL A   1     -10.642   1.771  37.133  0.00  0.00    +0.031 C 
ENDROOT
BRANCH   1   2
ATOM      2  C   UNL A   1     -11.711   2.019  36.464  0.00  0.00    -0.022 A 
ATOM      3  C   UNL A   1     -11.918   1.674  35.136  0.00  0.00    +0.002 A 
ATOM      4  C   UNL A   1     -13.102   2.012  34.440  0.00  0.00    +0.080 A 
ATOM      5  C   UNL A   1     -14.080   2.754  35.196  0.00  0.00    +0.007 A 
ATOM      6  C   UNL A   1     -13.943   2.904  36.549  0.00  0.00    -0.000 A 
ATOM      7  C   UNL A   1     -12.815   2.565  37.165  0.00  0.00    -0.004 A 
BRANCH   4   8
ATOM      8  C   UNL A   1     -13.243   1.767  33.017  0.00  0.00    +0.388 C 
ATOM      9  O   UNL A   1     -12.511   1.057  32.443  0.00  0.00    -0.241 OA
ATOM     10  O   UNL A   1     -14.058   2.608  32.424  0.00  0.00    -0.241 OA
ENDBRANCH   4   8
ENDBRANCH   1   2
BRANCH   1  11
ATOM     11  C   UNL A   1     -10.187   0.384  37.366  0.00  0.00    +0.027 C 
ATOM     12  C   UNL A   1      -9.030  -0.089  36.619  0.00  0.00    +0.005 C 
BRANCH  11  16
ATOM     13  C   UNL A   1     -12.002  -2.804  38.366  0.00  0.00    -0.000 A 
ATOM     14  C   UNL A   1     -12.412  -2.593  39.313  0.00  0.00    -0.000 A 
ATOM     15  C   UNL A   1     -11.245  -1.912  37.469  0.00  0.00    -0.004 A 
ATOM     16  C   UNL A   1     -10.937  -0.603  38.106  0.00  0.00    -0.022 A 
ATOM     17  C   UNL A   1     -11.370  -0.363  39.425  0.00  0.00    -0.004 A 
ATOM     18  C   UNL A   1     -12.084  -1.331  40.069  0.00  0.00    -0.000 A 
ENDBRANCH  11  16
ENDBRANCH   1  11
TORSDOF 4
ENDMDL
ENDMDL
