MODEL 409
MODEL 1
REMARK VINA RESULT:    -4.969      0.000      0.000
REMARK INTER + INTRA:          -5.406
REMARK INTER:                  -5.259
REMARK INTRA:                  -0.147
REMARK UNBOUND:                -0.147
REMARK  Name = No_409-gen_results/8p0m/2024-11-26-14-13-15/
REMARK  1 active torsions:
REMARK  status: ('A' for Active; 'I' for Inactive)
REMARK    1  A    between atoms: C_7  and  C_8
REMARK                            x       y       z     vdW  Elec       q    Type
REMARK                         _______ _______ _______ _____ _____    ______ ____
ROOT
ATOM      1  F   UNL A   1     -23.846  -2.914  29.544  0.00  0.00    -0.204 F 
ATOM      2  C   UNL A   1     -23.644  -1.801  29.041  0.00  0.00    +0.140 A 
ATOM      3  C   UNL A   1     -24.583  -1.238  28.261  0.00  0.00    +0.030 A 
ATOM      4  C   UNL A   1     -22.361  -1.106  29.311  0.00  0.00    +0.030 A 
ATOM      5  C   UNL A   1     -22.082   0.129  28.643  0.00  0.00    +0.006 A 
ATOM      6  C   UNL A   1     -24.281   0.049  27.598  0.00  0.00    +0.006 A 
ATOM      7  C   UNL A   1     -23.063   0.708  27.791  0.00  0.00    +0.072 A 
ENDROOT
BRANCH   7   8
ATOM      8  C   UNL A   1     -22.743   1.944  27.127  0.00  0.00    +0.419 C 
ATOM      9  F   UNL A   1     -23.352   2.925  27.456  0.00  0.00    -0.166 F 
ATOM     10  F   UNL A   1     -21.359   2.234  27.450  0.00  0.00    -0.166 F 
ATOM     11  F   UNL A   1     -22.762   1.812  25.806  0.00  0.00    -0.166 F 
ENDBRANCH   7   8
TORSDOF 1
ENDMDL
ENDMDL
