MODEL 40
MODEL 1
REMARK VINA RESULT:    -6.682      0.000      0.000
REMARK INTER + INTRA:          -7.880
REMARK INTER:                  -7.464
REMARK INTRA:                  -0.416
REMARK UNBOUND:                -0.416
REMARK  Name = No_40-gen_results/8p0m/2024-11-26-14-13-15/
REMARK  2 active torsions:
REMARK  status: ('A' for Active; 'I' for Inactive)
REMARK    1  A    between atoms: C_1  and  C_3
REMARK    2  A    between atoms: C_2  and  C_9
REMARK                            x       y       z     vdW  Elec       q    Type
REMARK                         _______ _______ _______ _____ _____    ______ ____
ROOT
ATOM      1  C   UNL A   1     -24.852  -0.732  27.788  0.00  0.00    -0.060 C 
ATOM      2  C   UNL A   1     -24.622  -1.693  28.153  0.00  0.00    -0.060 C 
ENDROOT
BRANCH   1   3
ATOM      3  C   UNL A   1     -24.304   0.432  27.193  0.00  0.00    +0.042 A 
ATOM      4  C   UNL A   1     -24.472   1.079  26.115  0.00  0.00    +0.008 A 
ATOM      5  C   UNL A   1     -23.798   2.407  25.773  0.00  0.00    +0.001 A 
ATOM      6  C   UNL A   1     -22.856   2.545  26.101  0.00  0.00    +0.000 A 
ATOM      7  C   UNL A   1     -22.208   1.917  27.229  0.00  0.00    +0.001 A 
ATOM      8  C   UNL A   1     -22.931   0.799  27.672  0.00  0.00    +0.008 A 
ENDBRANCH   1   3
BRANCH   2   9
ATOM      9  C   UNL A   1     -24.955  -2.735  28.752  0.00  0.00    +0.042 A 
ATOM     10  C   UNL A   1     -24.099  -3.830  28.527  0.00  0.00    +0.008 A 
ATOM     11  C   UNL A   1     -24.437  -5.114  28.818  0.00  0.00    +0.001 A 
ATOM     12  C   UNL A   1     -25.561  -5.360  29.548  0.00  0.00    +0.000 A 
ATOM     13  C   UNL A   1     -26.436  -4.383  29.886  0.00  0.00    +0.001 A 
ATOM     14  C   UNL A   1     -26.180  -3.079  29.432  0.00  0.00    +0.008 A 
ENDBRANCH   2   9
TORSDOF 2
ENDMDL
ENDMDL
