REMARK  Name = No_41-gen_results/8p0m/2024-11-26-14-13-15/
REMARK  5 active torsions:
REMARK  status: ('A' for Active; 'I' for Inactive)
REMARK    1  A    between atoms: C_3  and  C_16
REMARK    2  A    between atoms: C_7  and  C_9
REMARK    3  A    between atoms: C_14  and  C_20
REMARK    4  A    between atoms: C_20  and  C_21
REMARK    5  A    between atoms: C_25  and  C_30
REMARK                            x       y       z     vdW  Elec       q    Type
REMARK                         _______ _______ _______ _____ _____    ______ ____
ROOT
ATOM      1  C   UNL A   1     -27.924   1.414  27.648  0.00  0.00    -0.016 C 
ATOM      2  C   UNL A   1     -28.732   2.132  28.149  0.00  0.00    -0.004 C 
ATOM      3  C   UNL A   1     -29.560   2.733  28.117  0.00  0.00    -0.000 C 
ATOM      4  C   UNL A   1     -30.648   2.860  27.377  0.00  0.00    -0.001 C 
ATOM      5  C   UNL A   1     -30.745   1.875  26.364  0.00  0.00    -0.008 C 
ATOM      6  C   UNL A   1     -29.740   1.086  25.776  0.00  0.00    -0.032 C 
ATOM      7  C   UNL A   1     -28.460   0.670  26.426  0.00  0.00    +0.049 C 
ENDROOT
BRANCH   1  14
ATOM      8  F   UNL A   1     -28.073  -1.254  28.532  0.00  0.00    -0.204 F 
ATOM      9  C   UNL A   1     -27.061  -0.629  28.872  0.00  0.00    +0.144 A 
ATOM     10  C   UNL A   1     -26.153  -1.156  29.454  0.00  0.00    +0.083 A 
ATOM     11  C   UNL A   1     -24.878  -0.579  29.864  0.00  0.00    +0.018 A 
ATOM     12  C   UNL A   1     -24.743   0.827  29.481  0.00  0.00    +0.058 A 
ATOM     13  C   UNL A   1     -25.788   1.393  28.763  0.00  0.00    +0.013 A 
ATOM     14  C   UNL A   1     -26.915   0.731  28.443  0.00  0.00    +0.025 A 
ATOM     15 CL   UNL A   1     -23.345   1.656  29.917  0.00  0.00    -0.082 Cl
BRANCH  10  16
ATOM     16  C   UNL A   1     -26.157  -2.625  29.966  0.00  0.00    +0.267 C 
ATOM     17  O   UNL A   1     -27.154  -3.053  30.537  0.00  0.00    -0.268 OA
ATOM     18  N   UNL A   1     -25.104  -3.375  29.810  0.00  0.00    -0.200 NA
ATOM     19  C   UNL A   1     -23.962  -3.054  29.024  0.00  0.00    +0.139 C 
ENDBRANCH  10  16
ENDBRANCH   1  14
BRANCH   6  20
ATOM     20  C   UNL A   1     -29.974   0.340  24.581  0.00  0.00    +0.095 C 
ATOM     21  C   UNL A   1     -30.323   1.118  23.323  0.00  0.00    +0.014 C 
BRANCH  20  22
ATOM     22  C   UNL A   1     -30.523  -0.914  24.864  0.00  0.00    +0.229 C 
ATOM     23  N   UNL A   1     -31.424  -1.198  25.504  0.00  0.00    -0.279 N 
ATOM     24  C   UNL A   1     -32.311  -1.892  25.564  0.00  0.00    +0.094 C 
ATOM     25  C   UNL A   1     -32.883  -2.656  26.232  0.00  0.00    +0.026 C 
ATOM     26  C   UNL A   1     -32.373  -2.695  27.621  0.00  0.00    +0.026 C 
ATOM     27  C   UNL A   1     -31.672  -1.596  28.070  0.00  0.00    +0.026 C 
ATOM     28  C   UNL A   1     -31.013  -0.957  27.117  0.00  0.00    +0.094 C 
ATOM     29  O   UNL A   1     -30.039  -1.828  23.999  0.00  0.00    -0.275 OA
BRANCH  26  30
ATOM     30  C   UNL A   1     -33.023  -3.605  28.638  0.00  0.00    -0.022 A 
ATOM     31  C   UNL A   1     -33.473  -3.190  29.727  0.00  0.00    -0.004 A 
ATOM     32  C   UNL A   1     -33.730  -4.086  30.860  0.00  0.00    -0.000 A 
ATOM     33  C   UNL A   1     -33.641  -5.464  30.566  0.00  0.00    -0.000 A 
ATOM     34  C   UNL A   1     -32.713  -5.002  28.496  0.00  0.00    -0.004 A 
ATOM     35  C   UNL A   1     -33.033  -5.912  29.442  0.00  0.00    -0.000 A 
ENDBRANCH  26  30
ENDBRANCH  20  22
ENDBRANCH   6  20
TORSDOF 5
