REMARK  Name = No_410-gen_results/8p0m/2024-11-26-14-13-15/
REMARK  0 active torsions:
REMARK  status: ('A' for Active; 'I' for Inactive)
REMARK                            x       y       z     vdW  Elec       q    Type
REMARK                         _______ _______ _______ _____ _____    ______ ____
ROOT
ATOM      1  C   UNL A   1     -28.016  -0.814  28.878  0.00  0.00    +0.011 A 
ATOM      2  C   UNL A   1     -27.064  -0.119  28.608  0.00  0.00    +0.001 A 
ATOM      3  C   UNL A   1     -25.792  -0.430  29.076  0.00  0.00    +0.000 A 
ATOM      4  C   UNL A   1     -25.576  -1.565  29.936  0.00  0.00    +0.001 A 
ATOM      5  C   UNL A   1     -26.735  -2.300  30.217  0.00  0.00    +0.011 A 
ATOM      6  C   UNL A   1     -27.918  -1.954  29.763  0.00  0.00    +0.058 A 
ATOM      7 CL   UNL A   1     -29.268  -2.889  30.215  0.00  0.00    -0.082 Cl
ATOM      8  C   UNL A   1     -27.107   1.110  27.759  0.00  0.00    +0.000 A 
ATOM      9  C   UNL A   1     -26.240   1.331  26.831  0.00  0.00    +0.000 A 
ATOM     10  C   UNL A   1     -25.105   0.483  26.700  0.00  0.00    +0.000 A 
ATOM     11  C   UNL A   1     -24.723  -0.310  27.875  0.00  0.00    +0.000 A 
ENDROOT
TORSDOF 0
