MODEL 4100
MODEL 1
REMARK VINA RESULT:    -6.520      0.000      0.000
REMARK INTER + INTRA:          -7.219
REMARK INTER:                  -6.902
REMARK INTRA:                  -0.317
REMARK UNBOUND:                -0.317
REMARK  Name = No_4100-gen_results/8p0m/2024-11-26-14-13-15/
REMARK  1 active torsions:
REMARK  status: ('A' for Active; 'I' for Inactive)
REMARK    1  A    between atoms: C_3  and  C_7
REMARK                            x       y       z     vdW  Elec       q    Type
REMARK                         _______ _______ _______ _____ _____    ______ ____
ROOT
ATOM      1  C   UNL A   1     -24.772  -4.972  28.995  0.00  0.00    +0.000 A 
ATOM      2  C   UNL A   1     -24.124  -3.991  28.710  0.00  0.00    +0.000 A 
ATOM      3  C   UNL A   1     -24.541  -2.688  28.976  0.00  0.00    +0.000 A 
ATOM      4  C   UNL A   1     -25.845  -2.471  29.573  0.00  0.00    +0.000 A 
ATOM      5  C   UNL A   1     -26.547  -3.661  29.869  0.00  0.00    +0.000 A 
ATOM      6  C   UNL A   1     -26.075  -4.846  29.576  0.00  0.00    +0.000 A 
ENDROOT
BRANCH   3   7
ATOM      7  C   UNL A   1     -23.795  -1.440  28.666  0.00  0.00    +0.000 A 
ATOM      8  C   UNL A   1     -22.547  -1.203  29.157  0.00  0.00    +0.000 A 
ATOM      9  C   UNL A   1     -21.893   0.001  28.886  0.00  0.00    +0.000 A 
ATOM     10  C   UNL A   1     -22.498   1.001  28.057  0.00  0.00    +0.000 A 
ATOM     11  C   UNL A   1     -24.318  -0.390  27.889  0.00  0.00    +0.000 A 
ATOM     12  C   UNL A   1     -23.685   0.768  27.614  0.00  0.00    +0.000 A 
ENDBRANCH   3   7
TORSDOF 1
ENDMDL
ENDMDL
