MODEL 4101
MODEL 1
REMARK VINA RESULT:    -4.288      0.000      0.000
REMARK INTER + INTRA:          -4.288
REMARK INTER:                  -4.288
REMARK INTRA:                   0.000
REMARK UNBOUND:                 0.000
REMARK  Name = No_4101-gen_results/8p0m/2024-11-26-14-13-15/
REMARK  0 active torsions:
REMARK  status: ('A' for Active; 'I' for Inactive)
REMARK                            x       y       z     vdW  Elec       q    Type
REMARK                         _______ _______ _______ _____ _____    ______ ____
ROOT
ATOM      1  C   UNL A   1     -25.002  -5.360  28.993  0.00  0.00    +0.000 A 
ATOM      2  C   UNL A   1     -24.212  -4.713  28.732  0.00  0.00    +0.000 A 
ATOM      3  C   UNL A   1     -26.131  -4.680  29.626  0.00  0.00    +0.000 A 
ATOM      4  C   UNL A   1     -26.145  -3.322  29.831  0.00  0.00    +0.000 A 
ATOM      5  C   UNL A   1     -23.956  -3.275  28.821  0.00  0.00    +0.000 A 
ATOM      6  C   UNL A   1     -25.044  -2.608  29.432  0.00  0.00    +0.000 A 
ENDROOT
TORSDOF 0
ENDMDL
ENDMDL
