REMARK  Name = No_4103-gen_results/8p0m/2024-11-26-14-13-15/
REMARK  6 active torsions:
REMARK  status: ('A' for Active; 'I' for Inactive)
REMARK    1  A    between atoms: C_5  and  C_20
REMARK    2  A    between atoms: C_13  and  O_30
REMARK    3  A    between atoms: C_20  and  C_21
REMARK    4  A    between atoms: C_21  and  C_22
REMARK    5  A    between atoms: O_30  and  C_31
REMARK    6  A    between atoms: C_31  and  C_32
REMARK                            x       y       z     vdW  Elec       q    Type
REMARK                         _______ _______ _______ _____ _____    ______ ____
ROOT
ATOM      1  C   UNL A   1     -28.016  -0.814  28.878  0.00  0.00    -0.021 A 
ATOM      2  C   UNL A   1     -28.469  -0.785  29.829  0.00  0.00    -0.001 A 
ATOM      3  C   UNL A   1     -26.504  -0.778  28.877  0.00  0.00    -0.025 A 
ATOM      4  C   UNL A   1     -25.654  -0.660  27.719  0.00  0.00    +0.031 C 
ATOM      5  C   UNL A   1     -27.918  -0.937  31.182  0.00  0.00    +0.035 A 
ATOM      6  C   UNL A   1     -26.542  -0.940  31.261  0.00  0.00    +0.002 A 
ATOM      7  C   UNL A   1     -25.783  -0.893  30.120  0.00  0.00    -0.004 A 
ATOM      8  C   UNL A   1     -25.899   0.315  26.747  0.00  0.00    +0.031 C 
ATOM      9  C   UNL A   1     -26.773   0.475  26.258  0.00  0.00    -0.023 A 
ATOM     10  C   UNL A   1     -26.952   1.535  25.186  0.00  0.00    -0.004 A 
ATOM     11  C   UNL A   1     -28.192   1.842  24.642  0.00  0.00    +0.003 A 
ATOM     12  C   UNL A   1     -29.307   1.061  24.967  0.00  0.00    +0.037 A 
ATOM     13  C   UNL A   1     -29.168   0.072  25.883  0.00  0.00    +0.135 A 
ATOM     14  C   UNL A   1     -27.987  -0.221  26.503  0.00  0.00    +0.012 A 
ATOM     15  C   UNL A   1     -28.564  -0.310  27.638  0.00  0.00    +0.055 C 
ATOM     16  C   UNL A   1     -24.365  -1.010  30.202  0.00  0.00    -0.000 A 
ATOM     17  C   UNL A   1     -23.771  -1.224  31.139  0.00  0.00    -0.000 A 
ATOM     18  C   UNL A   1     -24.430  -1.001  32.466  0.00  0.00    +0.000 A 
ATOM     19  C   UNL A   1     -25.840  -0.970  32.478  0.00  0.00    +0.000 A 
ENDROOT
BRANCH   5  20
ATOM     20  C   UNL A   1     -28.719  -1.077  32.439  0.00  0.00    +0.177 C 
ATOM     21  O   UNL A   1     -29.149  -2.253  32.657  0.00  0.00    -0.291 OA
BRANCH  20  22
ATOM     22  C   UNL A   1     -29.326   0.087  32.907  0.00  0.00    +0.084 C 
ATOM     23  C   UNL A   1     -29.892  -0.145  34.305  0.00  0.00    +0.013 C 
BRANCH  22  24
ATOM     24  C   UNL A   1     -29.510   1.119  32.270  0.00  0.00    -0.015 A 
ATOM     25  C   UNL A   1     -30.006   1.456  31.329  0.00  0.00    -0.004 A 
ATOM     26  C   UNL A   1     -30.100   2.799  30.727  0.00  0.00    -0.000 A 
ATOM     27  C   UNL A   1     -29.400   3.781  31.344  0.00  0.00    -0.000 A 
ATOM     28  C   UNL A   1     -28.740   3.544  32.534  0.00  0.00    -0.000 A 
ATOM     29  C   UNL A   1     -28.733   2.321  33.048  0.00  0.00    -0.004 A 
ENDBRANCH  22  24
ENDBRANCH  20  22
ENDBRANCH   5  20
BRANCH  13  30
ATOM     30  O   UNL A   1     -30.551  -0.257  26.121  0.00  0.00    -0.464 OA
BRANCH  30  31
ATOM     31  C   UNL A   1     -30.906  -1.269  25.296  0.00  0.00    +0.319 C 
BRANCH  31  32
ATOM     32  C   UNL A   1     -32.023  -2.028  25.874  0.00  0.00    +0.408 C 
ATOM     33  O   UNL A   1     -32.264  -3.072  25.367  0.00  0.00    -0.241 OA
ATOM     34  O   UNL A   1     -32.356  -2.003  27.062  0.00  0.00    -0.241 OA
ENDBRANCH  31  32
ENDBRANCH  30  31
ENDBRANCH  13  30
TORSDOF 6
