MODEL 4103
MODEL 1
REMARK VINA RESULT:    -9.051      0.000      0.000
REMARK INTER + INTRA:         -13.872
REMARK INTER:                 -12.225
REMARK INTRA:                  -1.646
REMARK UNBOUND:                -1.646
REMARK  Name = No_4103-gen_results/8p0m/2024-11-26-14-13-15/
REMARK  6 active torsions:
REMARK  status: ('A' for Active; 'I' for Inactive)
REMARK    1  A    between atoms: C_5  and  C_20
REMARK    2  A    between atoms: C_13  and  O_30
REMARK    3  A    between atoms: C_20  and  C_21
REMARK    4  A    between atoms: C_21  and  C_22
REMARK    5  A    between atoms: O_30  and  C_31
REMARK    6  A    between atoms: C_31  and  C_32
REMARK                            x       y       z     vdW  Elec       q    Type
REMARK                         _______ _______ _______ _____ _____    ______ ____
ROOT
ATOM      1  C   UNL A   1     -26.120  -0.512  28.379  0.00  0.00    -0.021 A 
ATOM      2  C   UNL A   1     -26.785   0.054  27.789  0.00  0.00    -0.001 A 
ATOM      3  C   UNL A   1     -24.652  -0.217  28.169  0.00  0.00    -0.025 A 
ATOM      4  C   UNL A   1     -23.545  -0.945  28.738  0.00  0.00    +0.031 C 
ATOM      5  C   UNL A   1     -26.581   1.240  26.947  0.00  0.00    +0.035 A 
ATOM      6  C   UNL A   1     -25.265   1.589  26.730  0.00  0.00    +0.002 A 
ATOM      7  C   UNL A   1     -24.255   0.901  27.351  0.00  0.00    -0.004 A 
ATOM      8  C   UNL A   1     -23.501  -2.342  28.679  0.00  0.00    +0.031 C 
ATOM      9  C   UNL A   1     -24.224  -2.983  28.987  0.00  0.00    -0.023 A 
ATOM     10  C   UNL A   1     -24.087  -4.494  28.923  0.00  0.00    -0.004 A 
ATOM     11  C   UNL A   1     -25.144  -5.349  29.203  0.00  0.00    +0.003 A 
ATOM     12  C   UNL A   1     -26.343  -4.833  29.707  0.00  0.00    +0.037 A 
ATOM     13  C   UNL A   1     -26.478  -3.489  29.825  0.00  0.00    +0.135 A 
ATOM     14  C   UNL A   1     -25.495  -2.601  29.493  0.00  0.00    +0.012 A 
ATOM     15  C   UNL A   1     -26.330  -1.851  28.884  0.00  0.00    +0.055 C 
ATOM     16  C   UNL A   1     -22.905   1.338  27.212  0.00  0.00    -0.000 A 
ATOM     17  C   UNL A   1     -22.563   2.276  26.684  0.00  0.00    -0.000 A 
ATOM     18  C   UNL A   1     -23.507   2.939  25.727  0.00  0.00    +0.000 A 
ATOM     19  C   UNL A   1     -24.876   2.629  25.868  0.00  0.00    +0.000 A 
ENDROOT
BRANCH   5  20
ATOM     20  C   UNL A   1     -27.664   2.064  26.324  0.00  0.00    +0.177 C 
ATOM     21  O   UNL A   1     -28.453   2.608  27.159  0.00  0.00    -0.291 OA
BRANCH  20  22
ATOM     22  C   UNL A   1     -28.005   1.731  25.014  0.00  0.00    +0.084 C 
ATOM     23  C   UNL A   1     -27.983   2.979  24.136  0.00  0.00    +0.013 C 
BRANCH  22  24
ATOM     24  C   UNL A   1     -28.395   0.638  24.618  0.00  0.00    -0.015 A 
ATOM     25  C   UNL A   1     -28.028  -0.221  24.008  0.00  0.00    -0.004 A 
ATOM     26  C   UNL A   1     -28.695  -1.483  23.637  0.00  0.00    -0.000 A 
ATOM     27  C   UNL A   1     -29.995  -1.602  24.002  0.00  0.00    -0.000 A 
ATOM     28  C   UNL A   1     -30.606  -0.638  24.779  0.00  0.00    -0.000 A 
ATOM     29  C   UNL A   1     -29.934   0.455  25.119  0.00  0.00    -0.004 A 
ENDBRANCH  22  24
ENDBRANCH  20  22
ENDBRANCH   5  20
BRANCH  13  30
ATOM     30  O   UNL A   1     -27.893  -3.392  30.082  0.00  0.00    -0.464 OA
BRANCH  30  31
ATOM     31  C   UNL A   1     -28.303  -4.528  30.692  0.00  0.00    +0.319 C 
BRANCH  31  32
ATOM     32  C   UNL A   1     -29.730  -4.760  30.428  0.00  0.00    +0.408 C 
ATOM     33  O   UNL A   1     -30.032  -4.919  29.293  0.00  0.00    -0.241 OA
ATOM     34  O   UNL A   1     -30.509  -5.327  31.199  0.00  0.00    -0.241 OA
ENDBRANCH  31  32
ENDBRANCH  30  31
ENDBRANCH  13  30
TORSDOF 6
ENDMDL
ENDMDL
