REMARK  Name = No_4104-gen_results/8p0m/2024-11-26-14-13-15/
REMARK  2 active torsions:
REMARK  status: ('A' for Active; 'I' for Inactive)
REMARK    1  A    between atoms: C_4  and  C_6
REMARK    2  A    between atoms: C_9  and  C_11
REMARK                            x       y       z     vdW  Elec       q    Type
REMARK                         _______ _______ _______ _____ _____    ______ ____
ROOT
ATOM      1  C   UNL A   1     -27.055   3.409  26.140  0.00  0.00    +0.028 A 
ATOM      2  C   UNL A   1     -27.518   4.534  26.941  0.00  0.00    +0.004 A 
ATOM      3  C   UNL A   1     -26.777   5.141  27.839  0.00  0.00    +0.018 A 
ATOM      4  C   UNL A   1     -27.250   6.024  28.793  0.00  0.00    +0.002 A 
ATOM      5  C   UNL A   1     -26.460   6.527  29.865  0.00  0.00    +0.000 A 
ATOM      6  C   UNL A   1     -25.122   6.136  29.820  0.00  0.00    +0.002 A 
ATOM      7  C   UNL A   1     -24.644   5.312  28.843  0.00  0.00    +0.019 A 
ATOM      8  C   UNL A   1     -25.442   4.876  28.049  0.00  0.00    +0.082 A 
ATOM      9  C   UNL A   1     -25.581   3.112  26.318  0.00  0.00    +0.138 A 
ATOM     10  N   UNL A   1     -24.910   3.805  27.137  0.00  0.00    -0.234 NA
ATOM     11 CL   UNL A   1     -24.952   1.989  25.337  0.00  0.00    -0.061 Cl
ENDROOT
BRANCH   1  13
ATOM     12  C   UNL A   1     -28.180   1.655  25.643  0.00  0.00    -0.022 C 
ATOM     13  C   UNL A   1     -27.858   2.526  25.175  0.00  0.00    -0.002 C 
ATOM     14  C   UNL A   1     -29.015   0.839  24.422  0.00  0.00    +0.031 C 
BRANCH  12  18
ATOM     15  C   UNL A   1     -28.016  -0.814  28.878  0.00  0.00    +0.058 A 
ATOM     16  C   UNL A   1     -27.064  -0.119  28.608  0.00  0.00    +0.011 A 
ATOM     17  C   UNL A   1     -27.001   0.691  27.491  0.00  0.00    +0.001 A 
ATOM     18  C   UNL A   1     -28.142   0.828  26.799  0.00  0.00    -0.004 A 
ATOM     19  C   UNL A   1     -29.290  -0.487  28.366  0.00  0.00    +0.011 A 
ATOM     20  C   UNL A   1     -29.299   0.238  27.225  0.00  0.00    +0.001 A 
ATOM     21 CL   UNL A   1     -27.961  -1.820  30.366  0.00  0.00    -0.082 Cl
ENDBRANCH  12  18
ENDBRANCH   1  13
TORSDOF 2
