MODEL 4104
MODEL 1
REMARK VINA RESULT:    -7.062      0.000      0.000
REMARK INTER + INTRA:          -8.950
REMARK INTER:                  -7.888
REMARK INTRA:                  -1.062
REMARK UNBOUND:                -1.062
REMARK  Name = No_4104-gen_results/8p0m/2024-11-26-14-13-15/
REMARK  2 active torsions:
REMARK  status: ('A' for Active; 'I' for Inactive)
REMARK    1  A    between atoms: C_4  and  C_6
REMARK    2  A    between atoms: C_9  and  C_11
REMARK                            x       y       z     vdW  Elec       q    Type
REMARK                         _______ _______ _______ _____ _____    ______ ____
ROOT
ATOM      1  C   UNL A   1     -24.651  -0.303  29.273  0.00  0.00    +0.028 A 
ATOM      2  C   UNL A   1     -25.615  -1.279  29.762  0.00  0.00    +0.004 A 
ATOM      3  C   UNL A   1     -25.452  -2.578  29.658  0.00  0.00    +0.018 A 
ATOM      4  C   UNL A   1     -26.442  -3.522  29.864  0.00  0.00    +0.002 A 
ATOM      5  C   UNL A   1     -26.287  -4.906  29.570  0.00  0.00    +0.000 A 
ATOM      6  C   UNL A   1     -25.005  -5.260  29.150  0.00  0.00    +0.002 A 
ATOM      7  C   UNL A   1     -24.012  -4.335  29.005  0.00  0.00    +0.019 A 
ATOM      8  C   UNL A   1     -24.304  -3.179  29.192  0.00  0.00    +0.082 A 
ATOM      9  C   UNL A   1     -23.360  -0.927  28.786  0.00  0.00    +0.138 A 
ATOM     10  N   UNL A   1     -23.242  -2.186  28.805  0.00  0.00    -0.234 NA
ATOM     11 CL   UNL A   1     -22.174   0.099  28.388  0.00  0.00    -0.061 Cl
ENDROOT
BRANCH   1  13
ATOM     12  C   UNL A   1     -25.393   1.508  28.402  0.00  0.00    -0.022 C 
ATOM     13  C   UNL A   1     -24.789   1.224  29.199  0.00  0.00    -0.002 C 
ATOM     14  C   UNL A   1     -25.398   3.195  28.494  0.00  0.00    +0.031 C 
BRANCH  12  18
ATOM     15  C   UNL A   1     -27.480   0.255  25.136  0.00  0.00    +0.058 A 
ATOM     16  C   UNL A   1     -28.072   0.727  26.079  0.00  0.00    +0.011 A 
ATOM     17  C   UNL A   1     -27.457   1.109  27.255  0.00  0.00    +0.001 A 
ATOM     18  C   UNL A   1     -26.116   1.114  27.242  0.00  0.00    -0.004 A 
ATOM     19  C   UNL A   1     -26.101   0.511  24.975  0.00  0.00    +0.011 A 
ATOM     20  C   UNL A   1     -25.421   0.811  26.105  0.00  0.00    +0.001 A 
ATOM     21 CL   UNL A   1     -28.410  -0.198  23.667  0.00  0.00    -0.082 Cl
ENDBRANCH  12  18
ENDBRANCH   1  13
TORSDOF 2
ENDMDL
ENDMDL
