MODEL 4105
MODEL 1
REMARK VINA RESULT:    -5.802      0.000      0.000
REMARK INTER + INTRA:          -5.802
REMARK INTER:                  -5.802
REMARK INTRA:                   0.000
REMARK UNBOUND:                 0.000
REMARK  Name = No_4105-gen_results/8p0m/2024-11-26-14-13-15/
REMARK  0 active torsions:
REMARK  status: ('A' for Active; 'I' for Inactive)
REMARK                            x       y       z     vdW  Elec       q    Type
REMARK                         _______ _______ _______ _____ _____    ______ ____
ROOT
ATOM      1  O   UNL A   1     -12.405 -20.613  22.094  0.00  0.00    -0.273 OA
ATOM      2  C   UNL A   1     -11.999 -21.384  21.218  0.00  0.00    +0.250 C 
ATOM      3  C   UNL A   1     -12.058 -21.541  20.192  0.00  0.00    +0.155 C 
ATOM      4  N   UNL A   1     -11.124 -22.467  21.880  0.00  0.00    -0.205 NA
ATOM      5  C   UNL A   1     -11.679 -22.639  19.238  0.00  0.00    +0.033 C 
ATOM      6  C   UNL A   1     -10.811 -23.580  19.908  0.00  0.00    +0.053 C 
ATOM      7  C   UNL A   1     -10.293 -24.748  19.138  0.00  0.00    +0.144 C 
ATOM      8  C   UNL A   1     -10.563 -23.504  21.296  0.00  0.00    +0.118 C 
ATOM      9  C   UNL A   1     -12.953 -20.576  19.316  0.00  0.00    +0.240 C 
ATOM     10  O   UNL A   1     -13.643 -19.972  19.778  0.00  0.00    -0.274 OA
ATOM     11  N   UNL A   1     -12.537 -20.322  17.989  0.00  0.00    -0.228 N 
ATOM     12  C   UNL A   1     -11.481 -21.001  17.302  0.00  0.00    +0.233 C 
ATOM     13  C   UNL A   1     -11.170 -22.351  17.837  0.00  0.00    +0.108 C 
ATOM     14  O   UNL A   1     -10.017 -24.621  17.900  0.00  0.00    -0.353 OA
ATOM     15  C   UNL A   1     -10.677 -23.447  17.190  0.00  0.00    +0.151 C 
ATOM     16  O   UNL A   1     -10.976 -20.701  16.237  0.00  0.00    -0.274 OA
ATOM     17  C   UNL A   1     -13.011 -19.161  17.303  0.00  0.00    +0.123 C 
ENDROOT
TORSDOF 0
ENDMDL
ENDMDL
