REMARK  Name = No_4105-gen_results/8p0m/2024-11-26-14-13-15/
REMARK  0 active torsions:
REMARK  status: ('A' for Active; 'I' for Inactive)
REMARK                            x       y       z     vdW  Elec       q    Type
REMARK                         _______ _______ _______ _____ _____    ______ ____
ROOT
ATOM      1  O   UNL A   1     -28.123  -1.335  28.487  0.00  0.00    -0.273 OA
ATOM      2  C   UNL A   1     -27.064  -0.824  28.869  0.00  0.00    +0.250 C 
ATOM      3  C   UNL A   1     -26.402  -0.062  28.622  0.00  0.00    +0.155 C 
ATOM      4  N   UNL A   1     -26.572  -1.584  30.117  0.00  0.00    -0.205 NA
ATOM      5  C   UNL A   1     -25.021   0.356  29.044  0.00  0.00    +0.033 C 
ATOM      6  C   UNL A   1     -24.654  -0.347  30.252  0.00  0.00    +0.053 C 
ATOM      7  C   UNL A   1     -23.322  -0.070  30.864  0.00  0.00    +0.144 C 
ATOM      8  C   UNL A   1     -25.451  -1.387  30.778  0.00  0.00    +0.118 C 
ATOM      9  C   UNL A   1     -26.682   0.815  27.337  0.00  0.00    +0.240 C 
ATOM     10  O   UNL A   1     -27.357   0.482  26.638  0.00  0.00    -0.274 OA
ATOM     11  N   UNL A   1     -26.271   2.167  27.365  0.00  0.00    -0.228 N 
ATOM     12  C   UNL A   1     -25.459   2.771  28.376  0.00  0.00    +0.233 C 
ATOM     13  C   UNL A   1     -24.611   1.815  29.134  0.00  0.00    +0.108 C 
ATOM     14  O   UNL A   1     -22.832   1.106  30.812  0.00  0.00    -0.353 OA
ATOM     15  C   UNL A   1     -23.401   2.016  29.732  0.00  0.00    +0.151 C 
ATOM     16  O   UNL A   1     -25.229   3.955  28.535  0.00  0.00    -0.274 OA
ATOM     17  C   UNL A   1     -26.862   3.111  26.468  0.00  0.00    +0.123 C 
ENDROOT
TORSDOF 0
