MODEL 4106
MODEL 1
REMARK VINA RESULT:    -8.845      0.000      0.000
REMARK INTER + INTRA:         -11.864
REMARK INTER:                 -10.914
REMARK INTRA:                  -0.951
REMARK UNBOUND:                -0.951
REMARK  Name = No_4106-gen_results/8p0m/2024-11-26-14-13-15/
REMARK  4 active torsions:
REMARK  status: ('A' for Active; 'I' for Inactive)
REMARK    1  A    between atoms: C_5  and  C_21
REMARK    2  A    between atoms: C_16  and  C_18
REMARK    3  A    between atoms: C_18  and  O_20
REMARK    4  A    between atoms: O_20  and  C_24
REMARK                            x       y       z     vdW  Elec       q    Type
REMARK                         _______ _______ _______ _____ _____    ______ ____
ROOT
ATOM      1  C   UNL A   1     -27.305  -1.260  32.094  0.00  0.00    +0.003 A 
ATOM      2  C   UNL A   1     -26.626  -1.588  31.149  0.00  0.00    -0.018 A 
ATOM      3  C   UNL A   1     -25.371  -1.123  30.920  0.00  0.00    -0.003 A 
ATOM      4  C   UNL A   1     -24.821  -0.204  31.833  0.00  0.00    +0.000 A 
ATOM      5  C   UNL A   1     -26.771  -0.399  33.118  0.00  0.00    +0.080 A 
ATOM      6  C   UNL A   1     -25.526   0.118  32.920  0.00  0.00    +0.007 A 
ATOM      7  C   UNL A   1     -27.108  -2.579  30.103  0.00  0.00    +0.053 C 
ATOM      8  C   UNL A   1     -26.133  -3.530  29.605  0.00  0.00    -0.018 A 
ATOM      9  C   UNL A   1     -25.950  -4.673  29.705  0.00  0.00    -0.004 A 
ATOM     10  C   UNL A   1     -24.889  -5.402  29.320  0.00  0.00    -0.000 A 
ATOM     11  C   UNL A   1     -24.127  -4.804  28.402  0.00  0.00    -0.000 A 
ATOM     12  C   UNL A   1     -25.022  -2.942  28.739  0.00  0.00    -0.004 A 
ATOM     13  C   UNL A   1     -24.101  -3.568  28.131  0.00  0.00    -0.000 A 
ATOM     14  C   UNL A   1     -24.804  -1.367  28.717  0.00  0.00    -0.000 C 
ATOM     15  C   UNL A   1     -24.569  -1.044  29.726  0.00  0.00    +0.006 C 
ATOM     16  C   UNL A   1     -23.181  -0.313  29.984  0.00  0.00    +0.076 C 
ATOM     17  C   UNL A   1     -23.447   0.214  31.363  0.00  0.00    +0.006 C 
ENDROOT
BRANCH   5  18
ATOM     18  C   UNL A   1     -27.553  -0.107  34.335  0.00  0.00    +0.388 C 
ATOM     19  O   UNL A   1     -28.302   0.868  34.323  0.00  0.00    -0.241 OA
ATOM     20  O   UNL A   1     -27.134  -0.587  35.419  0.00  0.00    -0.241 OA
ENDBRANCH   5  18
BRANCH  16  21
ATOM     21  C   UNL A   1     -22.096  -0.116  29.251  0.00  0.00    +0.346 C 
ATOM     22  O   UNL A   1     -21.426  -1.107  28.966  0.00  0.00    -0.244 OA
BRANCH  21  23
ATOM     23  O   UNL A   1     -21.895   1.026  28.785  0.00  0.00    -0.421 OA
BRANCH  23  24
ATOM     24  C   UNL A   1     -22.678   1.482  27.688  0.00  0.00    +0.149 A 
ATOM     25  C   UNL A   1     -23.870   2.168  28.026  0.00  0.00    +0.038 A 
ATOM     26  C   UNL A   1     -24.428   3.078  27.143  0.00  0.00    +0.003 A 
ATOM     27  C   UNL A   1     -23.944   3.082  25.767  0.00  0.00    +0.000 A 
ATOM     28  C   UNL A   1     -22.745   2.401  25.490  0.00  0.00    +0.003 A 
ATOM     29  C   UNL A   1     -22.089   1.698  26.480  0.00  0.00    +0.038 A 
ENDBRANCH  23  24
ENDBRANCH  21  23
ENDBRANCH  16  21
TORSDOF 4
ENDMDL
ENDMDL
