REMARK  Name = No_4106-gen_results/8p0m/2024-11-26-14-13-15/
REMARK  4 active torsions:
REMARK  status: ('A' for Active; 'I' for Inactive)
REMARK    1  A    between atoms: C_5  and  C_21
REMARK    2  A    between atoms: C_16  and  C_18
REMARK    3  A    between atoms: C_18  and  O_20
REMARK    4  A    between atoms: O_20  and  C_24
REMARK                            x       y       z     vdW  Elec       q    Type
REMARK                         _______ _______ _______ _____ _____    ______ ____
ROOT
ATOM      1  C   UNL A   1     -28.016  -0.814  28.878  0.00  0.00    +0.003 A 
ATOM      2  C   UNL A   1     -27.064  -0.119  28.608  0.00  0.00    -0.018 A 
ATOM      3  C   UNL A   1     -26.929   1.171  29.008  0.00  0.00    -0.003 A 
ATOM      4  C   UNL A   1     -27.956   1.741  29.784  0.00  0.00    +0.000 A 
ATOM      5  C   UNL A   1     -29.057  -0.327  29.747  0.00  0.00    +0.080 A 
ATOM      6  C   UNL A   1     -28.983   0.972  30.152  0.00  0.00    +0.007 A 
ATOM      7  C   UNL A   1     -25.891  -0.626  27.786  0.00  0.00    +0.053 C 
ATOM      8  C   UNL A   1     -24.569  -0.199  28.200  0.00  0.00    -0.018 A 
ATOM      9  C   UNL A   1     -23.641  -0.699  28.689  0.00  0.00    -0.004 A 
ATOM     10  C   UNL A   1     -22.527  -0.129  29.180  0.00  0.00    -0.000 A 
ATOM     11  C   UNL A   1     -22.308   1.107  28.729  0.00  0.00    -0.000 A 
ATOM     12  C   UNL A   1     -24.258   1.280  27.988  0.00  0.00    -0.004 A 
ATOM     13  C   UNL A   1     -23.159   1.879  28.198  0.00  0.00    -0.000 A 
ATOM     14  C   UNL A   1     -25.447   2.287  27.669  0.00  0.00    -0.000 C 
ATOM     15  C   UNL A   1     -26.141   2.266  28.503  0.00  0.00    +0.006 C 
ATOM     16  C   UNL A   1     -26.424   3.619  29.288  0.00  0.00    +0.076 C 
ATOM     17  C   UNL A   1     -27.625   3.187  30.075  0.00  0.00    +0.006 C 
ENDROOT
BRANCH   5  18
ATOM     18  C   UNL A   1     -30.149  -1.219  30.181  0.00  0.00    +0.388 C 
ATOM     19  O   UNL A   1     -30.906  -0.822  31.064  0.00  0.00    -0.241 OA
ATOM     20  O   UNL A   1     -30.018  -2.448  29.946  0.00  0.00    -0.241 OA
ENDBRANCH   5  18
BRANCH  16  21
ATOM     21  C   UNL A   1     -25.874   4.824  29.271  0.00  0.00    +0.346 C 
ATOM     22  O   UNL A   1     -25.384   5.200  28.208  0.00  0.00    -0.244 OA
BRANCH  21  23
ATOM     23  O   UNL A   1     -26.005   5.550  30.280  0.00  0.00    -0.421 OA
BRANCH  23  24
ATOM     24  C   UNL A   1     -25.536   6.893  30.241  0.00  0.00    +0.149 A 
ATOM     25  C   UNL A   1     -24.996   7.391  31.452  0.00  0.00    +0.038 A 
ATOM     26  C   UNL A   1     -24.073   8.424  31.434  0.00  0.00    +0.003 A 
ATOM     27  C   UNL A   1     -23.909   9.175  30.194  0.00  0.00    +0.000 A 
ATOM     28  C   UNL A   1     -24.448   8.625  29.017  0.00  0.00    +0.003 A 
ATOM     29  C   UNL A   1     -25.166   7.447  29.054  0.00  0.00    +0.038 A 
ENDBRANCH  23  24
ENDBRANCH  21  23
ENDBRANCH  16  21
TORSDOF 4
