MODEL 4107
MODEL 1
REMARK VINA RESULT:    -4.256      0.000      0.000
REMARK INTER + INTRA:          -4.256
REMARK INTER:                  -4.256
REMARK INTRA:                   0.000
REMARK UNBOUND:                 0.000
REMARK  Name = No_4107-gen_results/8p0m/2024-11-26-14-13-15/
REMARK  0 active torsions:
REMARK  status: ('A' for Active; 'I' for Inactive)
REMARK                            x       y       z     vdW  Elec       q    Type
REMARK                         _______ _______ _______ _____ _____    ______ ____
ROOT
ATOM      1  C   UNL A   1     -24.959  -5.366  28.937  0.00  0.00    +0.000 A 
ATOM      2  C   UNL A   1     -24.146  -4.736  28.709  0.00  0.00    +0.000 A 
ATOM      3  C   UNL A   1     -26.102  -4.744  29.625  0.00  0.00    +0.000 A 
ATOM      4  C   UNL A   1     -26.143  -3.335  29.833  0.00  0.00    +0.000 A 
ATOM      5  C   UNL A   1     -23.962  -3.260  28.763  0.00  0.00    +0.000 A 
ATOM      6  C   UNL A   1     -24.998  -2.648  29.404  0.00  0.00    +0.000 A 
ENDROOT
TORSDOF 0
ENDMDL
ENDMDL
