REMARK  Name = No_4108-gen_results/8p0m/2024-11-26-14-13-15/
REMARK  0 active torsions:
REMARK  status: ('A' for Active; 'I' for Inactive)
REMARK                            x       y       z     vdW  Elec       q    Type
REMARK                         _______ _______ _______ _____ _____    ______ ____
ROOT
ATOM      1  C   UNL A   1     -28.016  -0.814  28.878  0.00  0.00    +0.001 A 
ATOM      2  C   UNL A   1     -28.469  -0.785  29.829  0.00  0.00    +0.000 A 
ATOM      3  C   UNL A   1     -28.196   0.348  28.055  0.00  0.00    +0.015 A 
ATOM      4  C   UNL A   1     -29.019   1.350  28.378  0.00  0.00    +0.070 A 
ATOM      5  C   UNL A   1     -29.625   1.268  29.601  0.00  0.00    +0.017 A 
ATOM      6  C   UNL A   1     -29.382   0.182  30.400  0.00  0.00    +0.001 A 
ATOM      7  C   UNL A   1     -27.459   0.379  26.705  0.00  0.00    +0.001 C 
ATOM      8  C   UNL A   1     -27.599   0.636  25.618  0.00  0.00    +0.001 C 
ATOM      9  C   UNL A   1     -29.001   1.033  25.313  0.00  0.00    +0.015 A 
ATOM     10  C   UNL A   1     -29.293   1.143  23.913  0.00  0.00    +0.001 A 
ATOM     11  C   UNL A   1     -30.263   1.078  23.654  0.00  0.00    +0.000 A 
ATOM     12  C   UNL A   1     -31.505   1.298  24.401  0.00  0.00    +0.001 A 
ATOM     13  C   UNL A   1     -31.246   1.333  25.774  0.00  0.00    +0.017 A 
ATOM     14  C   UNL A   1     -30.008   1.089  26.230  0.00  0.00    +0.070 A 
ATOM     15  N   UNL A   1     -29.715   1.152  27.555  0.00  0.00    -0.212 NA
ENDROOT
TORSDOF 0
