MODEL 4108
MODEL 1
REMARK VINA RESULT:    -7.067      0.000      0.000
REMARK INTER + INTRA:          -7.067
REMARK INTER:                  -7.067
REMARK INTRA:                   0.000
REMARK UNBOUND:                 0.000
REMARK  Name = No_4108-gen_results/8p0m/2024-11-26-14-13-15/
REMARK  0 active torsions:
REMARK  status: ('A' for Active; 'I' for Inactive)
REMARK                            x       y       z     vdW  Elec       q    Type
REMARK                         _______ _______ _______ _____ _____    ______ ____
ROOT
ATOM      1  C   UNL A   1     -24.197  -4.328  29.019  0.00  0.00    +0.001 A 
ATOM      2  C   UNL A   1     -25.027  -4.950  29.201  0.00  0.00    +0.000 A 
ATOM      3  C   UNL A   1     -24.353  -2.945  29.368  0.00  0.00    +0.015 A 
ATOM      4  C   UNL A   1     -25.520  -2.415  29.745  0.00  0.00    +0.070 A 
ATOM      5  C   UNL A   1     -26.566  -3.285  29.883  0.00  0.00    +0.017 A 
ATOM      6  C   UNL A   1     -26.374  -4.614  29.612  0.00  0.00    +0.001 A 
ATOM      7  C   UNL A   1     -23.123  -2.033  29.213  0.00  0.00    +0.001 C 
ATOM      8  C   UNL A   1     -22.804  -1.022  28.836  0.00  0.00    +0.001 C 
ATOM      9  C   UNL A   1     -23.925  -0.287  28.188  0.00  0.00    +0.015 A 
ATOM     10  C   UNL A   1     -23.527   0.898  27.485  0.00  0.00    +0.001 A 
ATOM     11  C   UNL A   1     -24.162   1.231  26.778  0.00  0.00    +0.000 A 
ATOM     12  C   UNL A   1     -25.596   1.026  26.559  0.00  0.00    +0.001 A 
ATOM     13  C   UNL A   1     -26.058  -0.042  27.332  0.00  0.00    +0.017 A 
ATOM     14  C   UNL A   1     -25.195  -0.766  28.061  0.00  0.00    +0.070 A 
ATOM     15  N   UNL A   1     -25.617  -1.787  28.852  0.00  0.00    -0.212 NA
ENDROOT
TORSDOF 0
ENDMDL
ENDMDL
