REMARK  Name = No_4109-gen_results/8p0m/2024-11-26-14-13-15/
REMARK  5 active torsions:
REMARK  status: ('A' for Active; 'I' for Inactive)
REMARK    1  A    between atoms: C_3  and  C_11
REMARK    2  A    between atoms: C_6  and  C_17
REMARK    3  A    between atoms: C_15  and  C_21
REMARK    4  A    between atoms: C_17  and  C_19
REMARK    5  A    between atoms: N_23  and  C_24
REMARK                            x       y       z     vdW  Elec       q    Type
REMARK                         _______ _______ _______ _____ _____    ______ ____
ROOT
ATOM      1  C   UNL A   1     -28.016  -0.814  28.878  0.00  0.00    +0.000 A 
ATOM      2  C   UNL A   1     -27.064  -0.119  28.608  0.00  0.00    +0.000 A 
ATOM      3  C   UNL A   1     -26.972   0.714  27.506  0.00  0.00    +0.000 A 
ATOM      4  C   UNL A   1     -25.820   1.491  27.116  0.00  0.00    +0.000 A 
ATOM      5  C   UNL A   1     -24.656   1.424  27.918  0.00  0.00    +0.001 A 
ATOM      6  C   UNL A   1     -24.711   0.542  29.051  0.00  0.00    +0.010 A 
ATOM      7  C   UNL A   1     -25.804  -0.206  29.388  0.00  0.00    +0.001 A 
ATOM      8  C   UNL A   1     -28.031  -1.590  30.149  0.00  0.00    +0.000 A 
ATOM      9  C   UNL A   1     -26.810  -1.796  30.851  0.00  0.00    +0.000 A 
ATOM     10  C   UNL A   1     -25.696  -1.068  30.503  0.00  0.00    +0.000 A 
ENDROOT
BRANCH   3  11
ATOM     11  C   UNL A   1     -28.091   0.880  26.538  0.00  0.00    +0.000 A 
ATOM     12  C   UNL A   1     -27.974   1.030  25.268  0.00  0.00    +0.000 A 
ATOM     13  C   UNL A   1     -29.113   1.069  24.471  0.00  0.00    +0.000 A 
ATOM     14  C   UNL A   1     -30.362   0.861  24.961  0.00  0.00    +0.005 A 
ATOM     15  C   UNL A   1     -30.480   0.638  26.308  0.00  0.00    +0.055 A 
ATOM     16  C   UNL A   1     -29.425   0.640  27.135  0.00  0.00    +0.005 A 
BRANCH  15  17
ATOM     17  C   UNL A   1     -31.865   0.442  26.834  0.00  0.00    +0.269 C 
ATOM     18  O   UNL A   1     -32.581  -0.388  26.533  0.00  0.00    -0.268 OA
ATOM     19  N   UNL A   1     -32.199   1.299  27.949  0.00  0.00    -0.179 NA
BRANCH  19  20
ATOM     20  C   UNL A   1     -31.485   2.342  28.517  0.00  0.00    +0.056 C 
ATOM     21  C   UNL A   1     -31.830   3.085  29.216  0.00  0.00    +0.012 C 
ATOM     22  C   UNL A   1     -30.963   4.200  29.670  0.00  0.00    -0.003 C 
ATOM     23  C   UNL A   1     -29.924   4.294  29.211  0.00  0.00    -0.020 C 
ATOM     24  C   UNL A   1     -30.098   2.703  28.053  0.00  0.00    +0.069 C 
ENDBRANCH  19  20
ENDBRANCH  15  17
ENDBRANCH   3  11
BRANCH   6  25
ATOM     25  C   UNL A   1     -23.380   0.469  29.808  0.00  0.00    +0.068 C 
ATOM     26  C   UNL A   1     -23.256   0.760  30.966  0.00  0.00    +0.011 C 
BRANCH  25  27
ATOM     27  C   UNL A   1     -22.348  -0.198  29.046  0.00  0.00    +0.100 C 
ATOM     28  N   UNL A   1     -21.303  -0.342  28.462  0.00  0.00    -0.191 NA
ENDBRANCH  25  27
ENDBRANCH   6  25
TORSDOF 5
