MODEL 4109
MODEL 1
REMARK VINA RESULT:    -7.238      0.000      0.000
REMARK INTER + INTRA:         -11.058
REMARK INTER:                  -9.354
REMARK INTRA:                  -1.704
REMARK UNBOUND:                -1.704
REMARK  Name = No_4109-gen_results/8p0m/2024-11-26-14-13-15/
REMARK  5 active torsions:
REMARK  status: ('A' for Active; 'I' for Inactive)
REMARK    1  A    between atoms: C_3  and  C_11
REMARK    2  A    between atoms: C_6  and  C_17
REMARK    3  A    between atoms: C_15  and  C_21
REMARK    4  A    between atoms: C_17  and  C_19
REMARK    5  A    between atoms: N_23  and  C_24
REMARK                            x       y       z     vdW  Elec       q    Type
REMARK                         _______ _______ _______ _____ _____    ______ ____
ROOT
ATOM      1  C   UNL A   1     -26.774   2.086  27.679  0.00  0.00    +0.000 A 
ATOM      2  C   UNL A   1     -26.859   1.399  26.687  0.00  0.00    +0.000 A 
ATOM      3  C   UNL A   1     -25.786   0.880  25.982  0.00  0.00    +0.000 A 
ATOM      4  C   UNL A   1     -25.856   0.127  24.753  0.00  0.00    +0.000 A 
ATOM      5  C   UNL A   1     -27.127  -0.132  24.189  0.00  0.00    +0.001 A 
ATOM      6  C   UNL A   1     -28.258   0.422  24.882  0.00  0.00    +0.010 A 
ATOM      7  C   UNL A   1     -28.168   1.156  26.032  0.00  0.00    +0.001 A 
ATOM      8  C   UNL A   1     -28.008   2.497  28.404  0.00  0.00    +0.000 A 
ATOM      9  C   UNL A   1     -29.266   2.393  27.748  0.00  0.00    +0.000 A 
ATOM     10  C   UNL A   1     -29.363   1.679  26.576  0.00  0.00    +0.000 A 
ENDROOT
BRANCH   3  11
ATOM     11  C   UNL A   1     -24.376   1.083  26.415  0.00  0.00    +0.000 A 
ATOM     12  C   UNL A   1     -23.605   2.043  26.048  0.00  0.00    +0.000 A 
ATOM     13  C   UNL A   1     -22.341   2.166  26.615  0.00  0.00    +0.000 A 
ATOM     14  C   UNL A   1     -21.905   1.366  27.621  0.00  0.00    +0.005 A 
ATOM     15  C   UNL A   1     -22.753   0.381  28.056  0.00  0.00    +0.055 A 
ATOM     16  C   UNL A   1     -23.963   0.180  27.513  0.00  0.00    +0.005 A 
BRANCH  15  17
ATOM     17  C   UNL A   1     -22.244  -0.509  29.142  0.00  0.00    +0.269 C 
ATOM     18  O   UNL A   1     -21.374  -1.236  29.055  0.00  0.00    -0.268 OA
ATOM     19  N   UNL A   1     -22.823  -0.247  30.440  0.00  0.00    -0.179 NA
BRANCH  19  20
ATOM     20  C   UNL A   1     -23.852   0.610  30.800  0.00  0.00    +0.056 C 
ATOM     21  C   UNL A   1     -23.784   1.627  31.146  0.00  0.00    +0.012 C 
ATOM     22  C   UNL A   1     -24.978   2.392  31.581  0.00  0.00    -0.003 C 
ATOM     23  C   UNL A   1     -25.983   1.853  31.600  0.00  0.00    -0.020 C 
ATOM     24  C   UNL A   1     -25.273   0.131  30.942  0.00  0.00    +0.069 C 
ENDBRANCH  19  20
ENDBRANCH  15  17
ENDBRANCH   3  11
BRANCH   6  25
ATOM     25  C   UNL A   1     -29.582   0.165  24.153  0.00  0.00    +0.068 C 
ATOM     26  C   UNL A   1     -30.041   0.904  23.327  0.00  0.00    +0.011 C 
BRANCH  25  27
ATOM     27  C   UNL A   1     -30.098  -1.163  24.400  0.00  0.00    +0.100 C 
ATOM     28  N   UNL A   1     -30.864  -2.015  24.777  0.00  0.00    -0.191 NA
ENDBRANCH  25  27
ENDBRANCH   6  25
TORSDOF 5
ENDMDL
ENDMDL
