MODEL 410
MODEL 1
REMARK VINA RESULT:    -5.782      0.000      0.000
REMARK INTER + INTRA:          -5.782
REMARK INTER:                  -5.782
REMARK INTRA:                   0.000
REMARK UNBOUND:                 0.000
REMARK  Name = No_410-gen_results/8p0m/2024-11-26-14-13-15/
REMARK  0 active torsions:
REMARK  status: ('A' for Active; 'I' for Inactive)
REMARK                            x       y       z     vdW  Elec       q    Type
REMARK                         _______ _______ _______ _____ _____    ______ ____
ROOT
ATOM      1  C   UNL A   1     -25.257  -1.849  30.850  0.00  0.00    +0.011 A 
ATOM      2  C   UNL A   1     -25.380  -2.656  29.959  0.00  0.00    +0.001 A 
ATOM      3  C   UNL A   1     -24.443  -2.746  28.936  0.00  0.00    +0.000 A 
ATOM      4  C   UNL A   1     -23.318  -1.848  28.881  0.00  0.00    +0.001 A 
ATOM      5  C   UNL A   1     -23.265  -0.930  29.939  0.00  0.00    +0.011 A 
ATOM      6  C   UNL A   1     -24.187  -0.876  30.873  0.00  0.00    +0.058 A 
ATOM      7 CL   UNL A   1     -24.052   0.318  32.080  0.00  0.00    -0.082 Cl
ATOM      8  C   UNL A   1     -26.497  -3.642  29.837  0.00  0.00    +0.000 A 
ATOM      9  C   UNL A   1     -26.287  -4.881  29.551  0.00  0.00    +0.000 A 
ATOM     10  C   UNL A   1     -24.986  -5.315  29.173  0.00  0.00    +0.000 A 
ATOM     11  C   UNL A   1     -24.056  -4.290  28.682  0.00  0.00    +0.000 A 
ENDROOT
TORSDOF 0
ENDMDL
ENDMDL
