REMARK  Name = No_4110-gen_results/8p0m/2024-11-26-14-13-15/
REMARK  1 active torsions:
REMARK  status: ('A' for Active; 'I' for Inactive)
REMARK    1  A    between atoms: C_8  and  C_9
REMARK                            x       y       z     vdW  Elec       q    Type
REMARK                         _______ _______ _______ _____ _____    ______ ____
ROOT
ATOM      1  C   UNL A   1     -28.016  -0.814  28.878  0.00  0.00    +0.016 A 
ATOM      2  C   UNL A   1     -27.064  -0.119  28.608  0.00  0.00    +0.061 A 
ATOM      3  C   UNL A   1     -25.792  -0.430  29.076  0.00  0.00    -0.007 A 
ATOM      4  C   UNL A   1     -25.576  -1.565  29.936  0.00  0.00    -0.003 A 
ATOM      5  C   UNL A   1     -26.735  -2.300  30.217  0.00  0.00    -0.000 A 
ATOM      6  C   UNL A   1     -27.918  -1.954  29.763  0.00  0.00    +0.001 A 
ATOM      7  N   UNL A   1     -27.331   1.010  27.852  0.00  0.00    -0.240 NA
ATOM      8  C   UNL A   1     -26.310   1.771  27.487  0.00  0.00    +0.093 C 
ATOM      9  C   UNL A   1     -24.859   1.114  27.915  0.00  0.00    +0.026 C 
ATOM     10  C   UNL A   1     -24.643   0.258  28.675  0.00  0.00    +0.029 C 
ENDROOT
BRANCH   8  11
ATOM     11  C   UNL A   1     -25.979   2.699  27.044  0.00  0.00    +0.022 C 
ATOM     12  C   UNL A   1     -27.044   3.761  26.795  0.00  0.00    +0.002 C 
ENDBRANCH   8  11
TORSDOF 1
