MODEL 4110
MODEL 1
REMARK VINA RESULT:    -5.931      0.000      0.000
REMARK INTER + INTRA:          -6.354
REMARK INTER:                  -6.278
REMARK INTRA:                  -0.076
REMARK UNBOUND:                -0.076
REMARK  Name = No_4110-gen_results/8p0m/2024-11-26-14-13-15/
REMARK  1 active torsions:
REMARK  status: ('A' for Active; 'I' for Inactive)
REMARK    1  A    between atoms: C_8  and  C_9
REMARK                            x       y       z     vdW  Elec       q    Type
REMARK                         _______ _______ _______ _____ _____    ______ ____
ROOT
ATOM      1  C   UNL A   1     -24.123  -4.256  28.924  0.00  0.00    +0.016 A 
ATOM      2  C   UNL A   1     -24.169  -3.094  29.254  0.00  0.00    +0.061 A 
ATOM      3  C   UNL A   1     -25.301  -2.564  29.863  0.00  0.00    -0.007 A 
ATOM      4  C   UNL A   1     -26.473  -3.372  30.078  0.00  0.00    -0.003 A 
ATOM      5  C   UNL A   1     -26.343  -4.698  29.645  0.00  0.00    -0.000 A 
ATOM      6  C   UNL A   1     -25.256  -5.146  29.059  0.00  0.00    +0.001 A 
ATOM      7  N   UNL A   1     -23.053  -2.332  28.949  0.00  0.00    -0.240 NA
ATOM      8  C   UNL A   1     -23.038  -1.066  29.340  0.00  0.00    +0.093 C 
ATOM      9  C   UNL A   1     -24.349  -0.684  30.265  0.00  0.00    +0.026 C 
ATOM     10  C   UNL A   1     -25.348  -1.270  30.390  0.00  0.00    +0.029 C 
ENDROOT
BRANCH   8  11
ATOM     11  C   UNL A   1     -22.546  -0.105  29.295  0.00  0.00    +0.022 C 
ATOM     12  C   UNL A   1     -21.165  -0.069  28.650  0.00  0.00    +0.002 C 
ENDBRANCH   8  11
TORSDOF 1
ENDMDL
ENDMDL
