REMARK  Name = No_4111-gen_results/8p0m/2024-11-26-14-13-15/
REMARK  4 active torsions:
REMARK  status: ('A' for Active; 'I' for Inactive)
REMARK    1  A    between atoms: C_1  and  C_2
REMARK    2  A    between atoms: C_1  and  C_8
REMARK    3  A    between atoms: C_8  and  C_9
REMARK    4  A    between atoms: C_10  and  C_11
REMARK                            x       y       z     vdW  Elec       q    Type
REMARK                         _______ _______ _______ _____ _____    ______ ____
ROOT
ATOM      1  C   UNL A   1     -28.016  -0.814  28.878  0.00  0.00    +0.040 C 
ENDROOT
BRANCH   1   2
ATOM      2  C   UNL A   1     -27.064  -0.119  28.608  0.00  0.00    -0.021 A 
ATOM      3  C   UNL A   1     -27.001   0.691  27.491  0.00  0.00    -0.004 A 
ATOM      4  C   UNL A   1     -25.855   1.482  27.083  0.00  0.00    -0.000 A 
ATOM      5  C   UNL A   1     -24.690   1.453  27.881  0.00  0.00    -0.000 A 
ATOM      6  C   UNL A   1     -24.738   0.601  29.042  0.00  0.00    -0.000 A 
ATOM      7  C   UNL A   1     -25.823  -0.169  29.389  0.00  0.00    -0.004 A 
ENDBRANCH   1   2
BRANCH   1   8
ATOM      8  C   UNL A   1     -28.735  -0.464  30.142  0.00  0.00    +0.081 C 
BRANCH   8   9
ATOM      9  C   UNL A   1     -28.783   0.612  30.517  0.00  0.00    -0.086 C 
ATOM     10  C   UNL A   1     -29.082   1.285  31.223  0.00  0.00    -0.064 C 
BRANCH  10  11
ATOM     11  C   UNL A   1     -29.492   2.705  30.946  0.00  0.00    +0.045 C 
ATOM     12  C   UNL A   1     -29.014   3.294  29.840  0.00  0.00    -0.017 C 
ATOM     13  C   UNL A   1     -28.447   2.485  28.910  0.00  0.00    +0.031 C 
ENDBRANCH  10  11
ENDBRANCH   8   9
ENDBRANCH   1   8
TORSDOF 4
