MODEL 4111
MODEL 1
REMARK VINA RESULT:    -6.071      0.000      0.000
REMARK INTER + INTRA:          -8.136
REMARK INTER:                  -7.491
REMARK INTRA:                  -0.645
REMARK UNBOUND:                -0.645
REMARK  Name = No_4111-gen_results/8p0m/2024-11-26-14-13-15/
REMARK  4 active torsions:
REMARK  status: ('A' for Active; 'I' for Inactive)
REMARK    1  A    between atoms: C_1  and  C_2
REMARK    2  A    between atoms: C_1  and  C_8
REMARK    3  A    between atoms: C_8  and  C_9
REMARK    4  A    between atoms: C_10  and  C_11
REMARK                            x       y       z     vdW  Elec       q    Type
REMARK                         _______ _______ _______ _____ _____    ______ ____
ROOT
ATOM      1  C   UNL A   1     -24.159   0.021  28.991  0.00  0.00    +0.040 C 
ENDROOT
BRANCH   1   2
ATOM      2  C   UNL A   1     -23.705   0.592  28.026  0.00  0.00    -0.021 A 
ATOM      3  C   UNL A   1     -22.451   1.170  28.000  0.00  0.00    -0.004 A 
ATOM      4  C   UNL A   1     -21.892   1.931  26.898  0.00  0.00    -0.000 A 
ATOM      5  C   UNL A   1     -22.668   2.106  25.731  0.00  0.00    -0.000 A 
ATOM      6  C   UNL A   1     -23.984   1.520  25.751  0.00  0.00    -0.000 A 
ATOM      7  C   UNL A   1     -24.507   0.834  26.822  0.00  0.00    -0.004 A 
ENDBRANCH   1   2
BRANCH   1   8
ATOM      8  C   UNL A   1     -23.470  -1.250  29.373  0.00  0.00    +0.081 C 
BRANCH   8   9
ATOM      9  C   UNL A   1     -23.747  -2.243  28.886  0.00  0.00    -0.086 C 
ATOM     10  C   UNL A   1     -24.430  -2.984  28.724  0.00  0.00    -0.064 C 
BRANCH  10  11
ATOM     11  C   UNL A   1     -24.102  -4.440  28.542  0.00  0.00    +0.045 C 
ATOM     12  C   UNL A   1     -24.906  -5.344  29.120  0.00  0.00    -0.017 C 
ATOM     13  C   UNL A   1     -26.108  -4.899  29.567  0.00  0.00    +0.031 C 
ENDBRANCH  10  11
ENDBRANCH   8   9
ENDBRANCH   1   8
TORSDOF 4
ENDMDL
ENDMDL
