REMARK  Name = No_4112-gen_results/8p0m/2024-11-26-14-13-15/
REMARK  4 active torsions:
REMARK  status: ('A' for Active; 'I' for Inactive)
REMARK    1  A    between atoms: C_2  and  C_7
REMARK    2  A    between atoms: C_7  and  N_9
REMARK    3  A    between atoms: N_9  and  C_11
REMARK    4  A    between atoms: C_12  and  C_13
REMARK                            x       y       z     vdW  Elec       q    Type
REMARK                         _______ _______ _______ _____ _____    ______ ____
ROOT
ATOM      1  C   UNL A   1     -27.123   1.115  27.751  0.00  0.00    +0.269 C 
ATOM      2  O   UNL A   1     -27.303   0.902  26.555  0.00  0.00    -0.194 OA
ENDROOT
BRANCH   1   4
ATOM      3  C   UNL A   1     -28.016  -0.814  28.878  0.00  0.00    +0.019 A 
ATOM      4  C   UNL A   1     -27.064  -0.119  28.608  0.00  0.00    +0.108 A 
ATOM      5  N   UNL A   1     -25.818  -0.343  29.049  0.00  0.00    -0.244 NA
ATOM      6  C   UNL A   1     -25.607  -1.441  29.893  0.00  0.00    +0.099 A 
ATOM      7  C   UNL A   1     -26.676  -2.219  30.236  0.00  0.00    +0.021 A 
ATOM      8  C   UNL A   1     -27.863  -1.932  29.767  0.00  0.00    +0.003 A 
ENDBRANCH   1   4
BRANCH   1   9
ATOM      9  N   UNL A   1     -26.947   2.391  28.172  0.00  0.00    -0.276 N 
ATOM     10  C   UNL A   1     -26.993   3.501  27.269  0.00  0.00    +0.115 C 
BRANCH   9  11
ATOM     11  C   UNL A   1     -26.659   2.665  29.537  0.00  0.00    +0.063 C 
ATOM     12  C   UNL A   1     -25.628   2.872  29.986  0.00  0.00    +0.016 C 
BRANCH  12  13
ATOM     13  C   UNL A   1     -25.286   3.054  31.414  0.00  0.00    +0.001 C 
ATOM     14  C   UNL A   1     -24.034   3.377  31.970  0.00  0.00    +0.000 C 
ENDBRANCH  12  13
ENDBRANCH   9  11
ENDBRANCH   1   9
TORSDOF 4
