MODEL 4112
MODEL 1
REMARK VINA RESULT:    -5.598      0.000      0.000
REMARK INTER + INTRA:          -7.189
REMARK INTER:                  -6.907
REMARK INTRA:                  -0.282
REMARK UNBOUND:                -0.282
REMARK  Name = No_4112-gen_results/8p0m/2024-11-26-14-13-15/
REMARK  4 active torsions:
REMARK  status: ('A' for Active; 'I' for Inactive)
REMARK    1  A    between atoms: C_2  and  C_7
REMARK    2  A    between atoms: C_7  and  N_9
REMARK    3  A    between atoms: N_9  and  C_11
REMARK    4  A    between atoms: C_12  and  C_13
REMARK                            x       y       z     vdW  Elec       q    Type
REMARK                         _______ _______ _______ _____ _____    ______ ____
ROOT
ATOM      1  C   UNL A   1     -22.684  -0.627  29.076  0.00  0.00    +0.269 C 
ATOM      2  O   UNL A   1     -21.594  -1.188  29.009  0.00  0.00    -0.194 OA
ENDROOT
BRANCH   1   4
ATOM      3  C   UNL A   1     -22.247   1.272  27.664  0.00  0.00    +0.019 A 
ATOM      4  C   UNL A   1     -22.962   0.343  27.962  0.00  0.00    +0.108 A 
ATOM      5  N   UNL A   1     -24.118   0.055  27.346  0.00  0.00    -0.244 NA
ATOM      6  C   UNL A   1     -24.534   0.894  26.304  0.00  0.00    +0.099 A 
ATOM      7  C   UNL A   1     -23.756   1.967  25.975  0.00  0.00    +0.021 A 
ATOM      8  C   UNL A   1     -22.642   2.183  26.627  0.00  0.00    +0.003 A 
ENDBRANCH   1   4
BRANCH   1   9
ATOM      9  N   UNL A   1     -23.532  -0.955  30.081  0.00  0.00    -0.276 N 
ATOM     10  C   UNL A   1     -23.832  -0.049  31.148  0.00  0.00    +0.115 C 
BRANCH   9  11
ATOM     11  C   UNL A   1     -24.121  -2.249  30.132  0.00  0.00    +0.063 C 
ATOM     12  C   UNL A   1     -24.673  -2.778  29.282  0.00  0.00    +0.016 C 
BRANCH  12  13
ATOM     13  C   UNL A   1     -25.385  -4.074  29.338  0.00  0.00    +0.001 C 
ATOM     14  C   UNL A   1     -24.876  -5.355  29.052  0.00  0.00    +0.000 C 
ENDBRANCH  12  13
ENDBRANCH   9  11
ENDBRANCH   1   9
TORSDOF 4
ENDMDL
ENDMDL
