MODEL 4113
MODEL 1
REMARK VINA RESULT:    -7.108      0.000      0.000
REMARK INTER + INTRA:          -7.798
REMARK INTER:                  -7.524
REMARK INTRA:                  -0.274
REMARK UNBOUND:                -0.274
REMARK  Name = No_4113-gen_results/8p0m/2024-11-26-14-13-15/
REMARK  1 active torsions:
REMARK  status: ('A' for Active; 'I' for Inactive)
REMARK    1  A    between atoms: C_3  and  C_7
REMARK                            x       y       z     vdW  Elec       q    Type
REMARK                         _______ _______ _______ _____ _____    ______ ____
ROOT
ATOM      1  C   UNL A   1     -26.605  -3.170  30.025  0.00  0.00    +0.002 A 
ATOM      2  C   UNL A   1     -25.877  -2.288  29.633  0.00  0.00    +0.000 A 
ATOM      3  C   UNL A   1     -24.648  -2.480  29.026  0.00  0.00    +0.002 A 
ATOM      4  C   UNL A   1     -24.227  -3.827  28.824  0.00  0.00    +0.030 A 
ATOM      5  C   UNL A   1     -25.120  -4.785  29.122  0.00  0.00    +0.140 A 
ATOM      6  C   UNL A   1     -26.276  -4.508  29.651  0.00  0.00    +0.030 A 
ATOM      7  F   UNL A   1     -24.760  -6.049  28.861  0.00  0.00    -0.204 F 
ENDROOT
BRANCH   3   8
ATOM      8  C   UNL A   1     -23.716  -1.346  28.683  0.00  0.00    +0.001 A 
ATOM      9  C   UNL A   1     -24.284  -0.405  27.910  0.00  0.00    +0.011 A 
ATOM     10  C   UNL A   1     -23.461   0.716  27.418  0.00  0.00    +0.058 A 
ATOM     11  C   UNL A   1     -22.275   0.971  28.087  0.00  0.00    +0.011 A 
ATOM     12  C   UNL A   1     -22.485  -1.081  29.220  0.00  0.00    +0.000 A 
ATOM     13  C   UNL A   1     -21.673  -0.001  28.818  0.00  0.00    +0.001 A 
ATOM     14 CL   UNL A   1     -24.192   1.907  26.409  0.00  0.00    -0.082 Cl
ENDBRANCH   3   8
TORSDOF 1
ENDMDL
ENDMDL
