REMARK  Name = No_4114-gen_results/8p0m/2024-11-26-14-13-15/
REMARK  6 active torsions:
REMARK  status: ('A' for Active; 'I' for Inactive)
REMARK    1  A    between atoms: C_2  and  C_11
REMARK    2  A    between atoms: C_3  and  C_7
REMARK    3  A    between atoms: C_5  and  C_14
REMARK    4  A    between atoms: C_14  and  O_16
REMARK    5  A    between atoms: O_16  and  C_17
REMARK    6  A    between atoms: N_21  and  C_24
REMARK                            x       y       z     vdW  Elec       q    Type
REMARK                         _______ _______ _______ _____ _____    ______ ____
ROOT
ATOM      1  C   UNL A   1     -28.016  -0.814  28.878  0.00  0.00    +0.010 A 
ATOM      2  C   UNL A   1     -28.469  -0.785  29.829  0.00  0.00    +0.080 A 
ATOM      3  C   UNL A   1     -27.136   0.236  28.535  0.00  0.00    +0.072 A 
ATOM      4  C   UNL A   1     -26.875   1.282  29.398  0.00  0.00    +0.010 A 
ATOM      5  C   UNL A   1     -27.507   1.238  30.630  0.00  0.00    +0.076 A 
ATOM      6  C   UNL A   1     -28.329   0.174  30.935  0.00  0.00    +0.013 A 
ENDROOT
BRANCH   3   7
ATOM      7  C   UNL A   1     -26.408   0.307  27.226  0.00  0.00    +0.419 C 
ATOM      8  F   UNL A   1     -25.409  -0.365  27.251  0.00  0.00    -0.166 F 
ATOM      9  F   UNL A   1     -27.224  -0.191  26.244  0.00  0.00    -0.166 F 
ATOM     10  F   UNL A   1     -26.010   1.537  26.821  0.00  0.00    -0.166 F 
ENDBRANCH   3   7
BRANCH   2  11
ATOM     11  C   UNL A   1     -29.382  -2.026  30.332  0.00  0.00    +0.388 C 
ATOM     12  O   UNL A   1     -30.407  -2.244  29.983  0.00  0.00    -0.241 OA
ATOM     13  O   UNL A   1     -28.778  -2.921  31.233  0.00  0.00    -0.241 OA
ENDBRANCH   2  11
BRANCH   5  14
ATOM     14  C   UNL A   1     -27.237   2.331  31.598  0.00  0.00    +0.341 C 
ATOM     15  O   UNL A   1     -27.321   2.295  32.709  0.00  0.00    -0.245 OA
BRANCH  14  16
ATOM     16  O   UNL A   1     -26.471   3.296  31.035  0.00  0.00    -0.449 OA
BRANCH  16  17
ATOM     17  C   UNL A   1     -25.973   4.226  31.863  0.00  0.00    +0.180 C 
ATOM     18  C   UNL A   1     -24.729   4.913  31.416  0.00  0.00    +0.129 C 
ATOM     19  C   UNL A   1     -24.113   5.499  32.657  0.00  0.00    +0.229 C 
ATOM     20  O   UNL A   1     -22.938   5.807  32.554  0.00  0.00    -0.275 OA
ATOM     21  N   UNL A   1     -24.864   6.028  33.592  0.00  0.00    -0.279 N 
ATOM     22  C   UNL A   1     -26.168   5.577  33.862  0.00  0.00    +0.097 C 
ATOM     23  C   UNL A   1     -26.628   4.607  33.057  0.00  0.00    +0.066 C 
BRANCH  21  24
ATOM     24  C   UNL A   1     -24.226   6.977  34.555  0.00  0.00    +0.093 C 
ATOM     25  C   UNL A   1     -23.449   7.918  33.943  0.00  0.00    +0.023 C 
ENDBRANCH  21  24
ENDBRANCH  16  17
ENDBRANCH  14  16
ENDBRANCH   5  14
TORSDOF 6
