MODEL 4114
MODEL 1
REMARK VINA RESULT:    -6.357      0.000      0.000
REMARK INTER + INTRA:          -9.724
REMARK INTER:                  -8.586
REMARK INTRA:                  -1.137
REMARK UNBOUND:                -1.137
REMARK  Name = No_4114-gen_results/8p0m/2024-11-26-14-13-15/
REMARK  6 active torsions:
REMARK  status: ('A' for Active; 'I' for Inactive)
REMARK    1  A    between atoms: C_2  and  C_11
REMARK    2  A    between atoms: C_3  and  C_7
REMARK    3  A    between atoms: C_5  and  C_14
REMARK    4  A    between atoms: C_14  and  O_16
REMARK    5  A    between atoms: O_16  and  C_17
REMARK    6  A    between atoms: N_21  and  C_24
REMARK                            x       y       z     vdW  Elec       q    Type
REMARK                         _______ _______ _______ _____ _____    ______ ____
ROOT
ATOM      1  C   UNL A   1     -24.356  -2.189  30.823  0.00  0.00    +0.010 A 
ATOM      2  C   UNL A   1     -23.987  -2.385  29.856  0.00  0.00    +0.080 A 
ATOM      3  C   UNL A   1     -24.135  -0.904  31.366  0.00  0.00    +0.072 A 
ATOM      4  C   UNL A   1     -23.449   0.073  30.673  0.00  0.00    +0.010 A 
ATOM      5  C   UNL A   1     -23.005  -0.265  29.405  0.00  0.00    +0.076 A 
ATOM      6  C   UNL A   1     -23.275  -1.520  28.902  0.00  0.00    +0.013 A 
ENDROOT
BRANCH   3   7
ATOM      7  C   UNL A   1     -24.626  -0.486  32.720  0.00  0.00    +0.419 C 
ATOM      8  F   UNL A   1     -25.767  -0.830  32.891  0.00  0.00    -0.166 F 
ATOM      9  F   UNL A   1     -23.855  -1.099  33.673  0.00  0.00    -0.166 F 
ATOM     10  F   UNL A   1     -24.601   0.842  32.988  0.00  0.00    -0.166 F 
ENDBRANCH   3   7
BRANCH   2  11
ATOM     11  C   UNL A   1     -24.323  -3.793  29.127  0.00  0.00    +0.388 C 
ATOM     12  O   UNL A   1     -23.606  -4.390  28.536  0.00  0.00    -0.241 OA
ATOM     13  O   UNL A   1     -25.615  -4.309  29.331  0.00  0.00    -0.241 OA
ENDBRANCH   2  11
BRANCH   5  14
ATOM     14  C   UNL A   1     -22.282   0.764  28.616  0.00  0.00    +0.341 C 
ATOM     15  O   UNL A   1     -21.309   0.656  28.083  0.00  0.00    -0.245 OA
BRANCH  14  16
ATOM     16  O   UNL A   1     -23.118   1.764  28.247  0.00  0.00    -0.449 OA
BRANCH  16  17
ATOM     17  C   UNL A   1     -24.099   1.442  27.392  0.00  0.00    +0.180 C 
ATOM     18  C   UNL A   1     -25.491   1.537  27.915  0.00  0.00    +0.129 C 
ATOM     19  C   UNL A   1     -26.332   0.686  27.004  0.00  0.00    +0.229 C 
ATOM     20  O   UNL A   1     -27.420   0.369  27.453  0.00  0.00    -0.275 OA
ATOM     21  N   UNL A   1     -26.109   0.663  25.713  0.00  0.00    -0.279 N 
ATOM     22  C   UNL A   1     -24.828   0.847  25.162  0.00  0.00    +0.097 C 
ATOM     23  C   UNL A   1     -23.849   1.114  26.040  0.00  0.00    +0.066 C 
BRANCH  21  24
ATOM     24  C   UNL A   1     -27.207   0.190  24.816  0.00  0.00    +0.093 C 
ATOM     25  C   UNL A   1     -27.666   1.162  23.974  0.00  0.00    +0.023 C 
ENDBRANCH  21  24
ENDBRANCH  16  17
ENDBRANCH  14  16
ENDBRANCH   5  14
TORSDOF 6
ENDMDL
ENDMDL
