MODEL 4115
MODEL 1
REMARK VINA RESULT:    -7.510      0.000      0.000
REMARK INTER + INTRA:          -9.954
REMARK INTER:                  -9.266
REMARK INTRA:                  -0.688
REMARK UNBOUND:                -0.688
REMARK  Name = No_4115-gen_results/8p0m/2024-11-26-14-13-15/
REMARK  4 active torsions:
REMARK  status: ('A' for Active; 'I' for Inactive)
REMARK    1  A    between atoms: C_3  and  C_5
REMARK    2  A    between atoms: C_8  and  C_21
REMARK    3  A    between atoms: C_9  and  C_10
REMARK    4  A    between atoms: C_10  and  C_11
REMARK                            x       y       z     vdW  Elec       q    Type
REMARK                         _______ _______ _______ _____ _____    ______ ____
ROOT
ATOM      1  C   UNL A   1     -27.313   0.612  24.155  0.00  0.00    -0.022 C 
ATOM      2  C   UNL A   1     -26.608   0.665  24.876  0.00  0.00    -0.025 C 
ENDROOT
BRANCH   1   5
ATOM      3  O   UNL A   1     -29.074  -1.494  23.405  0.00  0.00    -0.273 OA
ATOM      4  C   UNL A   1     -29.223  -0.270  23.497  0.00  0.00    +0.245 C 
ATOM      5  C   UNL A   1     -28.766   0.568  23.907  0.00  0.00    +0.100 C 
ATOM      6  N   UNL A   1     -30.750   0.096  23.264  0.00  0.00    -0.205 NA
ATOM      7  C   UNL A   1     -31.259   1.326  23.471  0.00  0.00    +0.126 C 
ATOM      8  C   UNL A   1     -29.226   2.056  24.064  0.00  0.00    +0.027 C 
ATOM      9  C   UNL A   1     -30.485   2.339  23.810  0.00  0.00    +0.126 C 
BRANCH   9  10
ATOM     10  C   UNL A   1     -31.038   3.674  24.002  0.00  0.00    +0.366 C 
ATOM     11  O   UNL A   1     -30.438   4.549  24.695  0.00  0.00    -0.246 OA
ATOM     12  O   UNL A   1     -32.044   4.119  23.208  0.00  0.00    -0.246 OA
ENDBRANCH   9  10
ENDBRANCH   1   5
BRANCH   2  13
ATOM     13  C   UNL A   1     -25.551   0.486  25.626  0.00  0.00    +0.052 C 
BRANCH  13  14
ATOM     14  C   UNL A   1     -24.546   0.747  26.400  0.00  0.00    -0.018 A 
ATOM     15  C   UNL A   1     -24.141   0.199  27.491  0.00  0.00    -0.004 A 
ATOM     16  C   UNL A   1     -22.993   0.673  28.234  0.00  0.00    -0.000 A 
ATOM     17  C   UNL A   1     -22.371   0.056  29.322  0.00  0.00    -0.000 A 
ATOM     18  C   UNL A   1     -22.271   1.619  27.420  0.00  0.00    -0.000 A 
ATOM     19  C   UNL A   1     -22.601   2.186  26.263  0.00  0.00    -0.000 A 
ATOM     20  C   UNL A   1     -23.623   1.718  25.673  0.00  0.00    -0.004 A 
ATOM     21  C   UNL A   1     -22.773  -1.155  29.625  0.00  0.00    -0.000 A 
ATOM     22  C   UNL A   1     -23.951  -1.668  29.031  0.00  0.00    -0.000 A 
ATOM     23  C   UNL A   1     -24.557  -1.104  27.922  0.00  0.00    -0.000 A 
ENDBRANCH  13  14
ENDBRANCH   2  13
TORSDOF 4
ENDMDL
ENDMDL
