REMARK  Name = No_4115-gen_results/8p0m/2024-11-26-14-13-15/
REMARK  4 active torsions:
REMARK  status: ('A' for Active; 'I' for Inactive)
REMARK    1  A    between atoms: C_3  and  C_5
REMARK    2  A    between atoms: C_8  and  C_21
REMARK    3  A    between atoms: C_9  and  C_10
REMARK    4  A    between atoms: C_10  and  C_11
REMARK                            x       y       z     vdW  Elec       q    Type
REMARK                         _______ _______ _______ _____ _____    ______ ____
ROOT
ATOM      1  C   UNL A   1     -26.844   1.134  27.880  0.00  0.00    -0.022 C 
ATOM      2  C   UNL A   1     -27.081   2.111  27.971  0.00  0.00    -0.025 C 
ENDROOT
BRANCH   1   5
ATOM      3  O   UNL A   1     -28.123  -1.335  28.487  0.00  0.00    -0.273 OA
ATOM      4  C   UNL A   1     -27.064  -0.824  28.869  0.00  0.00    +0.245 C 
ATOM      5  C   UNL A   1     -26.402  -0.062  28.622  0.00  0.00    +0.100 C 
ATOM      6  N   UNL A   1     -26.265  -1.867  29.761  0.00  0.00    -0.205 NA
ATOM      7  C   UNL A   1     -25.000  -1.671  30.179  0.00  0.00    +0.126 C 
ATOM      8  C   UNL A   1     -24.979   0.319  29.150  0.00  0.00    +0.027 C 
ATOM      9  C   UNL A   1     -24.365  -0.541  29.933  0.00  0.00    +0.126 C 
BRANCH   9  10
ATOM     10  C   UNL A   1     -23.006  -0.324  30.415  0.00  0.00    +0.366 C 
ATOM     11  O   UNL A   1     -22.304   0.650  30.009  0.00  0.00    -0.246 OA
ATOM     12  O   UNL A   1     -22.563  -0.966  31.525  0.00  0.00    -0.246 OA
ENDBRANCH   9  10
ENDBRANCH   1   5
BRANCH   2  13
ATOM     13  C   UNL A   1     -27.192   3.405  27.812  0.00  0.00    +0.052 C 
BRANCH  13  14
ATOM     14  C   UNL A   1     -27.214   4.670  28.086  0.00  0.00    -0.018 A 
ATOM     15  C   UNL A   1     -27.633   5.316  29.117  0.00  0.00    -0.004 A 
ATOM     16  C   UNL A   1     -27.600   6.759  29.212  0.00  0.00    -0.000 A 
ATOM     17  C   UNL A   1     -27.865   7.543  30.338  0.00  0.00    -0.000 A 
ATOM     18  C   UNL A   1     -26.795   7.278  28.134  0.00  0.00    -0.000 A 
ATOM     19  C   UNL A   1     -26.286   6.665  27.069  0.00  0.00    -0.000 A 
ATOM     20  C   UNL A   1     -26.357   5.397  27.056  0.00  0.00    -0.004 A 
ATOM     21  C   UNL A   1     -28.024   6.910  31.476  0.00  0.00    -0.000 A 
ATOM     22  C   UNL A   1     -28.175   5.503  31.476  0.00  0.00    -0.000 A 
ATOM     23  C   UNL A   1     -27.872   4.701  30.390  0.00  0.00    -0.000 A 
ENDBRANCH  13  14
ENDBRANCH   2  13
TORSDOF 4
