MODEL 4116
MODEL 1
REMARK VINA RESULT:    -6.430      0.000      0.000
REMARK INTER + INTRA:          -7.737
REMARK INTER:                  -7.182
REMARK INTRA:                  -0.554
REMARK UNBOUND:                -0.554
REMARK  Name = No_4116-gen_results/8p0m/2024-11-26-14-13-15/
REMARK  2 active torsions:
REMARK  status: ('A' for Active; 'I' for Inactive)
REMARK    1  A    between atoms: C_3  and  C_7
REMARK    2  A    between atoms: C_7  and  C_8
REMARK                            x       y       z     vdW  Elec       q    Type
REMARK                         _______ _______ _______ _____ _____    ______ ____
ROOT
ATOM      1  C   UNL A   1     -24.692  -1.133  29.359  0.00  0.00    +0.053 C 
ENDROOT
BRANCH   1   4
ATOM      2  C   UNL A   1     -23.882  -3.457  28.641  0.00  0.00    -0.004 A 
ATOM      3  C   UNL A   1     -24.078  -4.492  28.612  0.00  0.00    -0.000 A 
ATOM      4  C   UNL A   1     -24.853  -2.619  29.232  0.00  0.00    -0.018 A 
ATOM      5  C   UNL A   1     -26.033  -3.118  29.747  0.00  0.00    -0.004 A 
ATOM      6  C   UNL A   1     -26.206  -4.490  29.674  0.00  0.00    -0.000 A 
ATOM      7  C   UNL A   1     -25.214  -5.273  29.122  0.00  0.00    -0.000 A 
ENDBRANCH   1   4
BRANCH   1   8
ATOM      8  C   UNL A   1     -24.391  -0.400  28.198  0.00  0.00    -0.018 A 
ATOM      9  C   UNL A   1     -23.401   0.451  28.150  0.00  0.00    -0.004 A 
ATOM     10  C   UNL A   1     -23.256   1.349  26.943  0.00  0.00    -0.000 A 
ATOM     11  C   UNL A   1     -24.221   1.197  25.890  0.00  0.00    -0.000 A 
ATOM     12  C   UNL A   1     -25.180   0.249  25.986  0.00  0.00    -0.000 A 
ATOM     13  C   UNL A   1     -25.372  -0.484  27.159  0.00  0.00    -0.004 A 
ENDBRANCH   1   8
TORSDOF 2
ENDMDL
ENDMDL
