MODEL 4117
MODEL 1
REMARK VINA RESULT:    -6.642      0.000      0.000
REMARK INTER + INTRA:          -6.642
REMARK INTER:                  -6.642
REMARK INTRA:                   0.000
REMARK UNBOUND:                 0.000
REMARK  Name = No_4117-gen_results/8p0m/2024-11-26-14-13-15/
REMARK  0 active torsions:
REMARK  status: ('A' for Active; 'I' for Inactive)
REMARK                            x       y       z     vdW  Elec       q    Type
REMARK                         _______ _______ _______ _____ _____    ______ ____
ROOT
ATOM      1  C   UNL A   1     -26.398  -4.482  29.738  0.00  0.00    -0.004 A 
ATOM      2  C   UNL A   1     -25.791  -5.220  29.293  0.00  0.00    -0.000 A 
ATOM      3  C   UNL A   1     -25.867  -3.180  29.865  0.00  0.00    -0.022 A 
ATOM      4  C   UNL A   1     -24.591  -2.867  29.439  0.00  0.00    -0.004 A 
ATOM      5  C   UNL A   1     -24.009  -1.538  29.550  0.00  0.00    -0.004 A 
ATOM      6  C   UNL A   1     -24.450  -5.220  28.725  0.00  0.00    -0.000 A 
ATOM      7  C   UNL A   1     -23.841  -3.906  28.829  0.00  0.00    -0.000 A 
ATOM      8  C   UNL A   1     -23.242  -1.090  28.851  0.00  0.00    -0.000 A 
ATOM      9  C   UNL A   1     -24.488  -0.770  30.706  0.00  0.00    -0.022 A 
ATOM     10  C   UNL A   1     -24.018   0.586  30.834  0.00  0.00    -0.004 A 
ATOM     11  C   UNL A   1     -22.589   0.290  28.956  0.00  0.00    -0.000 A 
ATOM     12  C   UNL A   1     -23.045   1.102  30.025  0.00  0.00    -0.000 A 
ATOM     13  C   UNL A   1     -26.721  -2.101  30.475  0.00  0.00    +0.031 C 
ATOM     14  C   UNL A   1     -26.005  -1.003  31.142  0.00  0.00    +0.031 C 
ENDROOT
TORSDOF 0
ENDMDL
ENDMDL
