REMARK  Name = No_4117-gen_results/8p0m/2024-11-26-14-13-15/
REMARK  0 active torsions:
REMARK  status: ('A' for Active; 'I' for Inactive)
REMARK                            x       y       z     vdW  Elec       q    Type
REMARK                         _______ _______ _______ _____ _____    ______ ____
ROOT
ATOM      1  C   UNL A   1     -28.016  -0.814  28.878  0.00  0.00    -0.004 A 
ATOM      2  C   UNL A   1     -28.469  -0.785  29.829  0.00  0.00    -0.000 A 
ATOM      3  C   UNL A   1     -27.136   0.236  28.535  0.00  0.00    -0.022 A 
ATOM      4  C   UNL A   1     -26.875   1.282  29.398  0.00  0.00    -0.004 A 
ATOM      5  C   UNL A   1     -25.974   2.380  29.083  0.00  0.00    -0.004 A 
ATOM      6  C   UNL A   1     -28.392   0.130  30.960  0.00  0.00    -0.000 A 
ATOM      7  C   UNL A   1     -27.503   1.242  30.670  0.00  0.00    -0.000 A 
ATOM      8  C   UNL A   1     -25.358   2.966  29.827  0.00  0.00    -0.000 A 
ATOM      9  C   UNL A   1     -25.921   2.719  27.655  0.00  0.00    -0.022 A 
ATOM     10  C   UNL A   1     -24.987   3.742  27.257  0.00  0.00    -0.004 A 
ATOM     11  C   UNL A   1     -24.425   4.143  29.532  0.00  0.00    -0.000 A 
ATOM     12  C   UNL A   1     -24.292   4.490  28.164  0.00  0.00    -0.000 A 
ATOM     13  C   UNL A   1     -26.456   0.207  27.192  0.00  0.00    +0.031 C 
ATOM     14  C   UNL A   1     -26.080   1.511  26.625  0.00  0.00    +0.031 C 
ENDROOT
TORSDOF 0
