MODEL 4118
MODEL 1
REMARK VINA RESULT:    -7.814      0.000      0.000
REMARK INTER + INTRA:         -13.922
REMARK INTER:                 -10.555
REMARK INTRA:                  -3.366
REMARK UNBOUND:                -3.366
REMARK  Name = No_4118-gen_results/8p0m/2024-11-26-14-13-15/
REMARK  6 active torsions:
REMARK  status: ('A' for Active; 'I' for Inactive)
REMARK    1  A    between atoms: C_2  and  C_7
REMARK    2  A    between atoms: C_4  and  C_10
REMARK    3  A    between atoms: C_10  and  C_11
REMARK    4  A    between atoms: C_14  and  C_17
REMARK    5  A    between atoms: C_22  and  C_23
REMARK    6  A    between atoms: C_23  and  C_24
REMARK                            x       y       z     vdW  Elec       q    Type
REMARK                         _______ _______ _______ _____ _____    ______ ____
ROOT
ATOM      1  C   UNL A   1     -23.824   0.504  27.731  0.00  0.00    -0.018 A 
ATOM      2  C   UNL A   1     -22.606   0.738  28.406  0.00  0.00    -0.004 A 
ATOM      3  C   UNL A   1     -24.430  -0.772  27.891  0.00  0.00    +0.003 A 
ATOM      4  C   UNL A   1     -23.802  -1.716  28.733  0.00  0.00    +0.082 A 
ATOM      5  C   UNL A   1     -22.028  -0.226  29.246  0.00  0.00    -0.000 A 
ATOM      6  C   UNL A   1     -22.597  -1.452  29.396  0.00  0.00    +0.007 A 
ENDROOT
BRANCH   4   7
ATOM      7  C   UNL A   1     -24.385  -3.092  28.890  0.00  0.00    +0.325 C 
ATOM      8  N   UNL A   1     -23.814  -4.069  28.635  0.00  0.00    -0.060 NA
ATOM      9  N   UNL A   1     -25.590  -3.188  29.695  0.00  0.00    -0.136 N 
ATOM     10  C   UNL A   1     -25.905  -4.467  29.726  0.00  0.00    +0.268 C 
ATOM     11  C   UNL A   1     -24.738  -5.074  28.902  0.00  0.00    +0.314 C 
ATOM     12  C   UNL A   1     -26.438  -2.185  30.210  0.00  0.00    +0.318 C 
ATOM     13  O   UNL A   1     -27.674  -2.298  29.632  0.00  0.00    -0.246 OA
BRANCH  12  14
ATOM     14  C   UNL A   1     -26.294  -1.473  31.214  0.00  0.00    +0.139 C 
BRANCH  14  15
ATOM     15  C   UNL A   1     -25.858  -0.100  31.190  0.00  0.00    -0.011 A 
ATOM     16  C   UNL A   1     -24.680   0.373  31.785  0.00  0.00    -0.004 A 
ATOM     17  C   UNL A   1     -24.255   1.701  31.554  0.00  0.00    -0.000 A 
ATOM     18  C   UNL A   1     -26.512   0.839  30.368  0.00  0.00    -0.004 A 
ATOM     19  C   UNL A   1     -26.111   2.161  30.141  0.00  0.00    -0.000 A 
ATOM     20  C   UNL A   1     -24.990   2.582  30.803  0.00  0.00    -0.000 A 
ENDBRANCH  14  15
ENDBRANCH  12  14
ENDBRANCH   4   7
BRANCH   1  21
ATOM     21  C   UNL A   1     -24.302   1.399  26.805  0.00  0.00    +0.053 C 
BRANCH  21  25
ATOM     22  C   UNL A   1     -27.823   1.598  25.283  0.00  0.00    +0.005 A 
ATOM     23  C   UNL A   1     -27.741   0.768  24.639  0.00  0.00    +0.068 A 
ATOM     24  C   UNL A   1     -26.663   1.884  26.141  0.00  0.00    -0.004 A 
ATOM     25  C   UNL A   1     -25.450   1.151  25.988  0.00  0.00    -0.018 A 
ATOM     26  C   UNL A   1     -26.598  -0.105  24.254  0.00  0.00    +0.005 A 
ATOM     27  C   UNL A   1     -25.505   0.124  25.035  0.00  0.00    -0.004 A 
BRANCH  23  28
ATOM     28  C   UNL A   1     -28.970   0.436  23.679  0.00  0.00    +0.333 C 
ATOM     29  O   UNL A   1     -29.930   1.000  23.625  0.00  0.00    -0.254 OA
ATOM     30  F   UNL A   1     -28.790  -0.685  23.055  0.00  0.00    -0.159 F 
ENDBRANCH  23  28
ENDBRANCH  21  25
ENDBRANCH   1  21
TORSDOF 6
ENDMDL
ENDMDL
