REMARK  Name = No_4118-gen_results/8p0m/2024-11-26-14-13-15/
REMARK  6 active torsions:
REMARK  status: ('A' for Active; 'I' for Inactive)
REMARK    1  A    between atoms: C_2  and  C_7
REMARK    2  A    between atoms: C_4  and  C_10
REMARK    3  A    between atoms: C_10  and  C_11
REMARK    4  A    between atoms: C_14  and  C_17
REMARK    5  A    between atoms: C_22  and  C_23
REMARK    6  A    between atoms: C_23  and  C_24
REMARK                            x       y       z     vdW  Elec       q    Type
REMARK                         _______ _______ _______ _____ _____    ______ ____
ROOT
ATOM      1  C   UNL A   1     -23.579  -0.406  29.186  0.00  0.00    -0.018 A 
ATOM      2  C   UNL A   1     -22.172  -0.482  29.265  0.00  0.00    -0.004 A 
ATOM      3  C   UNL A   1     -24.137   0.556  28.301  0.00  0.00    +0.003 A 
ATOM      4  C   UNL A   1     -23.261   1.354  27.533  0.00  0.00    +0.082 A 
ATOM      5  C   UNL A   1     -21.341   0.321  28.469  0.00  0.00    -0.000 A 
ATOM      6  C   UNL A   1     -21.867   1.250  27.627  0.00  0.00    +0.007 A 
ENDROOT
BRANCH   4   7
ATOM      7  C   UNL A   1     -23.810   2.415  26.622  0.00  0.00    +0.325 C 
ATOM      8  N   UNL A   1     -23.678   2.410  25.469  0.00  0.00    -0.060 NA
ATOM      9  N   UNL A   1     -24.812   3.296  27.197  0.00  0.00    -0.136 N 
ATOM     10  C   UNL A   1     -25.173   4.115  26.230  0.00  0.00    +0.268 C 
ATOM     11  C   UNL A   1     -24.311   3.577  25.056  0.00  0.00    +0.314 C 
ATOM     12  C   UNL A   1     -25.236   3.464  28.531  0.00  0.00    +0.318 C 
ATOM     13  O   UNL A   1     -24.918   4.728  28.950  0.00  0.00    -0.246 OA
BRANCH  12  14
ATOM     14  C   UNL A   1     -26.022   2.777  29.199  0.00  0.00    +0.139 C 
BRANCH  14  15
ATOM     15  C   UNL A   1     -26.245   2.928  30.615  0.00  0.00    -0.011 A 
ATOM     16  C   UNL A   1     -27.287   2.317  31.327  0.00  0.00    -0.004 A 
ATOM     17  C   UNL A   1     -27.313   2.386  32.739  0.00  0.00    -0.000 A 
ATOM     18  C   UNL A   1     -25.277   3.556  31.424  0.00  0.00    -0.004 A 
ATOM     19  C   UNL A   1     -25.298   3.645  32.820  0.00  0.00    -0.000 A 
ATOM     20  C   UNL A   1     -26.375   3.087  33.453  0.00  0.00    -0.000 A 
ENDBRANCH  14  15
ENDBRANCH  12  14
ENDBRANCH   4   7
BRANCH   1  21
ATOM     21  C   UNL A   1     -24.375  -1.094  30.070  0.00  0.00    +0.053 C 
BRANCH  21  25
ATOM     22  C   UNL A   1     -28.016  -0.814  28.878  0.00  0.00    +0.005 A 
ATOM     23  C   UNL A   1     -28.469  -0.785  29.829  0.00  0.00    +0.068 A 
ATOM     24  C   UNL A   1     -26.546  -0.876  28.850  0.00  0.00    -0.004 A 
ATOM     25  C   UNL A   1     -25.804  -1.032  30.057  0.00  0.00    -0.018 A 
ATOM     26  C   UNL A   1     -27.944  -0.987  31.207  0.00  0.00    +0.005 A 
ATOM     27  C   UNL A   1     -26.582  -1.039  31.223  0.00  0.00    -0.004 A 
BRANCH  23  28
ATOM     28  C   UNL A   1     -30.061  -0.737  29.902  0.00  0.00    +0.333 C 
ATOM     29  O   UNL A   1     -30.725  -1.554  30.270  0.00  0.00    -0.254 OA
ATOM     30  F   UNL A   1     -30.527   0.328  29.330  0.00  0.00    -0.159 F 
ENDBRANCH  23  28
ENDBRANCH  21  25
ENDBRANCH   1  21
TORSDOF 6
