MODEL 4119
MODEL 1
REMARK VINA RESULT:    -7.593      0.000      0.000
REMARK INTER + INTRA:         -10.028
REMARK INTER:                  -9.368
REMARK INTRA:                  -0.660
REMARK UNBOUND:                -0.660
REMARK  Name = No_4119-gen_results/8p0m/2024-11-26-14-13-15/
REMARK  4 active torsions:
REMARK  status: ('A' for Active; 'I' for Inactive)
REMARK    1  A    between atoms: C_2  and  C_5
REMARK    2  A    between atoms: C_3  and  C_10
REMARK    3  A    between atoms: C_10  and  C_11
REMARK    4  A    between atoms: C_11  and  C_12
REMARK                            x       y       z     vdW  Elec       q    Type
REMARK                         _______ _______ _______ _____ _____    ______ ____
ROOT
ATOM      1  C   UNL A   1     -23.982   0.257  27.308  0.00  0.00    +0.009 A 
ATOM      2  C   UNL A   1     -24.008   1.062  26.629  0.00  0.00    +0.080 A 
ATOM      3  C   UNL A   1     -22.837   0.191  28.171  0.00  0.00    +0.035 A 
ATOM      4  C   UNL A   1     -21.774   0.989  28.033  0.00  0.00    +0.003 A 
ATOM      5  C   UNL A   1     -21.874   1.973  27.104  0.00  0.00    +0.000 A 
ATOM      6  C   UNL A   1     -22.996   2.041  26.361  0.00  0.00    +0.007 A 
ENDROOT
BRANCH   2   7
ATOM      7  C   UNL A   1     -25.231   1.280  25.647  0.00  0.00    +0.388 C 
ATOM      8  O   UNL A   1     -25.476   0.410  24.839  0.00  0.00    -0.241 OA
ATOM      9  O   UNL A   1     -26.102   2.168  25.960  0.00  0.00    -0.241 OA
ENDBRANCH   2   7
BRANCH   3  10
ATOM     10  C   UNL A   1     -22.832  -0.927  29.254  0.00  0.00    +0.177 C 
ATOM     11  O   UNL A   1     -22.415  -0.367  30.416  0.00  0.00    -0.291 OA
BRANCH  10  12
ATOM     12  C   UNL A   1     -23.269  -1.974  29.096  0.00  0.00    +0.095 C 
BRANCH  12  13
ATOM     13  C   UNL A   1     -24.096  -2.720  29.061  0.00  0.00    -0.015 A 
ATOM     14  C   UNL A   1     -24.170  -4.125  28.689  0.00  0.00    -0.004 A 
ATOM     15  C   UNL A   1     -24.668  -5.133  29.013  0.00  0.00    -0.000 A 
ATOM     16  C   UNL A   1     -26.043  -4.952  29.567  0.00  0.00    -0.000 A 
ATOM     17  C   UNL A   1     -26.446  -3.565  29.811  0.00  0.00    -0.000 A 
ATOM     18  C   UNL A   1     -25.536  -2.592  29.598  0.00  0.00    -0.004 A 
ENDBRANCH  12  13
ENDBRANCH  10  12
ENDBRANCH   3  10
TORSDOF 4
ENDMDL
ENDMDL
