REMARK  Name = No_4119-gen_results/8p0m/2024-11-26-14-13-15/
REMARK  4 active torsions:
REMARK  status: ('A' for Active; 'I' for Inactive)
REMARK    1  A    between atoms: C_2  and  C_5
REMARK    2  A    between atoms: C_3  and  C_10
REMARK    3  A    between atoms: C_10  and  C_11
REMARK    4  A    between atoms: C_11  and  C_12
REMARK                            x       y       z     vdW  Elec       q    Type
REMARK                         _______ _______ _______ _____ _____    ______ ____
ROOT
ATOM      1  C   UNL A   1     -28.016  -0.814  28.878  0.00  0.00    +0.009 A 
ATOM      2  C   UNL A   1     -28.469  -0.785  29.829  0.00  0.00    +0.080 A 
ATOM      3  C   UNL A   1     -28.196   0.348  28.055  0.00  0.00    +0.035 A 
ATOM      4  C   UNL A   1     -29.019   1.350  28.378  0.00  0.00    +0.003 A 
ATOM      5  C   UNL A   1     -29.595   1.286  29.605  0.00  0.00    +0.000 A 
ATOM      6  C   UNL A   1     -29.346   0.209  30.375  0.00  0.00    +0.007 A 
ENDROOT
BRANCH   2   7
ATOM      7  C   UNL A   1     -28.317  -1.981  30.856  0.00  0.00    +0.388 C 
ATOM      8  O   UNL A   1     -29.262  -2.724  31.011  0.00  0.00    -0.241 OA
ATOM      9  O   UNL A   1     -27.132  -2.322  31.211  0.00  0.00    -0.241 OA
ENDBRANCH   2   7
BRANCH   3  10
ATOM     10  C   UNL A   1     -27.446   0.370  26.691  0.00  0.00    +0.177 C 
ATOM     11  O   UNL A   1     -28.278  -0.159  25.760  0.00  0.00    -0.291 OA
BRANCH  10  12
ATOM     12  C   UNL A   1     -26.446   0.900  26.518  0.00  0.00    +0.095 C 
BRANCH  12  13
ATOM     13  C   UNL A   1     -25.366   1.093  26.716  0.00  0.00    -0.015 A 
ATOM     14  C   UNL A   1     -24.335   1.851  26.022  0.00  0.00    -0.004 A 
ATOM     15  C   UNL A   1     -23.433   2.568  26.225  0.00  0.00    -0.000 A 
ATOM     16  C   UNL A   1     -22.692   2.232  27.477  0.00  0.00    -0.000 A 
ATOM     17  C   UNL A   1     -23.327   1.228  28.334  0.00  0.00    -0.000 A 
ATOM     18  C   UNL A   1     -24.540   0.760  27.974  0.00  0.00    -0.004 A 
ENDBRANCH  12  13
ENDBRANCH  10  12
ENDBRANCH   3  10
TORSDOF 4
