MODEL 411
MODEL 1
REMARK VINA RESULT:    -4.344      0.000      0.000
REMARK INTER + INTRA:          -4.344
REMARK INTER:                  -4.344
REMARK INTRA:                   0.000
REMARK UNBOUND:                 0.000
REMARK  Name = No_411-gen_results/8p0m/2024-11-26-14-13-15/
REMARK  0 active torsions:
REMARK  status: ('A' for Active; 'I' for Inactive)
REMARK                            x       y       z     vdW  Elec       q    Type
REMARK                         _______ _______ _______ _____ _____    ______ ____
ROOT
ATOM      1 CL   UNL A   1     -23.281  -1.706  29.018  0.00  0.00    -0.082 Cl
ATOM      2  C   UNL A   1     -24.142  -2.857  29.136  0.00  0.00    +0.058 A 
ATOM      3  C   UNL A   1     -23.952  -3.981  28.868  0.00  0.00    +0.011 A 
ATOM      4  C   UNL A   1     -24.891  -5.088  28.976  0.00  0.00    +0.001 A 
ATOM      5  C   UNL A   1     -26.140  -4.793  29.579  0.00  0.00    +0.000 A 
ATOM      6  C   UNL A   1     -26.373  -3.516  29.931  0.00  0.00    +0.001 A 
ATOM      7  C   UNL A   1     -25.454  -2.570  29.780  0.00  0.00    +0.011 A 
ENDROOT
TORSDOF 0
ENDMDL
ENDMDL
