REMARK  Name = No_4121-gen_results/8p0m/2024-11-26-14-13-15/
REMARK  2 active torsions:
REMARK  status: ('A' for Active; 'I' for Inactive)
REMARK    1  A    between atoms: C_3  and  C_7
REMARK    2  A    between atoms: C_9  and  C_11
REMARK                            x       y       z     vdW  Elec       q    Type
REMARK                         _______ _______ _______ _____ _____    ______ ____
ROOT
ATOM      1  C   UNL A   1     -26.311   0.392  27.364  0.00  0.00    -0.000 A 
ATOM      2  C   UNL A   1     -26.767   1.025  26.372  0.00  0.00    -0.000 A 
ATOM      3  C   UNL A   1     -24.999  -0.176  27.349  0.00  0.00    -0.000 A 
ATOM      4  C   UNL A   1     -26.155   0.901  25.093  0.00  0.00    -0.000 A 
ATOM      5  C   UNL A   1     -24.725   0.497  25.051  0.00  0.00    -0.000 A 
ATOM      6  C   UNL A   1     -24.264  -0.047  26.201  0.00  0.00    -0.000 A 
ENDROOT
BRANCH   1   9
ATOM      7  C   UNL A   1     -28.016  -0.814  28.878  0.00  0.00    -0.000 A 
ATOM      8  C   UNL A   1     -28.469  -0.785  29.829  0.00  0.00    +0.000 A 
ATOM      9  C   UNL A   1     -27.087   0.290  28.638  0.00  0.00    -0.000 A 
ATOM     10  C   UNL A   1     -26.832   1.249  29.587  0.00  0.00    -0.000 A 
ATOM     11  C   UNL A   1     -28.391   0.080  31.006  0.00  0.00    +0.000 A 
ATOM     12  C   UNL A   1     -27.494   1.152  30.784  0.00  0.00    +0.000 A 
ENDBRANCH   1   9
BRANCH   3  13
ATOM     13  C   UNL A   1     -24.456  -0.809  28.577  0.00  0.00    -0.005 C 
ATOM     14  C   UNL A   1     -24.550  -1.837  29.093  0.00  0.00    -0.026 C 
ATOM     15  C   UNL A   1     -23.924  -2.254  30.295  0.00  0.00    +0.031 C 
ENDBRANCH   3  13
TORSDOF 2
