MODEL 4121
MODEL 1
REMARK VINA RESULT:    -6.682      0.000      0.000
REMARK INTER + INTRA:          -8.311
REMARK INTER:                  -7.464
REMARK INTRA:                  -0.847
REMARK UNBOUND:                -0.847
REMARK  Name = No_4121-gen_results/8p0m/2024-11-26-14-13-15/
REMARK  2 active torsions:
REMARK  status: ('A' for Active; 'I' for Inactive)
REMARK    1  A    between atoms: C_3  and  C_7
REMARK    2  A    between atoms: C_9  and  C_11
REMARK                            x       y       z     vdW  Elec       q    Type
REMARK                         _______ _______ _______ _____ _____    ______ ____
ROOT
ATOM      1  C   UNL A   1     -24.368  -0.968  28.334  0.00  0.00    -0.000 A 
ATOM      2  C   UNL A   1     -24.857  -0.456  27.289  0.00  0.00    -0.000 A 
ATOM      3  C   UNL A   1     -23.451  -0.247  29.161  0.00  0.00    -0.000 A 
ATOM      4  C   UNL A   1     -24.262   0.698  26.704  0.00  0.00    -0.000 A 
ATOM      5  C   UNL A   1     -23.457   1.580  27.589  0.00  0.00    -0.000 A 
ATOM      6  C   UNL A   1     -23.086   1.009  28.759  0.00  0.00    -0.000 A 
ENDROOT
BRANCH   1   9
ATOM      7  C   UNL A   1     -26.044  -2.503  29.554  0.00  0.00    -0.000 A 
ATOM      8  C   UNL A   1     -26.247  -3.509  29.794  0.00  0.00    +0.000 A 
ATOM      9  C   UNL A   1     -24.800  -2.319  28.806  0.00  0.00    -0.000 A 
ATOM     10  C   UNL A   1     -24.001  -3.377  28.446  0.00  0.00    -0.000 A 
ATOM     11  C   UNL A   1     -25.605  -4.800  29.548  0.00  0.00    +0.000 A 
ATOM     12  C   UNL A   1     -24.400  -4.633  28.824  0.00  0.00    +0.000 A 
ENDBRANCH   1   9
BRANCH   3  13
ATOM     13  C   UNL A   1     -22.992  -0.840  30.442  0.00  0.00    -0.005 C 
ATOM     14  C   UNL A   1     -23.312  -0.776  31.549  0.00  0.00    -0.026 C 
ATOM     15  C   UNL A   1     -22.726  -1.449  32.652  0.00  0.00    +0.031 C 
ENDBRANCH   3  13
TORSDOF 2
ENDMDL
ENDMDL
