REMARK  Name = No_4122-gen_results/8p0m/2024-11-26-14-13-15/
REMARK  6 active torsions:
REMARK  status: ('A' for Active; 'I' for Inactive)
REMARK    1  A    between atoms: C_1  and  C_16
REMARK    2  A    between atoms: C_2  and  C_10
REMARK    3  A    between atoms: C_5  and  C_7
REMARK    4  A    between atoms: C_16  and  O_17
REMARK    5  A    between atoms: O_17  and  C_21
REMARK    6  A    between atoms: C_26  and  O_27
REMARK                            x       y       z     vdW  Elec       q    Type
REMARK                         _______ _______ _______ _____ _____    ______ ____
ROOT
ATOM      1  C   UNL A   1     -28.016  -0.814  28.878  0.00  0.00    +0.076 A 
ATOM      2  C   UNL A   1     -27.064  -0.119  28.608  0.00  0.00    +0.008 A 
ATOM      3  C   UNL A   1     -26.972   0.714  27.506  0.00  0.00    +0.012 A 
ATOM      4  C   UNL A   1     -28.105   0.774  26.642  0.00  0.00    +0.064 A 
ATOM      5  C   UNL A   1     -29.201   0.104  27.053  0.00  0.00    +0.090 A 
ATOM      6  C   UNL A   1     -29.210  -0.603  28.185  0.00  0.00    +0.014 A 
ATOM      7 CL   UNL A   1     -28.042   1.836  25.314  0.00  0.00    -0.082 Cl
ENDROOT
BRANCH   2   8
ATOM      8  C   UNL A   1     -25.696  -0.212  29.427  0.00  0.00    +0.011 A 
ATOM      9  C   UNL A   1     -25.241   0.980  30.112  0.00  0.00    +0.058 A 
ATOM     10  C   UNL A   1     -23.905   0.966  30.472  0.00  0.00    +0.011 A 
ATOM     11  C   UNL A   1     -23.095  -0.186  30.367  0.00  0.00    +0.001 A 
ATOM     12  C   UNL A   1     -23.579  -1.274  29.682  0.00  0.00    +0.000 A 
ATOM     13  C   UNL A   1     -24.879  -1.311  29.139  0.00  0.00    +0.001 A 
ATOM     14 CL   UNL A   1     -26.230   2.331  30.284  0.00  0.00    -0.082 Cl
ENDBRANCH   2   8
BRANCH   5  15
ATOM     15  C   UNL A   1     -30.370   0.226  26.160  0.00  0.00    +0.389 C 
ATOM     16  O   UNL A   1     -30.987   1.189  26.160  0.00  0.00    -0.240 OA
ATOM     17  O   UNL A   1     -30.855  -0.934  25.761  0.00  0.00    -0.240 OA
ENDBRANCH   5  15
BRANCH   1  18
ATOM     18  C   UNL A   1     -28.077  -1.681  30.136  0.00  0.00    +0.346 C 
ATOM     19  O   UNL A   1     -27.803  -2.891  29.958  0.00  0.00    -0.244 OA
BRANCH  18  20
ATOM     20  O   UNL A   1     -28.368  -1.178  31.236  0.00  0.00    -0.418 OA
BRANCH  20  21
ATOM     21  C   UNL A   1     -29.126  -1.772  32.172  0.00  0.00    +0.182 A 
ATOM     22  C   UNL A   1     -29.198  -1.082  33.392  0.00  0.00    +0.041 A 
ATOM     23  C   UNL A   1     -29.524  -1.764  34.453  0.00  0.00    +0.003 A 
ATOM     24  C   UNL A   1     -30.010  -3.074  34.346  0.00  0.00    +0.003 A 
ATOM     25  C   UNL A   1     -29.840  -3.770  33.163  0.00  0.00    +0.040 A 
ATOM     26  C   UNL A   1     -29.276  -3.095  32.039  0.00  0.00    +0.173 A 
BRANCH  26  27
ATOM     27  O   UNL A   1     -29.170  -3.792  30.995  0.00  0.00    -0.468 OA
ATOM     28  C   UNL A   1     -29.308  -4.883  30.480  0.00  0.00    +0.253 C 
ENDBRANCH  26  27
ENDBRANCH  20  21
ENDBRANCH  18  20
ENDBRANCH   1  18
TORSDOF 6
