MODEL 4122
MODEL 1
REMARK VINA RESULT:    -7.394      0.000      0.000
REMARK INTER + INTRA:         -11.353
REMARK INTER:                  -9.988
REMARK INTRA:                  -1.365
REMARK UNBOUND:                -1.365
REMARK  Name = No_4122-gen_results/8p0m/2024-11-26-14-13-15/
REMARK  6 active torsions:
REMARK  status: ('A' for Active; 'I' for Inactive)
REMARK    1  A    between atoms: C_1  and  C_16
REMARK    2  A    between atoms: C_2  and  C_10
REMARK    3  A    between atoms: C_5  and  C_7
REMARK    4  A    between atoms: C_16  and  O_17
REMARK    5  A    between atoms: O_17  and  C_21
REMARK    6  A    between atoms: C_26  and  O_27
REMARK                            x       y       z     vdW  Elec       q    Type
REMARK                         _______ _______ _______ _____ _____    ______ ____
ROOT
ATOM      1  C   UNL A   1     -25.722  -0.194  29.727  0.00  0.00    +0.076 A 
ATOM      2  C   UNL A   1     -25.608  -1.199  30.389  0.00  0.00    +0.008 A 
ATOM      3  C   UNL A   1     -25.444  -1.235  31.763  0.00  0.00    +0.012 A 
ATOM      4  C   UNL A   1     -25.440   0.016  32.449  0.00  0.00    +0.064 A 
ATOM      5  C   UNL A   1     -25.718   1.103  31.701  0.00  0.00    +0.090 A 
ATOM      6  C   UNL A   1     -25.948   1.015  30.389  0.00  0.00    +0.014 A 
ATOM      7 CL   UNL A   1     -25.302  -0.003  34.145  0.00  0.00    -0.082 Cl
ENDROOT
BRANCH   2   8
ATOM      8  C   UNL A   1     -25.462  -2.639  29.713  0.00  0.00    +0.011 A 
ATOM      9  C   UNL A   1     -26.548  -3.580  29.896  0.00  0.00    +0.058 A 
ATOM     10  C   UNL A   1     -26.221  -4.898  29.633  0.00  0.00    +0.011 A 
ATOM     11  C   UNL A   1     -24.997  -5.281  29.041  0.00  0.00    +0.001 A 
ATOM     12  C   UNL A   1     -24.000  -4.344  28.920  0.00  0.00    +0.000 A 
ATOM     13  C   UNL A   1     -24.175  -2.998  29.300  0.00  0.00    +0.001 A 
ATOM     14 CL   UNL A   1     -28.025  -3.107  30.550  0.00  0.00    -0.082 Cl
ENDBRANCH   2   8
BRANCH   5  15
ATOM     15  C   UNL A   1     -25.752   2.375  32.450  0.00  0.00    +0.389 C 
ATOM     16  O   UNL A   1     -24.777   2.931  32.671  0.00  0.00    -0.240 OA
ATOM     17  O   UNL A   1     -26.846   2.537  33.169  0.00  0.00    -0.240 OA
ENDBRANCH   5  15
BRANCH   1  18
ATOM     18  C   UNL A   1     -25.945  -0.219  28.215  0.00  0.00    +0.346 C 
ATOM     19  O   UNL A   1     -27.143  -0.139  27.856  0.00  0.00    -0.244 OA
BRANCH  18  20
ATOM     20  O   UNL A   1     -24.979  -0.301  27.435  0.00  0.00    -0.418 OA
BRANCH  20  21
ATOM     21  C   UNL A   1     -24.247   0.742  27.013  0.00  0.00    +0.182 A 
ATOM     22  C   UNL A   1     -24.573   1.205  25.729  0.00  0.00    +0.041 A 
ATOM     23  C   UNL A   1     -23.668   1.887  25.085  0.00  0.00    +0.003 A 
ATOM     24  C   UNL A   1     -22.510   2.339  25.733  0.00  0.00    +0.003 A 
ATOM     25  C   UNL A   1     -22.156   1.796  26.955  0.00  0.00    +0.040 A 
ATOM     26  C   UNL A   1     -23.043   0.870  27.582  0.00  0.00    +0.173 A 
BRANCH  26  27
ATOM     27  O   UNL A   1     -22.657   0.434  28.700  0.00  0.00    -0.468 OA
ATOM     28  C   UNL A   1     -21.887  -0.286  29.302  0.00  0.00    +0.253 C 
ENDBRANCH  26  27
ENDBRANCH  20  21
ENDBRANCH  18  20
ENDBRANCH   1  18
TORSDOF 6
ENDMDL
ENDMDL
