MODEL 4123
MODEL 1
REMARK VINA RESULT:    -9.005      0.000      0.000
REMARK INTER + INTRA:         -12.620
REMARK INTER:                 -11.637
REMARK INTRA:                  -0.983
REMARK UNBOUND:                -0.983
REMARK  Name = No_4123-gen_results/8p0m/2024-11-26-14-13-15/
REMARK  5 active torsions:
REMARK  status: ('A' for Active; 'I' for Inactive)
REMARK    1  A    between atoms: C_2  and  C_28
REMARK    2  A    between atoms: C_3  and  C_8
REMARK    3  A    between atoms: C_6  and  O_7
REMARK    4  A    between atoms: O_7  and  C_22
REMARK    5  A    between atoms: C_9  and  C_14
REMARK                            x       y       z     vdW  Elec       q    Type
REMARK                         _______ _______ _______ _____ _____    ______ ____
ROOT
ATOM      1  C   UNL A   1     -24.585   0.926  25.795  0.00  0.00    +0.041 A 
ATOM      2  C   UNL A   1     -24.206   0.957  26.943  0.00  0.00    +0.074 A 
ATOM      3  C   UNL A   1     -24.951   0.467  28.015  0.00  0.00    +0.004 A 
ATOM      4  C   UNL A   1     -26.279  -0.061  27.769  0.00  0.00    +0.003 A 
ATOM      5  C   UNL A   1     -26.657  -0.057  26.407  0.00  0.00    +0.037 A 
ATOM      6  C   UNL A   1     -25.889   0.433  25.467  0.00  0.00    +0.145 A 
ENDROOT
BRANCH   3   7
ATOM      7  C   UNL A   1     -24.549   0.470  29.459  0.00  0.00    +0.004 A 
ATOM      8  C   UNL A   1     -23.906  -0.595  30.035  0.00  0.00    +0.054 A 
ATOM      9  C   UNL A   1     -23.619  -0.583  31.439  0.00  0.00    +0.004 A 
ATOM     10  C   UNL A   1     -23.958   0.553  32.242  0.00  0.00    +0.000 A 
ATOM     11  C   UNL A   1     -24.641   1.559  31.640  0.00  0.00    +0.000 A 
ATOM     12  C   UNL A   1     -24.933   1.543  30.302  0.00  0.00    +0.000 A 
BRANCH   8  13
ATOM     13  C   UNL A   1     -23.445  -1.757  29.250  0.00  0.00    +0.249 C 
ATOM     14  O   UNL A   1     -22.400  -1.858  28.750  0.00  0.00    -0.270 OA
ATOM     15  N   UNL A   1     -24.432  -2.754  29.118  0.00  0.00    -0.276 N 
ATOM     16  C   UNL A   1     -24.152  -3.982  28.431  0.00  0.00    +0.094 C 
ATOM     17  C   UNL A   1     -24.729  -5.005  28.948  0.00  0.00    +0.022 C 
ATOM     18  C   UNL A   1     -25.933  -4.962  29.643  0.00  0.00    +0.004 C 
ATOM     19  C   UNL A   1     -26.372  -3.650  29.979  0.00  0.00    +0.022 C 
ATOM     20  C   UNL A   1     -25.585  -2.595  29.822  0.00  0.00    +0.094 C 
ENDBRANCH   8  13
ENDBRANCH   3   7
BRANCH   2  21
ATOM     21  C   UNL A   1     -22.856   1.546  27.312  0.00  0.00    +0.419 C 
ATOM     22  F   UNL A   1     -22.136   0.925  27.886  0.00  0.00    -0.166 F 
ATOM     23  F   UNL A   1     -23.165   2.777  27.846  0.00  0.00    -0.166 F 
ATOM     24  F   UNL A   1     -22.305   1.926  26.041  0.00  0.00    -0.166 F 
ENDBRANCH   2  21
BRANCH   6  25
ATOM     25  O   UNL A   1     -26.381   0.432  24.193  0.00  0.00    -0.454 OA
BRANCH  25  26
ATOM     26  C   UNL A   1     -27.603   0.861  23.886  0.00  0.00    +0.145 A 
ATOM     27  C   UNL A   1     -27.973   1.870  23.788  0.00  0.00    +0.037 A 
ATOM     28  C   UNL A   1     -29.383   2.255  23.456  0.00  0.00    +0.003 A 
ATOM     29  C   UNL A   1     -30.224   1.178  23.240  0.00  0.00    +0.000 A 
ATOM     30  C   UNL A   1     -28.522  -0.327  23.753  0.00  0.00    +0.037 A 
ATOM     31  C   UNL A   1     -29.795  -0.091  23.393  0.00  0.00    +0.003 A 
ENDBRANCH  25  26
ENDBRANCH   6  25
TORSDOF 5
ENDMDL
ENDMDL
