REMARK  Name = No_4123-gen_results/8p0m/2024-11-26-14-13-15/
REMARK  5 active torsions:
REMARK  status: ('A' for Active; 'I' for Inactive)
REMARK    1  A    between atoms: C_2  and  C_28
REMARK    2  A    between atoms: C_3  and  C_8
REMARK    3  A    between atoms: C_6  and  O_7
REMARK    4  A    between atoms: O_7  and  C_22
REMARK    5  A    between atoms: C_9  and  C_14
REMARK                            x       y       z     vdW  Elec       q    Type
REMARK                         _______ _______ _______ _____ _____    ______ ____
ROOT
ATOM      1  C   UNL A   1     -28.016  -0.814  28.878  0.00  0.00    +0.041 A 
ATOM      2  C   UNL A   1     -27.064  -0.119  28.608  0.00  0.00    +0.074 A 
ATOM      3  C   UNL A   1     -25.765  -0.390  29.036  0.00  0.00    +0.004 A 
ATOM      4  C   UNL A   1     -25.530  -1.530  29.901  0.00  0.00    +0.003 A 
ATOM      5  C   UNL A   1     -26.689  -2.289  30.181  0.00  0.00    +0.037 A 
ATOM      6  C   UNL A   1     -27.873  -1.951  29.737  0.00  0.00    +0.145 A 
ENDROOT
BRANCH   3   7
ATOM      7  C   UNL A   1     -24.539   0.421  28.742  0.00  0.00    +0.004 A 
ATOM      8  C   UNL A   1     -24.091   1.393  29.598  0.00  0.00    +0.054 A 
ATOM      9  C   UNL A   1     -22.965   2.202  29.235  0.00  0.00    +0.004 A 
ATOM     10  C   UNL A   1     -22.273   1.976  28.001  0.00  0.00    +0.000 A 
ATOM     11  C   UNL A   1     -22.786   1.040  27.163  0.00  0.00    +0.000 A 
ATOM     12  C   UNL A   1     -23.873   0.277  27.499  0.00  0.00    +0.000 A 
BRANCH   8  13
ATOM     13  C   UNL A   1     -24.698   1.618  30.925  0.00  0.00    +0.249 C 
ATOM     14  O   UNL A   1     -24.831   0.808  31.748  0.00  0.00    -0.270 OA
ATOM     15  N   UNL A   1     -25.157   2.939  31.099  0.00  0.00    -0.276 N 
ATOM     16  C   UNL A   1     -25.731   3.361  32.344  0.00  0.00    +0.094 C 
ATOM     17  C   UNL A   1     -25.444   4.571  32.660  0.00  0.00    +0.022 C 
ATOM     18  C   UNL A   1     -25.178   5.582  31.743  0.00  0.00    +0.004 C 
ATOM     19  C   UNL A   1     -24.986   5.129  30.407  0.00  0.00    +0.022 C 
ATOM     20  C   UNL A   1     -24.865   3.840  30.123  0.00  0.00    +0.094 C 
ENDBRANCH   8  13
ENDBRANCH   3   7
BRANCH   2  21
ATOM     21  C   UNL A   1     -27.216   1.131  27.759  0.00  0.00    +0.419 C 
ATOM     22  F   UNL A   1     -26.307   1.698  27.468  0.00  0.00    -0.166 F 
ATOM     23  F   UNL A   1     -28.206   1.846  28.395  0.00  0.00    -0.166 F 
ATOM     24  F   UNL A   1     -27.918   0.657  26.599  0.00  0.00    -0.166 F 
ENDBRANCH   2  21
BRANCH   6  25
ATOM     25  O   UNL A   1     -28.930  -2.730  30.115  0.00  0.00    -0.454 OA
BRANCH  25  26
ATOM     26  C   UNL A   1     -30.043  -2.233  30.649  0.00  0.00    +0.145 A 
ATOM     27  C   UNL A   1     -30.207  -1.286  31.140  0.00  0.00    +0.037 A 
ATOM     28  C   UNL A   1     -31.503  -0.820  31.732  0.00  0.00    +0.003 A 
ATOM     29  C   UNL A   1     -32.546  -1.716  31.576  0.00  0.00    +0.000 A 
ATOM     30  C   UNL A   1     -31.138  -3.265  30.555  0.00  0.00    +0.037 A 
ATOM     31  C   UNL A   1     -32.358  -2.920  31.000  0.00  0.00    +0.003 A 
ENDBRANCH  25  26
ENDBRANCH   6  25
TORSDOF 5
