REMARK  Name = No_4124-gen_results/8p0m/2024-11-26-14-13-15/
REMARK  6 active torsions:
REMARK  status: ('A' for Active; 'I' for Inactive)
REMARK    1  A    between atoms: C_5  and  C_8
REMARK    2  A    between atoms: C_8  and  N_9
REMARK    3  A    between atoms: C_8  and  C_10
REMARK    4  A    between atoms: C_8  and  C_11
REMARK    5  A    between atoms: N_9  and  C_12
REMARK    6  A    between atoms: C_13  and  C_14
REMARK                            x       y       z     vdW  Elec       q    Type
REMARK                         _______ _______ _______ _____ _____    ______ ____
ROOT
ATOM      1  C   UNL A   1     -26.451   4.568  29.581  0.00  0.00    +0.171 C 
ENDROOT
BRANCH   1   6
ATOM      2 CL   UNL A   1     -28.149  -0.820  28.908  0.00  0.00    -0.082 Cl
ATOM      3  C   UNL A   1     -27.834   0.496  29.060  0.00  0.00    +0.058 A 
ATOM      4  C   UNL A   1     -27.602   1.013  30.297  0.00  0.00    +0.011 A 
ATOM      5  C   UNL A   1     -27.170   2.396  30.534  0.00  0.00    -0.001 A 
ATOM      6  C   UNL A   1     -26.913   3.183  29.368  0.00  0.00    +0.006 A 
ATOM      7  C   UNL A   1     -27.055   2.622  28.138  0.00  0.00    -0.001 A 
ATOM      8  C   UNL A   1     -27.462   1.335  27.967  0.00  0.00    +0.011 A 
ENDBRANCH   1   6
BRANCH   1   9
ATOM      9  C   UNL A   1     -27.749   5.453  29.643  0.00  0.00    +0.006 A 
ATOM     10  C   UNL A   1     -28.308   5.834  30.509  0.00  0.00    -0.002 A 
ATOM     11  C   UNL A   1     -29.439   6.717  30.635  0.00  0.00    -0.000 A 
ATOM     12  C   UNL A   1     -29.946   7.091  29.440  0.00  0.00    -0.000 A 
ATOM     13  C   UNL A   1     -29.375   6.678  28.260  0.00  0.00    -0.000 A 
ATOM     14  C   UNL A   1     -28.212   5.888  28.267  0.00  0.00    -0.002 A 
ENDBRANCH   1   9
BRANCH   1  15
ATOM     15  C   UNL A   1     -25.624   5.079  28.362  0.00  0.00    +0.235 C 
ATOM     16  O   UNL A   1     -25.696   5.530  27.380  0.00  0.00    -0.286 OA
ENDBRANCH   1  15
BRANCH   1  17
ATOM     17  N   UNL A   1     -25.788   4.852  30.598  0.00  0.00    -0.224 NA
BRANCH  17  18
ATOM     18  C   UNL A   1     -25.253   4.018  31.489  0.00  0.00    +0.081 C 
ATOM     19  C   UNL A   1     -24.505   4.470  32.677  0.00  0.00    +0.017 C 
BRANCH  19  20
ATOM     20  C   UNL A   1     -25.327   5.290  33.523  0.00  0.00    +0.001 A 
ATOM     21  C   UNL A   1     -24.836   6.555  33.858  0.00  0.00    +0.000 A 
ATOM     22  C   UNL A   1     -25.648   7.393  34.613  0.00  0.00    +0.000 A 
ATOM     23  C   UNL A   1     -26.662   7.459  34.509  0.00  0.00    +0.000 A 
ATOM     24  C   UNL A   1     -27.470   6.260  34.088  0.00  0.00    +0.000 A 
ATOM     25  C   UNL A   1     -26.720   5.196  33.502  0.00  0.00    +0.000 A 
ENDBRANCH  19  20
ENDBRANCH  17  18
ENDBRANCH   1  17
TORSDOF 6
