MODEL 4124
MODEL 1
REMARK VINA RESULT:    -7.643      0.000      0.000
REMARK INTER + INTRA:         -12.793
REMARK INTER:                 -10.324
REMARK INTRA:                  -2.470
REMARK UNBOUND:                -2.470
REMARK  Name = No_4124-gen_results/8p0m/2024-11-26-14-13-15/
REMARK  6 active torsions:
REMARK  status: ('A' for Active; 'I' for Inactive)
REMARK    1  A    between atoms: C_5  and  C_8
REMARK    2  A    between atoms: C_8  and  N_9
REMARK    3  A    between atoms: C_8  and  C_10
REMARK    4  A    between atoms: C_8  and  C_11
REMARK    5  A    between atoms: N_9  and  C_12
REMARK    6  A    between atoms: C_13  and  C_14
REMARK                            x       y       z     vdW  Elec       q    Type
REMARK                         _______ _______ _______ _____ _____    ______ ____
ROOT
ATOM      1  C   UNL A   1     -24.612  -1.006  28.977  0.00  0.00    +0.171 C 
ENDROOT
BRANCH   1   6
ATOM      2 CL   UNL A   1     -27.742   0.955  24.649  0.00  0.00    -0.082 Cl
ATOM      3  C   UNL A   1     -27.047   0.407  25.685  0.00  0.00    +0.058 A 
ATOM      4  C   UNL A   1     -25.845  -0.192  25.471  0.00  0.00    +0.011 A 
ATOM      5  C   UNL A   1     -24.997  -0.723  26.545  0.00  0.00    -0.001 A 
ATOM      6  C   UNL A   1     -25.462  -0.505  27.879  0.00  0.00    +0.006 A 
ATOM      7  C   UNL A   1     -26.617   0.182  28.081  0.00  0.00    -0.001 A 
ATOM      8  C   UNL A   1     -27.373   0.653  27.052  0.00  0.00    +0.011 A 
ENDBRANCH   1   6
BRANCH   1   9
ATOM      9  C   UNL A   1     -24.766  -2.571  28.964  0.00  0.00    +0.006 A 
ATOM     10  C   UNL A   1     -24.073  -3.350  28.618  0.00  0.00    -0.002 A 
ATOM     11  C   UNL A   1     -24.113  -4.789  28.663  0.00  0.00    -0.000 A 
ATOM     12  C   UNL A   1     -25.270  -5.264  29.175  0.00  0.00    -0.000 A 
ATOM     13  C   UNL A   1     -26.251  -4.417  29.630  0.00  0.00    -0.000 A 
ATOM     14  C   UNL A   1     -26.056  -3.024  29.618  0.00  0.00    -0.002 A 
ENDBRANCH   1   9
BRANCH   1  15
ATOM     15  C   UNL A   1     -25.138  -0.520  30.362  0.00  0.00    +0.235 C 
ATOM     16  O   UNL A   1     -25.086  -0.692  31.430  0.00  0.00    -0.286 OA
ENDBRANCH   1  15
BRANCH   1  17
ATOM     17  N   UNL A   1     -23.387  -0.777  28.968  0.00  0.00    -0.224 NA
BRANCH  17  18
ATOM     18  C   UNL A   1     -22.754   0.327  29.361  0.00  0.00    +0.081 C 
ATOM     19  C   UNL A   1     -21.985   1.192  28.447  0.00  0.00    +0.017 C 
BRANCH  19  20
ATOM     20  C   UNL A   1     -22.821   1.709  27.400  0.00  0.00    +0.001 A 
ATOM     21  C   UNL A   1     -23.821   2.613  27.769  0.00  0.00    +0.000 A 
ATOM     22  C   UNL A   1     -24.592   3.183  26.763  0.00  0.00    +0.000 A 
ATOM     23  C   UNL A   1     -24.231   3.458  25.848  0.00  0.00    +0.000 A 
ATOM     24  C   UNL A   1     -23.095   2.703  25.211  0.00  0.00    +0.000 A 
ATOM     25  C   UNL A   1     -22.345   1.871  26.097  0.00  0.00    +0.000 A 
ENDBRANCH  19  20
ENDBRANCH  17  18
ENDBRANCH   1  17
TORSDOF 6
ENDMDL
ENDMDL
