REMARK  Name = No_4125-gen_results/8p0m/2024-11-26-14-13-15/
REMARK  4 active torsions:
REMARK  status: ('A' for Active; 'I' for Inactive)
REMARK    1  A    between atoms: C_3  and  C_7
REMARK    2  A    between atoms: C_7  and  C_8
REMARK    3  A    between atoms: C_18  and  O_19
REMARK    4  A    between atoms: O_19  and  C_20
REMARK                            x       y       z     vdW  Elec       q    Type
REMARK                         _______ _______ _______ _____ _____    ______ ____
ROOT
ATOM      1  C   UNL A   1     -26.466   1.408  26.565  0.00  0.00    -0.019 A 
ATOM      2  C   UNL A   1     -25.245   1.328  27.356  0.00  0.00    +0.010 A 
ATOM      3  C   UNL A   1     -24.304   2.299  27.231  0.00  0.00    -0.019 A 
ATOM      4  C   UNL A   1     -24.523   3.351  26.289  0.00  0.00    -0.004 A 
ATOM      5  C   UNL A   1     -25.701   3.525  25.655  0.00  0.00    -0.001 A 
ATOM      6  C   UNL A   1     -26.689   2.504  25.797  0.00  0.00    -0.004 A 
ATOM      7  C   UNL A   1     -22.992   2.217  27.929  0.00  0.00    +0.052 C 
ATOM      8  C   UNL A   1     -22.415   0.839  27.933  0.00  0.00    -0.026 C 
ATOM      9  C   UNL A   1     -23.122  -0.148  28.579  0.00  0.00    -0.026 C 
ATOM     10  C   UNL A   1     -24.367  -0.660  28.207  0.00  0.00    +0.074 C 
ATOM     11  C   UNL A   1     -24.961   0.165  27.973  0.00  0.00    +0.192 C 
ENDROOT
BRANCH   1  12
ATOM     12  C   UNL A   1     -27.460   0.380  26.709  0.00  0.00    +0.052 C 
BRANCH  12  15
ATOM     13  C   UNL A   1     -28.016  -0.814  28.878  0.00  0.00    -0.004 A 
ATOM     14  C   UNL A   1     -28.469  -0.785  29.829  0.00  0.00    -0.000 A 
ATOM     15  C   UNL A   1     -28.196   0.348  28.055  0.00  0.00    -0.018 A 
ATOM     16  C   UNL A   1     -29.019   1.350  28.378  0.00  0.00    -0.004 A 
ATOM     17  C   UNL A   1     -29.411   0.180  30.378  0.00  0.00    -0.000 A 
ATOM     18  C   UNL A   1     -29.606   1.250  29.619  0.00  0.00    -0.000 A 
ENDBRANCH  12  15
ENDBRANCH   1  12
BRANCH  11  19
ATOM     19  O   UNL A   1     -25.922  -0.120  28.872  0.00  0.00    -0.474 OA
BRANCH  19  20
ATOM     20  C   UNL A   1     -25.683   0.323  30.175  0.00  0.00    +0.139 A 
ATOM     21  C   UNL A   1     -25.092  -0.513  31.118  0.00  0.00    +0.037 A 
ATOM     22  C   UNL A   1     -24.137   0.048  31.829  0.00  0.00    +0.003 A 
ATOM     23  C   UNL A   1     -26.205   1.598  30.600  0.00  0.00    +0.037 A 
ATOM     24  C   UNL A   1     -25.447   2.269  31.643  0.00  0.00    +0.003 A 
ATOM     25  C   UNL A   1     -24.541   1.412  32.511  0.00  0.00    +0.000 A 
ENDBRANCH  19  20
ENDBRANCH  11  19
TORSDOF 4
