MODEL 4125
MODEL 1
REMARK VINA RESULT:    -8.148      0.000      0.000
REMARK INTER + INTRA:         -11.259
REMARK INTER:                 -10.053
REMARK INTRA:                  -1.206
REMARK UNBOUND:                -1.206
REMARK  Name = No_4125-gen_results/8p0m/2024-11-26-14-13-15/
REMARK  4 active torsions:
REMARK  status: ('A' for Active; 'I' for Inactive)
REMARK    1  A    between atoms: C_3  and  C_7
REMARK    2  A    between atoms: C_7  and  C_8
REMARK    3  A    between atoms: C_18  and  O_19
REMARK    4  A    between atoms: O_19  and  C_20
REMARK                            x       y       z     vdW  Elec       q    Type
REMARK                         _______ _______ _______ _____ _____    ______ ____
ROOT
ATOM      1  C   UNL A   1     -23.206   0.211  29.209  0.00  0.00    -0.019 A 
ATOM      2  C   UNL A   1     -23.747   1.145  28.231  0.00  0.00    +0.010 A 
ATOM      3  C   UNL A   1     -22.912   1.734  27.337  0.00  0.00    -0.019 A 
ATOM      4  C   UNL A   1     -21.514   1.452  27.413  0.00  0.00    -0.004 A 
ATOM      5  C   UNL A   1     -21.010   0.487  28.210  0.00  0.00    -0.001 A 
ATOM      6  C   UNL A   1     -21.895  -0.134  29.143  0.00  0.00    -0.004 A 
ATOM      7  C   UNL A   1     -23.387   2.776  26.385  0.00  0.00    +0.052 C 
ATOM      8  C   UNL A   1     -24.357   3.732  26.999  0.00  0.00    -0.026 C 
ATOM      9  C   UNL A   1     -25.551   3.226  27.457  0.00  0.00    -0.026 C 
ATOM     10  C   UNL A   1     -25.727   2.346  28.526  0.00  0.00    +0.074 C 
ATOM     11  C   UNL A   1     -24.999   1.607  28.416  0.00  0.00    +0.192 C 
ENDROOT
BRANCH   1  12
ATOM     12  C   UNL A   1     -24.098  -0.413  30.147  0.00  0.00    +0.052 C 
BRANCH  12  15
ATOM     13  C   UNL A   1     -25.808  -2.280  30.320  0.00  0.00    -0.004 A 
ATOM     14  C   UNL A   1     -26.136  -3.230  30.004  0.00  0.00    -0.000 A 
ATOM     15  C   UNL A   1     -24.550  -1.836  29.791  0.00  0.00    -0.018 A 
ATOM     16  C   UNL A   1     -23.741  -2.623  29.075  0.00  0.00    -0.004 A 
ATOM     17  C   UNL A   1     -25.424  -4.254  29.253  0.00  0.00    -0.000 A 
ATOM     18  C   UNL A   1     -24.248  -3.867  28.776  0.00  0.00    -0.000 A 
ENDBRANCH  12  15
ENDBRANCH   1  12
BRANCH  11  19
ATOM     19  O   UNL A   1     -25.873   0.583  28.372  0.00  0.00    -0.474 OA
BRANCH  19  20
ATOM     20  C   UNL A   1     -26.319   0.222  27.099  0.00  0.00    +0.139 A 
ATOM     21  C   UNL A   1     -27.652   0.386  26.734  0.00  0.00    +0.037 A 
ATOM     22  C   UNL A   1     -27.836   0.920  25.545  0.00  0.00    +0.003 A 
ATOM     23  C   UNL A   1     -25.433  -0.484  26.208  0.00  0.00    +0.037 A 
ATOM     24  C   UNL A   1     -25.672  -0.275  24.790  0.00  0.00    +0.003 A 
ATOM     25  C   UNL A   1     -27.053   0.206  24.377  0.00  0.00    +0.000 A 
ENDBRANCH  19  20
ENDBRANCH  11  19
TORSDOF 4
ENDMDL
ENDMDL
