REMARK  Name = No_4126-gen_results/8p0m/2024-11-26-14-13-15/
REMARK  6 active torsions:
REMARK  status: ('A' for Active; 'I' for Inactive)
REMARK    1  A    between atoms: C_1  and  C_18
REMARK    2  A    between atoms: C_3  and  N_7
REMARK    3  A    between atoms: C_5  and  C_15
REMARK    4  A    between atoms: C_10  and  C_12
REMARK    5  A    between atoms: C_18  and  O_19
REMARK    6  A    between atoms: O_19  and  C_23
REMARK                            x       y       z     vdW  Elec       q    Type
REMARK                         _______ _______ _______ _____ _____    ______ ____
ROOT
ATOM      1  C   UNL A   1     -28.016  -0.814  28.878  0.00  0.00    +0.078 A 
ATOM      2  C   UNL A   1     -27.064  -0.119  28.608  0.00  0.00    +0.024 A 
ATOM      3  C   UNL A   1     -26.972   0.714  27.506  0.00  0.00    +0.064 A 
ATOM      4  C   UNL A   1     -28.105   0.774  26.642  0.00  0.00    +0.022 A 
ATOM      5  C   UNL A   1     -29.204   0.118  27.048  0.00  0.00    +0.055 A 
ATOM      6  C   UNL A   1     -29.213  -0.609  28.128  0.00  0.00    +0.011 A 
ENDROOT
BRANCH   3   7
ATOM      7  N   UNL A   1     -25.686   1.276  27.319  0.00  0.00    -0.303 N 
ATOM      8  C   UNL A   1     -25.282   1.958  26.466  0.00  0.00    +0.080 A 
ATOM      9  C   UNL A   1     -23.869   2.482  26.460  0.00  0.00    +0.027 A 
ATOM     10  C   UNL A   1     -23.159   1.938  27.542  0.00  0.00    +0.099 A 
ATOM     11  C   UNL A   1     -24.510   0.968  28.256  0.00  0.00    +0.087 A 
BRANCH  10  12
ATOM     12  C   UNL A   1     -21.983   1.855  28.043  0.00  0.00    +0.389 C 
ATOM     13  O   UNL A   1     -21.764   1.568  29.211  0.00  0.00    -0.240 OA
ATOM     14  O   UNL A   1     -21.016   2.326  27.316  0.00  0.00    -0.240 OA
ENDBRANCH  10  12
ENDBRANCH   3   7
BRANCH   5  15
ATOM     15  C   UNL A   1     -30.491   0.175  26.344  0.00  0.00    +0.249 C 
ATOM     16  N   UNL A   1     -30.541   0.210  25.094  0.00  0.00    -0.273 N 
ATOM     17  O   UNL A   1     -31.592   0.159  26.916  0.00  0.00    -0.270 OA
ATOM     18  C   UNL A   1     -29.325   0.256  24.205  0.00  0.00    +0.115 C 
ATOM     19  C   UNL A   1     -31.723   0.267  24.261  0.00  0.00    +0.115 C 
ENDBRANCH   5  15
BRANCH   1  20
ATOM     20  C   UNL A   1     -28.110  -1.703  30.103  0.00  0.00    +0.345 C 
ATOM     21  O   UNL A   1     -29.145  -1.762  30.795  0.00  0.00    -0.244 OA
BRANCH  20  22
ATOM     22  O   UNL A   1     -27.180  -2.522  30.312  0.00  0.00    -0.426 OA
BRANCH  22  23
ATOM     23  C   UNL A   1     -27.325  -3.862  30.131  0.00  0.00    +0.122 C 
ATOM     24  C   UNL A   1     -28.641  -4.425  30.218  0.00  0.00    +0.007 C 
ATOM     25  C   UNL A   1     -26.197  -4.642  29.783  0.00  0.00    +0.072 C 
ATOM     26  C   UNL A   1     -29.650  -3.837  30.911  0.00  0.00    +0.034 C 
ENDBRANCH  22  23
ENDBRANCH  20  22
ENDBRANCH   1  20
TORSDOF 6
