MODEL 4126
MODEL 1
REMARK VINA RESULT:    -6.048      0.000      0.000
REMARK INTER + INTRA:          -9.187
REMARK INTER:                  -8.169
REMARK INTRA:                  -1.018
REMARK UNBOUND:                -1.018
REMARK  Name = No_4126-gen_results/8p0m/2024-11-26-14-13-15/
REMARK  6 active torsions:
REMARK  status: ('A' for Active; 'I' for Inactive)
REMARK    1  A    between atoms: C_1  and  C_18
REMARK    2  A    between atoms: C_3  and  N_7
REMARK    3  A    between atoms: C_5  and  C_15
REMARK    4  A    between atoms: C_10  and  C_12
REMARK    5  A    between atoms: C_18  and  O_19
REMARK    6  A    between atoms: O_19  and  C_23
REMARK                            x       y       z     vdW  Elec       q    Type
REMARK                         _______ _______ _______ _____ _____    ______ ____
ROOT
ATOM      1  C   UNL A   1     -30.331 -15.169  10.867  0.00  0.00    +0.078 A 
ATOM      2  C   UNL A   1     -29.639 -15.639   9.994  0.00  0.00    +0.024 A 
ATOM      3  C   UNL A   1     -30.098 -16.090   8.768  0.00  0.00    +0.064 A 
ATOM      4  C   UNL A   1     -31.494 -15.958   8.510  0.00  0.00    +0.022 A 
ATOM      5  C   UNL A   1     -32.213 -15.290   9.427  0.00  0.00    +0.055 A 
ATOM      6  C   UNL A   1     -31.685 -14.861  10.537  0.00  0.00    +0.011 A 
ENDROOT
BRANCH   3   7
ATOM      7  N   UNL A   1     -29.116 -16.763   8.001  0.00  0.00    -0.303 N 
ATOM      8  C   UNL A   1     -29.200 -17.276   6.960  0.00  0.00    +0.080 A 
ATOM      9  C   UNL A   1     -28.017 -17.925   6.289  0.00  0.00    +0.027 A 
ATOM     10  C   UNL A   1     -26.908 -17.889   7.148  0.00  0.00    +0.099 A 
ATOM     11  C   UNL A   1     -27.692 -17.007   8.520  0.00  0.00    +0.087 A 
BRANCH  10  12
ATOM     12  C   UNL A   1     -25.709 -18.322   7.274  0.00  0.00    +0.389 C 
ATOM     13  O   UNL A   1     -25.384 -19.196   8.065  0.00  0.00    -0.240 OA
ATOM     14  O   UNL A   1     -24.783 -17.624   6.689  0.00  0.00    -0.240 OA
ENDBRANCH  10  12
ENDBRANCH   3   7
BRANCH   5  15
ATOM     15  C   UNL A   1     -33.633 -14.958   9.262  0.00  0.00    +0.249 C 
ATOM     16  N   UNL A   1     -33.986 -13.892   8.711  0.00  0.00    -0.273 N 
ATOM     17  O   UNL A   1     -34.562 -15.702   9.616  0.00  0.00    -0.270 OA
ATOM     18  C   UNL A   1     -33.024 -12.839   8.224  0.00  0.00    +0.115 C 
ATOM     19  C   UNL A   1     -35.336 -13.427   8.476  0.00  0.00    +0.115 C 
ENDBRANCH   5  15
BRANCH   1  20
ATOM     20  C   UNL A   1     -29.808 -14.658  12.196  0.00  0.00    +0.345 C 
ATOM     21  O   UNL A   1     -29.767 -15.383  13.209  0.00  0.00    -0.244 OA
BRANCH  20  22
ATOM     22  O   UNL A   1     -29.247 -13.534  12.218  0.00  0.00    -0.426 OA
BRANCH  22  23
ATOM     23  C   UNL A   1     -29.938 -12.365  12.147  0.00  0.00    +0.122 C 
ATOM     24  C   UNL A   1     -29.821 -11.573  10.958  0.00  0.00    +0.007 C 
ATOM     25  C   UNL A   1     -30.809 -12.008  13.204  0.00  0.00    +0.072 C 
ATOM     26  C   UNL A   1     -28.751 -11.646  10.125  0.00  0.00    +0.034 C 
ENDBRANCH  22  23
ENDBRANCH  20  22
ENDBRANCH   1  20
TORSDOF 6
ENDMDL
ENDMDL
