MODEL 4128
MODEL 1
REMARK VINA RESULT:    -4.260      0.000      0.000
REMARK INTER + INTRA:          -4.260
REMARK INTER:                  -4.260
REMARK INTRA:                   0.000
REMARK UNBOUND:                 0.000
REMARK  Name = No_4128-gen_results/8p0m/2024-11-26-14-13-15/
REMARK  0 active torsions:
REMARK  status: ('A' for Active; 'I' for Inactive)
REMARK                            x       y       z     vdW  Elec       q    Type
REMARK                         _______ _______ _______ _____ _____    ______ ____
ROOT
ATOM      1  C   UNL A   1     -25.007  -5.374  29.035  0.00  0.00    +0.000 A 
ATOM      2  C   UNL A   1     -25.841  -4.918  29.489  0.00  0.00    +0.000 A 
ATOM      3  C   UNL A   1     -23.985  -4.423  28.598  0.00  0.00    +0.000 A 
ATOM      4  C   UNL A   1     -24.117  -3.070  28.792  0.00  0.00    +0.000 A 
ATOM      5  C   UNL A   1     -26.241  -3.552  29.823  0.00  0.00    +0.000 A 
ATOM      6  C   UNL A   1     -25.259  -2.623  29.405  0.00  0.00    +0.000 A 
ENDROOT
TORSDOF 0
ENDMDL
ENDMDL
