MODEL 4129
MODEL 1
REMARK VINA RESULT:    -6.481      0.000      0.000
REMARK INTER + INTRA:          -7.812
REMARK INTER:                  -7.238
REMARK INTRA:                  -0.574
REMARK UNBOUND:                -0.574
REMARK  Name = No_4129-gen_results/8p0m/2024-11-26-14-13-15/
REMARK  2 active torsions:
REMARK  status: ('A' for Active; 'I' for Inactive)
REMARK    1  A    between atoms: C_4  and  C_7
REMARK    2  A    between atoms: C_7  and  C_8
REMARK                            x       y       z     vdW  Elec       q    Type
REMARK                         _______ _______ _______ _____ _____    ______ ____
ROOT
ATOM      1  C   UNL A   1     -26.250  -4.339  29.678  0.00  0.00    +0.011 A 
ATOM      2  C   UNL A   1     -25.522  -4.964  29.242  0.00  0.00    +0.001 A 
ATOM      3  C   UNL A   1     -25.845  -2.953  29.959  0.00  0.00    +0.054 A 
ATOM      4  C   UNL A   1     -24.577  -2.466  29.525  0.00  0.00    -0.007 A 
ATOM      5  C   UNL A   1     -23.757  -3.382  28.916  0.00  0.00    -0.003 A 
ATOM      6  C   UNL A   1     -24.171  -4.650  28.706  0.00  0.00    -0.000 A 
ATOM      7 CL   UNL A   1     -26.834  -1.808  30.797  0.00  0.00    -0.083 Cl
ENDROOT
BRANCH   4   8
ATOM      8  C   UNL A   1     -24.179  -1.094  29.783  0.00  0.00    +0.053 C 
BRANCH   8   9
ATOM      9  C   UNL A   1     -23.874  -0.305  28.653  0.00  0.00    -0.018 A 
ATOM     10  C   UNL A   1     -24.745  -0.203  27.559  0.00  0.00    -0.004 A 
ATOM     11  C   UNL A   1     -24.536   0.688  26.546  0.00  0.00    -0.000 A 
ATOM     12  C   UNL A   1     -22.626   0.379  28.512  0.00  0.00    -0.004 A 
ATOM     13  C   UNL A   1     -22.413   1.391  27.586  0.00  0.00    -0.000 A 
ATOM     14  C   UNL A   1     -23.382   1.534  26.523  0.00  0.00    -0.000 A 
ENDBRANCH   8   9
ENDBRANCH   4   8
TORSDOF 2
ENDMDL
ENDMDL
