MODEL 412
MODEL 1
REMARK VINA RESULT:    -5.320      0.000      0.000
REMARK INTER + INTRA:          -5.697
REMARK INTER:                  -5.631
REMARK INTRA:                  -0.066
REMARK UNBOUND:                -0.066
REMARK  Name = No_412-gen_results/8p0m/2024-11-26-14-13-15/
REMARK  1 active torsions:
REMARK  status: ('A' for Active; 'I' for Inactive)
REMARK    1  A    between atoms: C_5  and  C_7
REMARK                            x       y       z     vdW  Elec       q    Type
REMARK                         _______ _______ _______ _____ _____    ______ ____
ROOT
ATOM      1  C   UNL A   1     -24.583  -5.040  28.899  0.00  0.00    +0.000 A 
ATOM      2  C   UNL A   1     -25.705  -4.928  29.335  0.00  0.00    +0.000 A 
ATOM      3  C   UNL A   1     -26.278  -3.745  29.769  0.00  0.00    +0.000 A 
ATOM      4  C   UNL A   1     -25.487  -2.564  29.663  0.00  0.00    +0.005 A 
ATOM      5  C   UNL A   1     -24.300  -2.699  29.036  0.00  0.00    +0.055 A 
ATOM      6  C   UNL A   1     -23.878  -3.878  28.575  0.00  0.00    +0.005 A 
ENDROOT
BRANCH   5   7
ATOM      7  C   UNL A   1     -23.528  -1.448  28.901  0.00  0.00    +0.265 C 
ATOM      8  N   UNL A   1     -22.342  -1.519  28.907  0.00  0.00    -0.200 NA
ATOM      9  O   UNL A   1     -24.116  -0.315  28.879  0.00  0.00    -0.268 OA
ATOM     10  C   UNL A   1     -21.451  -0.296  28.908  0.00  0.00    +0.139 C 
ENDBRANCH   5   7
TORSDOF 1
ENDMDL
ENDMDL
