MODEL 4130
MODEL 1
REMARK VINA RESULT:    -5.230      0.000      0.000
REMARK INTER + INTRA:          -5.230
REMARK INTER:                  -5.230
REMARK INTRA:                   0.000
REMARK UNBOUND:                 0.000
REMARK  Name = No_4130-gen_results/8p0m/2024-11-26-14-13-15/
REMARK  0 active torsions:
REMARK  status: ('A' for Active; 'I' for Inactive)
REMARK                            x       y       z     vdW  Elec       q    Type
REMARK                         _______ _______ _______ _____ _____    ______ ____
ROOT
ATOM      1  C   UNL A   1     -25.442  -2.471  30.036  0.00  0.00    +0.019 A 
ATOM      2  C   UNL A   1     -25.807  -1.483  30.028  0.00  0.00    +0.099 A 
ATOM      3  C   UNL A   1     -26.492  -3.485  29.877  0.00  0.00    +0.002 A 
ATOM      4  C   UNL A   1     -26.149  -4.904  29.665  0.00  0.00    +0.000 A 
ATOM      5  C   UNL A   1     -24.946  -5.194  28.982  0.00  0.00    +0.000 A 
ATOM      6  C   UNL A   1     -24.024  -4.149  28.717  0.00  0.00    +0.000 A 
ATOM      7  C   UNL A   1     -24.296  -2.888  29.111  0.00  0.00    +0.003 A 
ATOM      8  N   UNL A   1     -24.826  -0.407  30.231  0.00  0.00    -0.242 NA
ATOM      9  C   UNL A   1     -23.598  -0.596  29.640  0.00  0.00    +0.099 A 
ATOM     10  C   UNL A   1     -23.216  -1.867  29.057  0.00  0.00    +0.021 A 
ENDROOT
TORSDOF 0
ENDMDL
ENDMDL
