REMARK  Name = No_4130-gen_results/8p0m/2024-11-26-14-13-15/
REMARK  0 active torsions:
REMARK  status: ('A' for Active; 'I' for Inactive)
REMARK                            x       y       z     vdW  Elec       q    Type
REMARK                         _______ _______ _______ _____ _____    ______ ____
ROOT
ATOM      1  C   UNL A   1     -28.016  -0.814  28.878  0.00  0.00    +0.019 A 
ATOM      2  C   UNL A   1     -28.469  -0.785  29.829  0.00  0.00    +0.099 A 
ATOM      3  C   UNL A   1     -28.182   0.428  28.113  0.00  0.00    +0.002 A 
ATOM      4  C   UNL A   1     -27.450   0.643  26.850  0.00  0.00    +0.000 A 
ATOM      5  C   UNL A   1     -26.181   0.036  26.715  0.00  0.00    +0.000 A 
ATOM      6  C   UNL A   1     -25.753  -0.910  27.681  0.00  0.00    +0.000 A 
ATOM      7  C   UNL A   1     -26.550  -1.225  28.723  0.00  0.00    +0.003 A 
ATOM      8  N   UNL A   1     -28.392  -2.008  30.642  0.00  0.00    -0.242 NA
ATOM      9  C   UNL A   1     -27.210  -2.708  30.563  0.00  0.00    +0.099 A 
ATOM     10  C   UNL A   1     -26.200  -2.394  29.571  0.00  0.00    +0.021 A 
ENDROOT
TORSDOF 0
