REMARK  Name = No_4131-gen_results/8p0m/2024-11-26-14-13-15/
REMARK  1 active torsions:
REMARK  status: ('A' for Active; 'I' for Inactive)
REMARK    1  A    between atoms: C_2  and  C_13
REMARK                            x       y       z     vdW  Elec       q    Type
REMARK                         _______ _______ _______ _____ _____    ______ ____
ROOT
ATOM      1  C   UNL A   1     -28.016  -0.814  28.878  0.00  0.00    +0.041 A 
ATOM      2  C   UNL A   1     -28.469  -0.785  29.829  0.00  0.00    +0.057 A 
ATOM      3  C   UNL A   1     -26.546  -0.876  28.850  0.00  0.00    +0.139 A 
ATOM      4  C   UNL A   1     -25.804  -1.032  30.057  0.00  0.00    +0.034 A 
ATOM      5  C   UNL A   1     -26.537  -1.039  31.217  0.00  0.00    +0.003 A 
ATOM      6  C   UNL A   1     -27.884  -0.953  31.186  0.00  0.00    +0.005 A 
ATOM      7  C   UNL A   1     -24.366  -1.113  30.048  0.00  0.00    +0.002 A 
ATOM      8  C   UNL A   1     -23.745  -1.369  30.812  0.00  0.00    -0.000 A 
ATOM      9  C   UNL A   1     -22.207  -1.250  30.858  0.00  0.00    -0.000 A 
ATOM     10  C   UNL A   1     -21.686  -0.819  29.653  0.00  0.00    -0.000 A 
ATOM     11  C   UNL A   1     -23.735  -0.611  28.780  0.00  0.00    +0.021 A 
ATOM     12  C   UNL A   1     -22.434  -0.461  28.655  0.00  0.00    -0.001 A 
ATOM     13  O   UNL A   1     -25.941  -0.764  27.684  0.00  0.00    -0.471 OA
ATOM     14  C   UNL A   1     -24.576  -0.496  27.640  0.00  0.00    +0.232 C 
ENDROOT
BRANCH   2  15
ATOM     15  C   UNL A   1     -30.060  -0.670  29.916  0.00  0.00    +0.249 C 
ATOM     16  O   UNL A   1     -30.742  -1.477  30.385  0.00  0.00    -0.270 OA
ATOM     17  N   UNL A   1     -30.549   0.418  29.288  0.00  0.00    -0.276 N 
ATOM     18  C   UNL A   1     -29.831   1.489  28.732  0.00  0.00    +0.094 C 
ATOM     19  C   UNL A   1     -30.025   2.142  27.807  0.00  0.00    +0.022 C 
ATOM     20  C   UNL A   1     -31.230   2.173  27.176  0.00  0.00    +0.004 C 
ATOM     21  C   UNL A   1     -32.153   1.222  27.702  0.00  0.00    +0.022 C 
ATOM     22  C   UNL A   1     -31.776   0.330  28.596  0.00  0.00    +0.094 C 
ENDBRANCH   2  15
TORSDOF 1
