MODEL 4131
MODEL 1
REMARK VINA RESULT:    -7.525      0.000      0.000
REMARK INTER + INTRA:          -8.013
REMARK INTER:                  -7.965
REMARK INTRA:                  -0.048
REMARK UNBOUND:                -0.048
REMARK  Name = No_4131-gen_results/8p0m/2024-11-26-14-13-15/
REMARK  1 active torsions:
REMARK  status: ('A' for Active; 'I' for Inactive)
REMARK    1  A    between atoms: C_2  and  C_13
REMARK                            x       y       z     vdW  Elec       q    Type
REMARK                         _______ _______ _______ _____ _____    ______ ____
ROOT
ATOM      1  C   UNL A   1     -25.650   2.296  25.719  0.00  0.00    +0.041 A 
ATOM      2  C   UNL A   1     -24.825   1.667  25.535  0.00  0.00    +0.057 A 
ATOM      3  C   UNL A   1     -26.963   1.810  25.267  0.00  0.00    +0.139 A 
ATOM      4  C   UNL A   1     -27.107   0.494  24.740  0.00  0.00    +0.034 A 
ATOM      5  C   UNL A   1     -25.950  -0.234  24.616  0.00  0.00    +0.003 A 
ATOM      6  C   UNL A   1     -24.767   0.272  25.023  0.00  0.00    +0.005 A 
ATOM      7  C   UNL A   1     -28.388  -0.006  24.310  0.00  0.00    +0.002 A 
ATOM      8  C   UNL A   1     -28.640  -0.960  24.061  0.00  0.00    -0.000 A 
ATOM      9  C   UNL A   1     -29.947  -1.448  23.402  0.00  0.00    -0.000 A 
ATOM     10  C   UNL A   1     -30.861  -0.424  23.245  0.00  0.00    -0.000 A 
ATOM     11  C   UNL A   1     -29.413   1.067  24.073  0.00  0.00    +0.021 A 
ATOM     12  C   UNL A   1     -30.582   0.812  23.527  0.00  0.00    -0.001 A 
ATOM     13  O   UNL A   1     -27.992   2.632  25.347  0.00  0.00    -0.471 OA
ATOM     14  C   UNL A   1     -29.160   2.342  24.648  0.00  0.00    +0.232 C 
ENDROOT
BRANCH   2  15
ATOM     15  C   UNL A   1     -23.370   2.167  25.963  0.00  0.00    +0.249 C 
ATOM     16  O   UNL A   1     -22.698   2.840  25.305  0.00  0.00    -0.270 OA
ATOM     17  N   UNL A   1     -22.948   1.638  27.129  0.00  0.00    -0.276 N 
ATOM     18  C   UNL A   1     -23.681   0.859  28.038  0.00  0.00    +0.094 C 
ATOM     19  C   UNL A   1     -23.374  -0.012  28.721  0.00  0.00    +0.022 C 
ATOM     20  C   UNL A   1     -22.072  -0.302  28.993  0.00  0.00    +0.004 C 
ATOM     21  C   UNL A   1     -21.161   0.497  28.242  0.00  0.00    +0.022 C 
ATOM     22  C   UNL A   1     -21.586   1.302  27.289  0.00  0.00    +0.094 C 
ENDBRANCH   2  15
TORSDOF 1
ENDMDL
ENDMDL
