MODEL 4132
MODEL 1
REMARK VINA RESULT:    -7.645      0.000      0.000
REMARK INTER + INTRA:          -6.660
REMARK INTER:                  -8.092
REMARK INTRA:                   1.432
REMARK UNBOUND:                 1.432
REMARK  Name = No_4132-gen_results/8p0m/2024-11-26-14-13-15/
REMARK  1 active torsions:
REMARK  status: ('A' for Active; 'I' for Inactive)
REMARK    1  A    between atoms: C_7  and  C_16
REMARK                            x       y       z     vdW  Elec       q    Type
REMARK                         _______ _______ _______ _____ _____    ______ ____
ROOT
ATOM      1  C   UNL A   1     -11.099   0.746  36.284  0.00  0.00    +0.098 C 
ATOM      2  C   UNL A   1     -11.656   1.179  37.266  0.00  0.00    +0.033 C 
ATOM      3  C   UNL A   1     -12.558   2.242  37.236  0.00  0.00    +0.026 C 
ATOM      4  C   UNL A   1     -13.271   2.840  38.382  0.00  0.00    -0.020 A 
ATOM      5  C   UNL A   1     -13.177   2.123  39.614  0.00  0.00    +0.031 A 
ATOM      6  C   UNL A   1     -12.318   1.022  39.677  0.00  0.00    +0.174 C 
ATOM      7  C   UNL A   1     -11.622   0.564  38.612  0.00  0.00    +0.085 C 
ATOM      8  N   UNL A   1     -11.063   1.540  35.120  0.00  0.00    -0.243 N 
ATOM      9  C   UNL A   1     -14.122   2.721  40.506  0.00  0.00    +0.003 A 
ATOM     10  C   UNL A   1     -14.897   3.857  40.263  0.00  0.00    +0.000 A 
ATOM     11  C   UNL A   1     -14.879   4.459  39.052  0.00  0.00    -0.000 A 
ATOM     12  C   UNL A   1     -14.114   3.948  38.031  0.00  0.00    -0.004 A 
ATOM     13  C   UNL A   1     -12.726   3.035  36.055  0.00  0.00    +0.026 C 
ATOM     14  C   UNL A   1     -10.276   1.259  33.931  0.00  0.00    +0.447 C 
ATOM     15  C   UNL A   1     -11.860   2.700  34.916  0.00  0.00    +0.097 C 
ATOM     16  O   UNL A   1     -10.780   1.152  32.873  0.00  0.00    -0.222 OA
ATOM     17  O   UNL A   1      -8.997   1.329  34.063  0.00  0.00    -0.222 OA
ATOM     18  O   UNL A   1     -11.925   0.697  40.921  0.00  0.00    -0.291 OA
ENDROOT
BRANCH   7  19
ATOM     19  C   UNL A   1     -10.763  -0.623  38.773  0.00  0.00    +0.111 C 
ATOM     20 CL   UNL A   1      -9.304  -0.450  39.306  0.00  0.00    -0.107 Cl
ATOM     21  C   UNL A   1     -10.787  -1.503  37.518  0.00  0.00    -0.007 C 
ATOM     22  C   UNL A   1     -11.675  -2.574  37.573  0.00  0.00    -0.003 C 
ATOM     23  C   UNL A   1     -11.420  -1.535  39.857  0.00  0.00    -0.007 C 
ATOM     24  C   UNL A   1     -12.217  -2.547  39.124  0.00  0.00    -0.003 C 
ENDBRANCH   7  19
TORSDOF 1
ENDMDL
ENDMDL
