REMARK  Name = No_4132-gen_results/8p0m/2024-11-26-14-13-15/
REMARK  1 active torsions:
REMARK  status: ('A' for Active; 'I' for Inactive)
REMARK    1  A    between atoms: C_7  and  C_16
REMARK                            x       y       z     vdW  Elec       q    Type
REMARK                         _______ _______ _______ _____ _____    ______ ____
ROOT
ATOM      1  C   UNL A   1     -28.016  -0.814  28.878  0.00  0.00    +0.098 C 
ATOM      2  C   UNL A   1     -27.064  -0.119  28.608  0.00  0.00    +0.033 C 
ATOM      3  C   UNL A   1     -25.765  -0.390  29.036  0.00  0.00    +0.026 C 
ATOM      4  C   UNL A   1     -24.552   0.406  28.765  0.00  0.00    -0.020 A 
ATOM      5  C   UNL A   1     -24.696   1.448  27.799  0.00  0.00    +0.031 A 
ATOM      6  C   UNL A   1     -25.976   1.725  27.308  0.00  0.00    +0.174 C 
ATOM      7  C   UNL A   1     -27.072   1.013  27.654  0.00  0.00    +0.085 C 
ATOM      8  N   UNL A   1     -27.907  -1.729  29.944  0.00  0.00    -0.243 N 
ATOM      9  C   UNL A   1     -23.377   1.918  27.507  0.00  0.00    +0.003 A 
ATOM     10  C   UNL A   1     -22.192   1.522  28.130  0.00  0.00    +0.000 A 
ATOM     11  C   UNL A   1     -22.194   0.531  29.050  0.00  0.00    -0.000 A 
ATOM     12  C   UNL A   1     -23.361  -0.120  29.371  0.00  0.00    -0.004 A 
ATOM     13  C   UNL A   1     -25.505  -1.408  30.009  0.00  0.00    +0.026 C 
ATOM     14  C   UNL A   1     -29.004  -2.488  30.520  0.00  0.00    +0.447 C 
ATOM     15  C   UNL A   1     -26.680  -2.097  30.562  0.00  0.00    +0.097 C 
ATOM     16  O   UNL A   1     -28.978  -3.664  30.567  0.00  0.00    -0.222 OA
ATOM     17  O   UNL A   1     -29.902  -1.810  31.145  0.00  0.00    -0.222 OA
ATOM     18  O   UNL A   1     -26.116   2.960  26.796  0.00  0.00    -0.291 OA
ENDROOT
BRANCH   7  19
ATOM     19  C   UNL A   1     -28.373   1.366  27.060  0.00  0.00    +0.111 C 
ATOM     20 CL   UNL A   1     -29.540   1.838  27.986  0.00  0.00    -0.107 Cl
ATOM     21  C   UNL A   1     -28.852   0.284  26.085  0.00  0.00    -0.007 C 
ATOM     22  C   UNL A   1     -28.569   0.538  24.745  0.00  0.00    -0.003 C 
ATOM     23  C   UNL A   1     -28.147   2.602  26.133  0.00  0.00    -0.007 C 
ATOM     24  C   UNL A   1     -27.971   2.069  24.761  0.00  0.00    -0.003 C 
ENDBRANCH   7  19
TORSDOF 1
