MODEL 4133
MODEL 1
REMARK VINA RESULT:    -6.043      0.000      0.000
REMARK INTER + INTRA:          -9.027
REMARK INTER:                  -7.810
REMARK INTRA:                  -1.217
REMARK UNBOUND:                -1.217
REMARK  Name = No_4133-gen_results/8p0m/2024-11-26-14-13-15/
REMARK  5 active torsions:
REMARK  status: ('A' for Active; 'I' for Inactive)
REMARK    1  A    between atoms: C_3  and  C_4
REMARK    2  A    between atoms: C_4  and  C_5
REMARK    3  A    between atoms: C_4  and  C_9
REMARK    4  A    between atoms: C_9  and  C_10
REMARK    5  A    between atoms: C_9  and  C_11
REMARK                            x       y       z     vdW  Elec       q    Type
REMARK                         _______ _______ _______ _____ _____    ______ ____
ROOT
ATOM      1  C   UNL A   1     -24.445  -1.187  29.202  0.00  0.00    +0.121 C 
ENDROOT
BRANCH   1   4
ATOM      2  C   UNL A   1     -26.241  -4.291  29.751  0.00  0.00    -0.000 A 
ATOM      3  C   UNL A   1     -25.908  -3.129  29.721  0.00  0.00    -0.004 A 
ATOM      4  C   UNL A   1     -24.816  -2.624  29.224  0.00  0.00    -0.014 A 
ATOM      5  C   UNL A   1     -25.365  -5.290  29.109  0.00  0.00    -0.000 A 
ATOM      6  C   UNL A   1     -24.180  -4.883  28.602  0.00  0.00    -0.000 A 
ATOM      7  C   UNL A   1     -23.834  -3.467  28.593  0.00  0.00    -0.004 A 
ENDBRANCH   1   4
BRANCH   1   8
ATOM      8  C   UNL A   1     -24.905  -0.240  28.278  0.00  0.00    +0.401 C 
ATOM      9  F   UNL A   1     -25.085   0.893  28.827  0.00  0.00    -0.170 F 
ATOM     10  F   UNL A   1     -24.158  -0.173  27.205  0.00  0.00    -0.170 F 
ATOM     11  F   UNL A   1     -26.119  -0.718  27.759  0.00  0.00    -0.170 F 
ENDBRANCH   1   8
BRANCH   1  12
ATOM     12  C   UNL A   1     -23.443  -0.737  30.151  0.00  0.00    +0.034 C 
BRANCH  12  13
ATOM     13  C   UNL A   1     -22.461  -0.073  29.973  0.00  0.00    +0.005 C 
ATOM     14  C   UNL A   1     -21.397  -0.629  28.982  0.00  0.00    +0.000 C 
ENDBRANCH  12  13
BRANCH  12  15
ATOM     15  C   UNL A   1     -23.981  -0.698  31.490  0.00  0.00    -0.026 C 
ATOM     16  C   UNL A   1     -23.091  -1.217  32.524  0.00  0.00    -0.005 C 
ENDBRANCH  12  15
ENDBRANCH   1  12
TORSDOF 5
ENDMDL
ENDMDL
