REMARK  Name = No_4133-gen_results/8p0m/2024-11-26-14-13-15/
REMARK  5 active torsions:
REMARK  status: ('A' for Active; 'I' for Inactive)
REMARK    1  A    between atoms: C_3  and  C_4
REMARK    2  A    between atoms: C_4  and  C_5
REMARK    3  A    between atoms: C_4  and  C_9
REMARK    4  A    between atoms: C_9  and  C_10
REMARK    5  A    between atoms: C_9  and  C_11
REMARK                            x       y       z     vdW  Elec       q    Type
REMARK                         _______ _______ _______ _____ _____    ______ ____
ROOT
ATOM      1  C   UNL A   1     -25.688   1.952  28.567  0.00  0.00    +0.121 C 
ENDROOT
BRANCH   1   4
ATOM      2  C   UNL A   1     -28.016  -0.814  28.878  0.00  0.00    -0.000 A 
ATOM      3  C   UNL A   1     -27.064  -0.119  28.608  0.00  0.00    -0.004 A 
ATOM      4  C   UNL A   1     -26.876   1.133  28.913  0.00  0.00    -0.014 A 
ATOM      5  C   UNL A   1     -29.097  -0.235  29.699  0.00  0.00    -0.000 A 
ATOM      6  C   UNL A   1     -29.030   1.073  30.032  0.00  0.00    -0.000 A 
ATOM      7  C   UNL A   1     -27.855   1.859  29.680  0.00  0.00    -0.004 A 
ENDBRANCH   1   4
BRANCH   1   8
ATOM      8  C   UNL A   1     -25.509   3.304  28.886  0.00  0.00    +0.401 C 
ATOM      9  F   UNL A   1     -25.182   3.982  27.861  0.00  0.00    -0.170 F 
ATOM     10  F   UNL A   1     -26.529   3.813  29.529  0.00  0.00    -0.170 F 
ATOM     11  F   UNL A   1     -24.491   3.375  29.851  0.00  0.00    -0.170 F 
ENDBRANCH   1   8
BRANCH   1  12
ATOM     12  C   UNL A   1     -24.665   1.337  27.741  0.00  0.00    +0.034 C 
BRANCH  12  13
ATOM     13  C   UNL A   1     -24.151   0.258  27.833  0.00  0.00    +0.005 C 
ATOM     14  C   UNL A   1     -24.082  -0.378  29.252  0.00  0.00    +0.000 C 
ENDBRANCH  12  13
BRANCH  12  15
ATOM     15  C   UNL A   1     -24.650   1.918  26.419  0.00  0.00    -0.026 C 
ATOM     16  C   UNL A   1     -23.690   1.320  25.497  0.00  0.00    -0.005 C 
ENDBRANCH  12  15
ENDBRANCH   1  12
TORSDOF 5
