MODEL 4134
MODEL 1
REMARK VINA RESULT:    -6.482      0.000      0.000
REMARK INTER + INTRA:          -7.631
REMARK INTER:                  -7.619
REMARK INTRA:                  -0.012
REMARK UNBOUND:                -0.012
REMARK  Name = No_4134-gen_results/8p0m/2024-11-26-14-13-15/
REMARK  3 active torsions:
REMARK  status: ('A' for Active; 'I' for Inactive)
REMARK    1  A    between atoms: C_5  and  C_17
REMARK    2  A    between atoms: N_14  and  C_15
REMARK    3  A    between atoms: C_15  and  C_21
REMARK                            x       y       z     vdW  Elec       q    Type
REMARK                         _______ _______ _______ _____ _____    ______ ____
ROOT
ATOM      1  C   UNL A   1     -13.066   2.414  38.391  0.00  0.00    +0.018 A 
ATOM      2  C   UNL A   1     -12.323   2.277  37.446  0.00  0.00    +0.063 A 
ATOM      3  C   UNL A   1     -12.683   2.443  36.119  0.00  0.00    +0.055 A 
ATOM      4  C   UNL A   1     -14.028   2.836  35.856  0.00  0.00    +0.011 A 
ATOM      5  C   UNL A   1     -14.785   3.135  36.924  0.00  0.00    +0.080 A 
ATOM      6  C   UNL A   1     -14.347   2.991  38.141  0.00  0.00    +0.008 A 
ATOM      7  C   UNL A   1     -11.759   2.124  34.972  0.00  0.00    +0.198 A 
ATOM      8  C   UNL A   1     -10.758   1.294  35.310  0.00  0.00    +0.055 A 
ATOM      9  C   UNL A   1      -9.695   1.043  34.330  0.00  0.00    +0.005 A 
ATOM     10  C   UNL A   1      -8.510   0.323  34.717  0.00  0.00    +0.000 A 
ATOM     11  C   UNL A   1      -8.546  -0.254  35.932  0.00  0.00    +0.002 A 
ATOM     12  C   UNL A   1      -9.539  -0.138  36.864  0.00  0.00    +0.017 A 
ATOM     13  C   UNL A   1     -10.624   0.655  36.540  0.00  0.00    +0.063 A 
ATOM     14  N   UNL A   1     -11.220   1.338  37.638  0.00  0.00    -0.323 N 
ATOM     15  O   UNL A   1     -12.038   2.532  33.822  0.00  0.00    -0.286 OA
ENDROOT
BRANCH   5  16
ATOM     16  C   UNL A   1     -16.113   3.714  36.660  0.00  0.00    +0.388 C 
ATOM     17  O   UNL A   1     -16.841   4.030  37.578  0.00  0.00    -0.241 OA
ATOM     18  O   UNL A   1     -16.598   3.800  35.455  0.00  0.00    -0.241 OA
ENDBRANCH   5  16
BRANCH  14  19
ATOM     19  C   UNL A   1     -10.840   0.993  38.966  0.00  0.00    +0.152 C 
ATOM     20  C   UNL A   1     -10.144   1.955  39.667  0.00  0.00    +0.030 C 
BRANCH  19  21
ATOM     21  C   UNL A   1     -11.408  -0.167  39.513  0.00  0.00    +0.339 C 
ATOM     22  F   UNL A   1     -12.226  -0.853  38.740  0.00  0.00    -0.196 F 
ATOM     23  F   UNL A   1     -12.257   0.233  40.567  0.00  0.00    -0.196 F 
ENDBRANCH  19  21
ENDBRANCH  14  19
TORSDOF 3
ENDMDL
ENDMDL
