REMARK  Name = No_4135-gen_results/8p0m/2024-11-26-14-13-15/
REMARK  8 active torsions:
REMARK  status: ('A' for Active; 'I' for Inactive)
REMARK    1  A    between atoms: C_1  and  C_2
REMARK    2  A    between atoms: C_1  and  N_8
REMARK    3  A    between atoms: C_5  and  C_12
REMARK    4  A    between atoms: C_7  and  C_15
REMARK    5  A    between atoms: N_8  and  C_9
REMARK    6  A    between atoms: C_9  and  C_10
REMARK    7  A    between atoms: C_10  and  O_11
REMARK    8  A    between atoms: O_11  and  C_18
REMARK                            x       y       z     vdW  Elec       q    Type
REMARK                         _______ _______ _______ _____ _____    ______ ____
ROOT
ATOM      1  C   UNL A   1     -27.064  -0.119  28.608  0.00  0.00    +0.002 A 
ATOM      2  C   UNL A   1     -25.792  -0.430  29.076  0.00  0.00    -0.003 A 
ATOM      3  C   UNL A   1     -24.546   0.349  28.823  0.00  0.00    +0.006 A 
ATOM      4  C   UNL A   1     -24.659   1.420  27.888  0.00  0.00    +0.080 A 
ATOM      5  C   UNL A   1     -25.947   1.681  27.379  0.00  0.00    +0.013 A 
ATOM      6  C   UNL A   1     -27.044   0.974  27.687  0.00  0.00    +0.077 A 
ENDROOT
BRANCH   4   7
ATOM      7  C   UNL A   1     -23.671   2.382  27.787  0.00  0.00    +0.388 C 
ATOM      8  O   UNL A   1     -22.724   2.349  28.605  0.00  0.00    -0.241 OA
ATOM      9  O   UNL A   1     -23.378   2.862  26.577  0.00  0.00    -0.241 OA
ENDBRANCH   4   7
BRANCH   6  10
ATOM     10  C   UNL A   1     -28.340   1.240  27.040  0.00  0.00    +0.388 C 
ATOM     11  O   UNL A   1     -28.656   0.937  25.956  0.00  0.00    -0.241 OA
ATOM     12  O   UNL A   1     -29.200   1.958  27.830  0.00  0.00    -0.241 OA
ENDBRANCH   6  10
BRANCH   1  13
ATOM     13  C   UNL A   1     -28.016  -0.814  28.878  0.00  0.00    +0.115 C 
BRANCH  13  14
ATOM     14  N   UNL A   1     -28.664  -0.527  30.102  0.00  0.00    -0.209 NA
BRANCH  14  15
ATOM     15  C   UNL A   1     -29.615  -1.247  30.654  0.00  0.00    +0.136 C 
BRANCH  15  16
ATOM     16  C   UNL A   1     -30.134  -2.284  30.019  0.00  0.00    +0.224 C 
BRANCH  16  17
ATOM     17  O   UNL A   1     -30.838  -3.113  30.795  0.00  0.00    -0.471 OA
BRANCH  17  18
ATOM     18  C   UNL A   1     -31.186  -4.240  30.352  0.00  0.00    +0.168 C 
ATOM     19  C   UNL A   1     -32.304  -4.762  30.691  0.00  0.00    +0.014 C 
ATOM     20  C   UNL A   1     -33.172  -4.353  31.217  0.00  0.00    +0.034 C 
ENDBRANCH  17  18
ENDBRANCH  16  17
ENDBRANCH  15  16
ENDBRANCH  14  15
ENDBRANCH  13  14
ENDBRANCH   1  13
TORSDOF 8
