MODEL 4135
MODEL 1
REMARK VINA RESULT:    -5.558      0.000      0.000
REMARK INTER + INTRA:          -8.668
REMARK INTER:                  -8.158
REMARK INTRA:                  -0.511
REMARK UNBOUND:                -0.511
REMARK  Name = No_4135-gen_results/8p0m/2024-11-26-14-13-15/
REMARK  8 active torsions:
REMARK  status: ('A' for Active; 'I' for Inactive)
REMARK    1  A    between atoms: C_1  and  C_2
REMARK    2  A    between atoms: C_1  and  N_8
REMARK    3  A    between atoms: C_5  and  C_12
REMARK    4  A    between atoms: C_7  and  C_15
REMARK    5  A    between atoms: N_8  and  C_9
REMARK    6  A    between atoms: C_9  and  C_10
REMARK    7  A    between atoms: C_10  and  O_11
REMARK    8  A    between atoms: O_11  and  C_18
REMARK                            x       y       z     vdW  Elec       q    Type
REMARK                         _______ _______ _______ _____ _____    ______ ____
ROOT
ATOM      1  C   UNL A   1     -19.616 -20.014   6.184  0.00  0.00    +0.002 A 
ATOM      2  C   UNL A   1     -18.236 -20.007   6.016  0.00  0.00    -0.003 A 
ATOM      3  C   UNL A   1     -17.250 -20.807   6.798  0.00  0.00    +0.006 A 
ATOM      4  C   UNL A   1     -17.772 -21.520   7.916  0.00  0.00    +0.080 A 
ATOM      5  C   UNL A   1     -19.168 -21.466   8.105  0.00  0.00    +0.013 A 
ATOM      6  C   UNL A   1     -20.013 -20.768   7.332  0.00  0.00    +0.077 A 
ENDROOT
BRANCH   4   7
ATOM      7  C   UNL A   1     -17.032 -22.510   8.536  0.00  0.00    +0.388 C 
ATOM      8  O   UNL A   1     -16.198 -23.145   7.851  0.00  0.00    -0.241 OA
ATOM      9  O   UNL A   1     -16.730 -22.359   9.827  0.00  0.00    -0.241 OA
ENDBRANCH   4   7
BRANCH   6  10
ATOM     10  C   UNL A   1     -21.448 -20.676   7.647  0.00  0.00    +0.388 C 
ATOM     11  O   UNL A   1     -21.966 -19.876   8.325  0.00  0.00    -0.241 OA
ATOM     12  O   UNL A   1     -22.189 -21.687   7.092  0.00  0.00    -0.241 OA
ENDBRANCH   6  10
BRANCH   1  13
ATOM     13  C   UNL A   1     -20.334 -19.333   5.489  0.00  0.00    +0.115 C 
BRANCH  13  14
ATOM     14  N   UNL A   1     -20.263 -17.937   5.709  0.00  0.00    -0.209 NA
BRANCH  14  15
ATOM     15  C   UNL A   1     -21.214 -17.193   6.228  0.00  0.00    +0.136 C 
BRANCH  15  16
ATOM     16  C   UNL A   1     -22.172 -16.691   5.467  0.00  0.00    +0.224 C 
BRANCH  16  17
ATOM     17  O   UNL A   1     -21.949 -15.442   5.048  0.00  0.00    -0.471 OA
BRANCH  17  18
ATOM     18  C   UNL A   1     -22.733 -14.518   5.395  0.00  0.00    +0.168 C 
ATOM     19  C   UNL A   1     -22.436 -13.292   5.181  0.00  0.00    +0.014 C 
ATOM     20  C   UNL A   1     -21.648 -12.824   4.584  0.00  0.00    +0.034 C 
ENDBRANCH  17  18
ENDBRANCH  16  17
ENDBRANCH  15  16
ENDBRANCH  14  15
ENDBRANCH  13  14
ENDBRANCH   1  13
TORSDOF 8
ENDMDL
ENDMDL
