REMARK  Name = No_4136-gen_results/8p0m/2024-11-26-14-13-15/
REMARK  4 active torsions:
REMARK  status: ('A' for Active; 'I' for Inactive)
REMARK    1  A    between atoms: C_2  and  C_7
REMARK    2  A    between atoms: C_3  and  C_16
REMARK    3  A    between atoms: N_9  and  C_10
REMARK    4  A    between atoms: C_16  and  C_17
REMARK                            x       y       z     vdW  Elec       q    Type
REMARK                         _______ _______ _______ _____ _____    ______ ____
ROOT
ATOM      1  C   UNL A   1     -28.016  -0.814  28.878  0.00  0.00    +0.001 A 
ATOM      2  C   UNL A   1     -28.469  -0.785  29.829  0.00  0.00    +0.055 A 
ATOM      3  C   UNL A   1     -26.504  -0.778  28.877  0.00  0.00    -0.018 A 
ATOM      4  C   UNL A   1     -25.810  -0.853  30.103  0.00  0.00    -0.004 A 
ATOM      5  C   UNL A   1     -27.991  -0.892  31.226  0.00  0.00    +0.005 A 
ATOM      6  C   UNL A   1     -26.604  -0.868  31.265  0.00  0.00    -0.000 A 
ENDROOT
BRANCH   2   7
ATOM      7  C   UNL A   1     -30.074  -0.836  29.861  0.00  0.00    +0.269 C 
ATOM      8  O   UNL A   1     -30.689  -1.655  30.223  0.00  0.00    -0.268 OA
ATOM      9  N   UNL A   1     -30.602   0.433  29.598  0.00  0.00    -0.175 NA
BRANCH   9  10
ATOM     10  C   UNL A   1     -29.909   1.593  29.246  0.00  0.00    +0.074 A 
ATOM     11  C   UNL A   1     -29.988   2.244  28.267  0.00  0.00    +0.017 A 
ATOM     12  C   UNL A   1     -29.230   3.478  27.953  0.00  0.00    +0.001 A 
ATOM     13  C   UNL A   1     -28.344   3.655  28.498  0.00  0.00    +0.000 A 
ATOM     14  C   UNL A   1     -28.679   1.899  30.005  0.00  0.00    +0.017 A 
ATOM     15  C   UNL A   1     -27.952   3.046  29.737  0.00  0.00    +0.001 A 
ENDBRANCH   9  10
ENDBRANCH   2   7
BRANCH   3  16
ATOM     16  C   UNL A   1     -25.680  -0.662  27.661  0.00  0.00    +0.053 C 
BRANCH  16  17
ATOM     17  C   UNL A   1     -25.327   0.692  27.321  0.00  0.00    -0.018 A 
ATOM     18  C   UNL A   1     -25.453   1.103  26.028  0.00  0.00    -0.004 A 
ATOM     19  C   UNL A   1     -25.084   2.453  25.760  0.00  0.00    -0.000 A 
ATOM     20  C   UNL A   1     -24.329   3.248  26.669  0.00  0.00    -0.000 A 
ATOM     21  C   UNL A   1     -24.643   1.525  28.258  0.00  0.00    -0.004 A 
ATOM     22  C   UNL A   1     -24.220   2.812  27.936  0.00  0.00    -0.000 A 
ENDBRANCH  16  17
ENDBRANCH   3  16
TORSDOF 4
