MODEL 4136
MODEL 1
REMARK VINA RESULT:    -7.449      0.000      0.000
REMARK INTER + INTRA:         -10.018
REMARK INTER:                  -9.191
REMARK INTRA:                  -0.827
REMARK UNBOUND:                -0.827
REMARK  Name = No_4136-gen_results/8p0m/2024-11-26-14-13-15/
REMARK  4 active torsions:
REMARK  status: ('A' for Active; 'I' for Inactive)
REMARK    1  A    between atoms: C_2  and  C_7
REMARK    2  A    between atoms: C_3  and  C_16
REMARK    3  A    between atoms: N_9  and  C_10
REMARK    4  A    between atoms: C_16  and  C_17
REMARK                            x       y       z     vdW  Elec       q    Type
REMARK                         _______ _______ _______ _____ _____    ______ ____
ROOT
ATOM      1  C   UNL A   1     -24.837  -0.074  27.558  0.00  0.00    +0.001 A 
ATOM      2  C   UNL A   1     -24.290   0.478  26.846  0.00  0.00    +0.055 A 
ATOM      3  C   UNL A   1     -24.153  -0.270  28.893  0.00  0.00    -0.018 A 
ATOM      4  C   UNL A   1     -22.936   0.394  29.150  0.00  0.00    -0.004 A 
ATOM      5  C   UNL A   1     -23.050   1.287  26.868  0.00  0.00    +0.005 A 
ATOM      6  C   UNL A   1     -22.397   1.137  28.083  0.00  0.00    -0.000 A 
ENDROOT
BRANCH   2   7
ATOM      7  C   UNL A   1     -24.998   0.715  25.424  0.00  0.00    +0.269 C 
ATOM      8  O   UNL A   1     -25.085  -0.006  24.616  0.00  0.00    -0.268 OA
ATOM      9  N   UNL A   1     -25.732   1.906  25.443  0.00  0.00    -0.175 NA
BRANCH   9  10
ATOM     10  C   UNL A   1     -25.803   2.853  26.467  0.00  0.00    +0.074 A 
ATOM     11  C   UNL A   1     -26.602   2.970  27.324  0.00  0.00    +0.017 A 
ATOM     12  C   UNL A   1     -26.618   3.994  28.395  0.00  0.00    +0.001 A 
ATOM     13  C   UNL A   1     -26.046   4.867  28.240  0.00  0.00    +0.000 A 
ATOM     14  C   UNL A   1     -24.992   4.077  26.308  0.00  0.00    +0.017 A 
ATOM     15  C   UNL A   1     -24.983   5.050  27.293  0.00  0.00    +0.001 A 
ENDBRANCH   9  10
ENDBRANCH   2   7
BRANCH   3  16
ATOM     16  C   UNL A   1     -24.674  -1.130  29.970  0.00  0.00    +0.053 C 
BRANCH  16  17
ATOM     17  C   UNL A   1     -24.898  -2.496  29.572  0.00  0.00    -0.018 A 
ATOM     18  C   UNL A   1     -26.008  -3.143  30.025  0.00  0.00    -0.004 A 
ATOM     19  C   UNL A   1     -26.167  -4.492  29.595  0.00  0.00    -0.000 A 
ATOM     20  C   UNL A   1     -25.113  -5.251  29.011  0.00  0.00    -0.000 A 
ATOM     21  C   UNL A   1     -23.874  -3.239  28.910  0.00  0.00    -0.004 A 
ATOM     22  C   UNL A   1     -24.029  -4.583  28.579  0.00  0.00    -0.000 A 
ENDBRANCH  16  17
ENDBRANCH   3  16
TORSDOF 4
ENDMDL
ENDMDL
