MODEL 4137
MODEL 1
REMARK VINA RESULT:    -5.814      0.000      0.000
REMARK INTER + INTRA:          -5.814
REMARK INTER:                  -5.814
REMARK INTRA:                   0.000
REMARK UNBOUND:                 0.000
REMARK  Name = No_4137-gen_results/8p0m/2024-11-26-14-13-15/
REMARK  0 active torsions:
REMARK  status: ('A' for Active; 'I' for Inactive)
REMARK                            x       y       z     vdW  Elec       q    Type
REMARK                         _______ _______ _______ _____ _____    ______ ____
ROOT
ATOM      1  C   UNL A   1     -25.536  -1.233  30.327  0.00  0.00    -0.000 A 
ATOM      2  C   UNL A   1     -24.746  -0.569  30.114  0.00  0.00    -0.004 A 
ATOM      3  C   UNL A   1     -25.487  -2.522  29.753  0.00  0.00    -0.000 A 
ATOM      4  C   UNL A   1     -26.459  -3.610  30.038  0.00  0.00    -0.000 A 
ATOM      5  C   UNL A   1     -23.543  -0.726  29.278  0.00  0.00    -0.022 A 
ATOM      6  C   UNL A   1     -22.542   0.246  29.014  0.00  0.00    +0.031 C 
ATOM      7  C   UNL A   1     -26.199  -4.874  29.664  0.00  0.00    -0.000 A 
ATOM      8  C   UNL A   1     -25.028  -5.243  28.992  0.00  0.00    -0.000 A 
ATOM      9  C   UNL A   1     -24.094  -4.298  28.782  0.00  0.00    -0.000 A 
ATOM     10  C   UNL A   1     -24.244  -3.035  29.202  0.00  0.00    -0.000 A 
ATOM     11  C   UNL A   1     -23.342  -2.060  28.921  0.00  0.00    -0.004 A 
ENDROOT
TORSDOF 0
ENDMDL
ENDMDL
