MODEL 4138
MODEL 1
REMARK VINA RESULT:    -7.238      0.000      0.000
REMARK INTER + INTRA:          -9.569
REMARK INTER:                  -8.507
REMARK INTRA:                  -1.061
REMARK UNBOUND:                -1.061
REMARK  Name = No_4138-gen_results/8p0m/2024-11-26-14-13-15/
REMARK  3 active torsions:
REMARK  status: ('A' for Active; 'I' for Inactive)
REMARK    1  A    between atoms: C_4  and  C_13
REMARK    2  A    between atoms: C_13  and  C_14
REMARK    3  A    between atoms: C_14  and  C_16
REMARK                            x       y       z     vdW  Elec       q    Type
REMARK                         _______ _______ _______ _____ _____    ______ ____
ROOT
ATOM      1  C   UNL A   1     -13.153   2.537  36.165  0.00  0.00    +0.068 C 
ATOM      2  C   UNL A   1     -14.099   2.660  36.612  0.00  0.00    +0.031 C 
ATOM      3  C   UNL A   1     -12.204   1.748  36.898  0.00  0.00    +0.150 C 
ATOM      4  C   UNL A   1     -10.925   1.335  36.285  0.00  0.00    +0.058 C 
ATOM      5  C   UNL A   1     -10.863   1.152  34.891  0.00  0.00    +0.008 C 
ATOM      6  C   UNL A   1     -11.961   1.548  34.101  0.00  0.00    +0.010 C 
ATOM      7  C   UNL A   1     -13.063   2.074  34.667  0.00  0.00    +0.085 C 
ATOM      8  C   UNL A   1     -15.181   3.513  35.900  0.00  0.00    +0.116 C 
ATOM      9  N   UNL A   1     -15.160   3.397  34.533  0.00  0.00    -0.205 NA
ATOM     10  C   UNL A   1     -14.041   2.865  33.848  0.00  0.00    +0.241 C 
ATOM     11  O   UNL A   1     -14.104   2.675  32.613  0.00  0.00    -0.273 OA
ATOM     12  O   UNL A   1     -12.072   1.910  38.208  0.00  0.00    -0.296 OA
ENDROOT
BRANCH   4  13
ATOM     13  C   UNL A   1      -9.803   0.815  37.039  0.00  0.00    +0.011 C 
ATOM     14  C   UNL A   1      -8.770   1.669  37.455  0.00  0.00    +0.001 C 
BRANCH  13  15
ATOM     15  C   UNL A   1      -9.732  -0.566  37.233  0.00  0.00    +0.027 C 
BRANCH  15  16
ATOM     16  C   UNL A   1     -10.475  -1.078  38.106  0.00  0.00    -0.022 A 
ATOM     17  C   UNL A   1     -10.431  -0.943  39.436  0.00  0.00    -0.004 A 
ATOM     18  C   UNL A   1     -10.917  -1.361  40.238  0.00  0.00    -0.000 A 
ATOM     19  C   UNL A   1     -11.946  -2.431  39.900  0.00  0.00    -0.000 A 
ATOM     20  C   UNL A   1     -12.207  -2.640  38.626  0.00  0.00    -0.000 A 
ATOM     21  C   UNL A   1     -11.472  -2.093  37.665  0.00  0.00    -0.004 A 
ENDBRANCH  15  16
ENDBRANCH  13  15
ENDBRANCH   4  13
TORSDOF 3
ENDMDL
ENDMDL
