MODEL 4139
MODEL 1
REMARK VINA RESULT:    -8.047      0.000      0.000
REMARK INTER + INTRA:         -11.890
REMARK INTER:                 -11.340
REMARK INTRA:                  -0.550
REMARK UNBOUND:                -0.550
REMARK  Name = No_4139-gen_results/8p0m/2024-11-26-14-13-15/
REMARK  7 active torsions:
REMARK  status: ('A' for Active; 'I' for Inactive)
REMARK    1  A    between atoms: C_3  and  O_26
REMARK    2  A    between atoms: N_4  and  C_8
REMARK    3  A    between atoms: C_13  and  C_15
REMARK    4  A    between atoms: C_15  and  N_16
REMARK    5  A    between atoms: N_16  and  C_17
REMARK    6  A    between atoms: O_26  and  C_27
REMARK    7  A    between atoms: C_27  and  C_28
REMARK                            x       y       z     vdW  Elec       q    Type
REMARK                         _______ _______ _______ _____ _____    ______ ____
ROOT
ATOM      1  C   UNL A   1     -23.245  -0.652  28.791  0.00  0.00    +0.054 A 
ATOM      2  C   UNL A   1     -23.841   0.153  27.762  0.00  0.00    +0.013 A 
ATOM      3  C   UNL A   1     -23.019   1.031  27.088  0.00  0.00    +0.001 A 
ATOM      4  C   UNL A   1     -23.469   1.856  25.985  0.00  0.00    -0.000 A 
ATOM      5  C   UNL A   1     -24.561   1.290  25.240  0.00  0.00    -0.003 A 
ATOM      6  C   UNL A   1     -25.351   0.349  25.843  0.00  0.00    -0.001 A 
ATOM      7  C   UNL A   1     -25.008  -0.283  27.044  0.00  0.00    -0.001 A 
ATOM      8  C   UNL A   1     -21.780   1.549  27.729  0.00  0.00    +0.000 A 
ATOM      9  C   UNL A   1     -20.913   0.736  28.326  0.00  0.00    +0.001 A 
ATOM     10  C   UNL A   1     -21.895  -0.484  29.187  0.00  0.00    +0.015 A 
ENDROOT
BRANCH   1  14
ATOM     11  O   UNL A   1     -25.440  -0.357  30.307  0.00  0.00    -0.271 OA
ATOM     12  C   UNL A   1     -25.366  -1.435  29.920  0.00  0.00    +0.270 C 
ATOM     13  C   UNL A   1     -26.115  -2.403  30.286  0.00  0.00    +0.245 C 
ATOM     14  N   UNL A   1     -24.127  -1.728  29.152  0.00  0.00    -0.256 N 
ATOM     15  C   UNL A   1     -23.909  -2.997  28.582  0.00  0.00    +0.098 C 
ATOM     16  C   UNL A   1     -25.970  -3.737  29.656  0.00  0.00    +0.055 C 
ATOM     17  C   UNL A   1     -24.807  -3.983  28.875  0.00  0.00    +0.026 C 
BRANCH  13  18
ATOM     18  O   UNL A   1     -27.119  -2.270  31.052  0.00  0.00    -0.436 OA
BRANCH  18  19
ATOM     19  C   UNL A   1     -28.395  -2.236  30.583  0.00  0.00    +0.399 C 
ATOM     20  O   UNL A   1     -28.751  -1.412  29.719  0.00  0.00    -0.240 OA
BRANCH  19  21
ATOM     21  C   UNL A   1     -29.198  -3.077  31.307  0.00  0.00    +0.360 C 
ATOM     22  O   UNL A   1     -28.807  -4.016  31.825  0.00  0.00    -0.260 OA
ATOM     23  N   UNL A   1     -30.607  -3.124  30.916  0.00  0.00    -0.078 NA
ENDBRANCH  19  21
ENDBRANCH  18  19
ENDBRANCH  13  18
ENDBRANCH   1  14
BRANCH   6  24
ATOM     24  C   UNL A   1     -26.607  -0.003  25.107  0.00  0.00    +0.139 C 
BRANCH  24  25
ATOM     25  N   UNL A   1     -27.171   0.484  24.138  0.00  0.00    -0.233 NA
BRANCH  25  26
ATOM     26  C   UNL A   1     -28.439   0.305  23.892  0.00  0.00    +0.066 A 
ATOM     27  C   UNL A   1     -29.316   1.108  23.649  0.00  0.00    +0.016 A 
ATOM     28  C   UNL A   1     -30.742   0.845  23.405  0.00  0.00    +0.001 A 
ATOM     29  C   UNL A   1     -31.022  -0.520  23.382  0.00  0.00    +0.000 A 
ATOM     30  C   UNL A   1     -28.915  -1.106  23.797  0.00  0.00    +0.016 A 
ATOM     31  C   UNL A   1     -30.154  -1.457  23.564  0.00  0.00    +0.001 A 
ENDBRANCH  25  26
ENDBRANCH  24  25
ENDBRANCH   6  24
TORSDOF 7
ENDMDL
ENDMDL
