REMARK  Name = No_414-gen_results/8p0m/2024-11-26-14-13-15/
REMARK  4 active torsions:
REMARK  status: ('A' for Active; 'I' for Inactive)
REMARK    1  A    between atoms: C_6  and  C_9
REMARK    2  A    between atoms: C_11  and  C_15
REMARK    3  A    between atoms: C_14  and  O_18
REMARK    4  A    between atoms: O_18  and  C_19
REMARK                            x       y       z     vdW  Elec       q    Type
REMARK                         _______ _______ _______ _____ _____    ______ ____
ROOT
ATOM      1  C   UNL A   1     -30.568   2.346  29.842  0.00  0.00    +0.001 A 
ATOM      2  C   UNL A   1     -31.611   2.494  29.932  0.00  0.00    +0.010 A 
ATOM      3  C   UNL A   1     -32.370   3.709  30.234  0.00  0.00    +0.114 A 
ATOM      4  C   UNL A   1     -29.710   3.630  30.127  0.00  0.00    +0.003 A 
ATOM      5  C   UNL A   1     -30.298   4.835  30.373  0.00  0.00    +0.038 A 
ATOM      6  C   UNL A   1     -31.654   4.867  30.450  0.00  0.00    +0.152 A 
ENDROOT
BRANCH   1  12
ATOM      7  C   UNL A   1     -28.016  -0.814  28.878  0.00  0.00    +0.012 A 
ATOM      8  C   UNL A   1     -28.469  -0.785  29.829  0.00  0.00    +0.012 A 
ATOM      9  C   UNL A   1     -28.196   0.348  28.055  0.00  0.00    +0.058 A 
ATOM     10  C   UNL A   1     -29.019   1.350  28.378  0.00  0.00    +0.012 A 
ATOM     11  C   UNL A   1     -29.411   0.180  30.378  0.00  0.00    +0.058 A 
ATOM     12  C   UNL A   1     -29.606   1.250  29.619  0.00  0.00    +0.011 A 
ATOM     13 CL   UNL A   1     -27.336   0.378  26.521  0.00  0.00    -0.082 Cl
ATOM     14 CL   UNL A   1     -30.244   0.015  31.908  0.00  0.00    -0.082 Cl
ENDBRANCH   1  12
BRANCH   3  15
ATOM     15  C   UNL A   1     -33.834   3.686  30.287  0.00  0.00    +0.391 C 
ATOM     16  O   UNL A   1     -34.414   3.844  31.270  0.00  0.00    -0.240 OA
ATOM     17  O   UNL A   1     -34.374   3.352  29.139  0.00  0.00    -0.240 OA
ENDBRANCH   3  15
BRANCH   6  18
ATOM     18  O   UNL A   1     -32.276   5.981  30.759  0.00  0.00    -0.451 OA
BRANCH  18  19
ATOM     19  C   UNL A   1     -32.021   6.612  31.946  0.00  0.00    +0.175 C 
ATOM     20  C   UNL A   1     -31.082   6.938  32.331  0.00  0.00    +0.015 C 
ATOM     21  C   UNL A   1     -30.834   7.667  33.571  0.00  0.00    +0.034 C 
ENDBRANCH  18  19
ENDBRANCH   6  18
TORSDOF 4
