MODEL 4140
MODEL 1
REMARK VINA RESULT:    -7.318      0.000      0.000
REMARK INTER + INTRA:          -9.584
REMARK INTER:                  -8.601
REMARK INTRA:                  -0.983
REMARK UNBOUND:                -0.983
REMARK  Name = No_4140-gen_results/8p0m/2024-11-26-14-13-15/
REMARK  3 active torsions:
REMARK  status: ('A' for Active; 'I' for Inactive)
REMARK    1  A    between atoms: C_3  and  C_4
REMARK    2  A    between atoms: C_11  and  O_14
REMARK    3  A    between atoms: O_14  and  C_15
REMARK                            x       y       z     vdW  Elec       q    Type
REMARK                         _______ _______ _______ _____ _____    ______ ____
ROOT
ATOM      1  C   UNL A   1     -24.453   0.806  26.915  0.00  0.00    +0.005 A 
ATOM      2  C   UNL A   1     -23.366   1.118  26.995  0.00  0.00    +0.000 A 
ATOM      3  C   UNL A   1     -22.408   0.925  28.036  0.00  0.00    +0.003 A 
ATOM      4  C   UNL A   1     -22.942   0.137  29.140  0.00  0.00    +0.037 A 
ATOM      5  C   UNL A   1     -24.162  -0.307  29.044  0.00  0.00    +0.145 A 
ATOM      6  C   UNL A   1     -24.958  -0.034  28.036  0.00  0.00    +0.038 A 
ENDROOT
BRANCH   1   9
ATOM      7  C   UNL A   1     -25.976  -0.047  25.033  0.00  0.00    +0.002 A 
ATOM      8  C   UNL A   1     -26.804   0.161  24.416  0.00  0.00    +0.000 A 
ATOM      9  C   UNL A   1     -25.532   0.971  25.906  0.00  0.00    +0.028 A 
ATOM     10  C   UNL A   1     -27.625   1.375  24.267  0.00  0.00    +0.002 A 
ATOM     11  C   UNL A   1     -27.242   2.428  25.099  0.00  0.00    +0.030 A 
ATOM     12  C   UNL A   1     -26.219   2.243  25.972  0.00  0.00    +0.140 A 
ATOM     13  F   UNL A   1     -25.859   3.179  26.730  0.00  0.00    -0.204 F 
ENDBRANCH   1   9
BRANCH   5  14
ATOM     14  O   UNL A   1     -24.703  -1.164  30.003  0.00  0.00    -0.454 OA
BRANCH  14  15
ATOM     15  C   UNL A   1     -24.852  -2.484  29.576  0.00  0.00    +0.145 A 
ATOM     16  C   UNL A   1     -26.072  -3.115  30.036  0.00  0.00    +0.037 A 
ATOM     17  C   UNL A   1     -26.188  -4.492  29.679  0.00  0.00    +0.003 A 
ATOM     18  C   UNL A   1     -25.270  -5.218  28.853  0.00  0.00    +0.000 A 
ATOM     19  C   UNL A   1     -24.063  -4.592  28.664  0.00  0.00    +0.003 A 
ATOM     20  C   UNL A   1     -23.835  -3.268  29.105  0.00  0.00    +0.037 A 
ENDBRANCH  14  15
ENDBRANCH   5  14
TORSDOF 3
ENDMDL
ENDMDL
