MODEL 4141
MODEL 1
REMARK VINA RESULT:    -7.575      0.000      0.000
REMARK INTER + INTRA:         -11.020
REMARK INTER:                 -10.675
REMARK INTRA:                  -0.345
REMARK UNBOUND:                -0.345
REMARK  Name = No_4141-gen_results/8p0m/2024-11-26-14-13-15/
REMARK  7 active torsions:
REMARK  status: ('A' for Active; 'I' for Inactive)
REMARK    1  A    between atoms: C_1  and  C_2
REMARK    2  A    between atoms: N_8  and  CA_10
REMARK    3  A    between atoms: CA_10  and  C_14
REMARK    4  A    between atoms: CA_10  and  C_17
REMARK    5  A    between atoms: C_23  and  C_27
REMARK    6  A    between atoms: C_27  and  N_28
REMARK    7  A    between atoms: N_30  and  C_31
REMARK                            x       y       z     vdW  Elec       q    Type
REMARK                         _______ _______ _______ _____ _____    ______ ____
ROOT
ATOM      1  CA  UNL A   1     -22.028 -18.096   4.216  0.00  0.00    +0.277 C 
ENDROOT
BRANCH   1   2
ATOM      2  C   UNL A   1     -23.228 -17.747   5.193  0.00  0.00    +0.273 C 
ATOM      3  O   UNL A   1     -23.620 -18.503   6.004  0.00  0.00    -0.269 OA
ATOM      4  N   UNL A   1     -23.496 -16.431   5.258  0.00  0.00    -0.274 N 
ATOM      5  C   UNL A   1     -24.584 -15.985   6.162  0.00  0.00    +0.083 A 
ATOM      6  C   UNL A   1     -24.693 -14.791   6.158  0.00  0.00    +0.018 A 
ATOM      7  C   UNL A   1     -23.124 -15.233   4.617  0.00  0.00    +0.080 A 
ATOM      8  C   UNL A   1     -23.731 -14.195   5.136  0.00  0.00    +0.022 A 
BRANCH   8   9
ATOM      9  C   UNL A   1     -23.546 -12.828   4.773  0.00  0.00    +0.165 C 
BRANCH   9  10
ATOM     10  N   UNL A   1     -22.376 -12.407   4.700  0.00  0.00    -0.207 NA
ATOM     11  C   UNL A   1     -21.442 -12.705   4.191  0.00  0.00    +0.098 C 
ATOM     12  N   UNL A   1     -20.222 -11.889   4.215  0.00  0.00    -0.164 NA
BRANCH  12  13
ATOM     13  C   UNL A   1     -19.161 -12.446   3.543  0.00  0.00    +0.205 C 
ATOM     14  N   UNL A   1     -19.062 -12.536   2.250  0.00  0.00    -0.247 NA
ATOM     15  C   UNL A   1     -19.993 -12.065   1.414  0.00  0.00    +0.153 C 
ENDBRANCH  12  13
ENDBRANCH   9  10
ENDBRANCH   8   9
ENDBRANCH   1   2
BRANCH   1  17
ATOM     16  C   UNL A   1     -20.211 -19.132   5.705  0.00  0.00    +0.266 C 
ATOM     17  N   UNL A   1     -21.362 -19.215   4.883  0.00  0.00    -0.182 NA
ATOM     18  O   UNL A   1     -19.775 -17.996   5.840  0.00  0.00    -0.268 OA
BRANCH  16  19
ATOM     19  C   UNL A   1     -19.768 -20.116   6.251  0.00  0.00    +0.055 A 
ATOM     20  C   UNL A   1     -18.402 -20.264   6.467  0.00  0.00    +0.005 A 
ATOM     21  C   UNL A   1     -17.735 -21.428   7.116  0.00  0.00    +0.005 A 
ATOM     22  C   UNL A   1     -18.602 -22.398   7.701  0.00  0.00    +0.029 A 
ATOM     23  C   UNL A   1     -19.986 -22.197   7.522  0.00  0.00    +0.003 A 
ATOM     24  C   UNL A   1     -20.526 -21.152   6.880  0.00  0.00    +0.005 A 
ATOM     25  C   UNL A   1     -17.982 -23.518   8.361  0.00  0.00    +0.140 A 
ATOM     26  N   UNL A   1     -16.656 -23.529   8.575  0.00  0.00    -0.216 NA
ATOM     27 CL   UNL A   1     -18.892 -24.870   8.621  0.00  0.00    -0.061 Cl
ATOM     28  C   UNL A   1     -15.841 -22.581   8.317  0.00  0.00    +0.171 A 
ATOM     29  C   UNL A   1     -16.314 -21.423   7.567  0.00  0.00    +0.038 A 
ATOM     30  N   UNL A   1     -14.570 -22.629   8.654  0.00  0.00    -0.107 NA
ENDBRANCH  16  19
ENDBRANCH   1  17
BRANCH   1  31
ATOM     31  C   UNL A   1     -22.548 -18.404   2.975  0.00  0.00    +0.393 C 
ATOM     32  O   UNL A   1     -23.070 -19.410   2.754  0.00  0.00    -0.243 OA
ATOM     33  OXT UNL A   1     -22.120 -17.662   1.919  0.00  0.00    -0.243 OA
ENDBRANCH   1  31
TORSDOF 7
ENDMDL
ENDMDL
