REMARK  Name = No_4141-gen_results/8p0m/2024-11-26-14-13-15/
REMARK  7 active torsions:
REMARK  status: ('A' for Active; 'I' for Inactive)
REMARK    1  A    between atoms: C_1  and  C_2
REMARK    2  A    between atoms: N_8  and  CA_10
REMARK    3  A    between atoms: CA_10  and  C_14
REMARK    4  A    between atoms: CA_10  and  C_17
REMARK    5  A    between atoms: C_23  and  C_27
REMARK    6  A    between atoms: C_27  and  N_28
REMARK    7  A    between atoms: N_30  and  C_31
REMARK                            x       y       z     vdW  Elec       q    Type
REMARK                         _______ _______ _______ _____ _____    ______ ____
ROOT
ATOM      1  CA  UNL A   1     -29.045  -2.607  30.400  0.00  0.00    +0.277 C 
ENDROOT
BRANCH   1   2
ATOM      2  C   UNL A   1     -29.253  -2.155  31.907  0.00  0.00    +0.273 C 
ATOM      3  O   UNL A   1     -28.353  -1.873  32.610  0.00  0.00    -0.269 OA
ATOM      4  N   UNL A   1     -30.515  -1.778  32.180  0.00  0.00    -0.274 N 
ATOM      5  C   UNL A   1     -30.820  -1.310  33.554  0.00  0.00    +0.083 A 
ATOM      6  C   UNL A   1     -31.965  -0.967  33.654  0.00  0.00    +0.018 A 
ATOM      7  C   UNL A   1     -31.784  -1.778  31.570  0.00  0.00    +0.080 A 
ATOM      8  C   UNL A   1     -32.696  -1.246  32.345  0.00  0.00    +0.022 A 
BRANCH   8   9
ATOM      9  C   UNL A   1     -34.069  -1.031  32.025  0.00  0.00    +0.165 C 
BRANCH   9  10
ATOM     10  N   UNL A   1     -34.752  -0.376  32.835  0.00  0.00    -0.207 NA
ATOM     11  C   UNL A   1     -34.566   0.372  33.626  0.00  0.00    +0.098 C 
ATOM     12  N   UNL A   1     -35.645   1.067  34.340  0.00  0.00    -0.164 NA
BRANCH  12  13
ATOM     13  C   UNL A   1     -35.207   1.941  35.305  0.00  0.00    +0.205 C 
ATOM     14  N   UNL A   1     -33.960   2.158  35.604  0.00  0.00    -0.247 NA
ATOM     15  C   UNL A   1     -32.945   1.556  34.974  0.00  0.00    +0.153 C 
ENDBRANCH  12  13
ENDBRANCH   9  10
ENDBRANCH   8   9
ENDBRANCH   1   2
BRANCH   1  17
ATOM     16  C   UNL A   1     -28.016  -0.814  28.878  0.00  0.00    +0.266 C 
ATOM     17  N   UNL A   1     -27.952  -1.752  29.938  0.00  0.00    -0.182 NA
ATOM     18  O   UNL A   1     -29.111  -0.749  28.335  0.00  0.00    -0.268 OA
BRANCH  16  19
ATOM     19  C   UNL A   1     -27.064  -0.119  28.608  0.00  0.00    +0.055 A 
ATOM     20  C   UNL A   1     -25.792  -0.430  29.076  0.00  0.00    +0.005 A 
ATOM     21  C   UNL A   1     -24.546   0.349  28.823  0.00  0.00    +0.005 A 
ATOM     22  C   UNL A   1     -24.659   1.420  27.888  0.00  0.00    +0.029 A 
ATOM     23  C   UNL A   1     -25.947   1.681  27.379  0.00  0.00    +0.003 A 
ATOM     24  C   UNL A   1     -27.044   0.974  27.687  0.00  0.00    +0.005 A 
ATOM     25  C   UNL A   1     -23.463   2.170  27.603  0.00  0.00    +0.140 A 
ATOM     26  N   UNL A   1     -22.272   1.743  28.054  0.00  0.00    -0.216 NA
ATOM     27 CL   UNL A   1     -23.624   3.668  26.930  0.00  0.00    -0.061 Cl
ATOM     28  C   UNL A   1     -22.047   0.652  28.677  0.00  0.00    +0.171 A 
ATOM     29  C   UNL A   1     -23.176  -0.163  29.113  0.00  0.00    +0.038 A 
ATOM     30  N   UNL A   1     -20.833   0.255  28.994  0.00  0.00    -0.107 NA
ENDBRANCH  16  19
ENDBRANCH   1  17
BRANCH   1  31
ATOM     31  C   UNL A   1     -28.756  -3.956  30.384  0.00  0.00    +0.393 C 
ATOM     32  O   UNL A   1     -27.679  -4.358  30.270  0.00  0.00    -0.243 OA
ATOM     33  OXT UNL A   1     -29.784  -4.810  30.137  0.00  0.00    -0.243 OA
ENDBRANCH   1  31
TORSDOF 7
