REMARK  Name = No_4142-gen_results/8p0m/2024-11-26-14-13-15/
REMARK  1 active torsions:
REMARK  status: ('A' for Active; 'I' for Inactive)
REMARK    1  A    between atoms: C_5  and  C_9
REMARK                            x       y       z     vdW  Elec       q    Type
REMARK                         _______ _______ _______ _____ _____    ______ ____
ROOT
ATOM      1  C   UNL A   1     -28.016  -0.814  28.878  0.00  0.00    +0.094 A 
ATOM      2  C   UNL A   1     -27.064  -0.119  28.608  0.00  0.00    -0.007 A 
ATOM      3  C   UNL A   1     -26.972   0.714  27.506  0.00  0.00    +0.028 C 
ATOM      4  C   UNL A   1     -25.820   1.491  27.116  0.00  0.00    +0.013 C 
ATOM      5  C   UNL A   1     -24.656   1.424  27.918  0.00  0.00    +0.100 C 
ATOM      6  C   UNL A   1     -24.685   0.590  29.066  0.00  0.00    +0.035 C 
ATOM      7  C   UNL A   1     -25.810  -0.127  29.334  0.00  0.00    -0.023 A 
ATOM      8  N   UNL A   1     -27.966  -1.679  30.009  0.00  0.00    -0.243 NA
ATOM      9  C   UNL A   1     -25.743  -1.009  30.464  0.00  0.00    +0.016 A 
ATOM     10  C   UNL A   1     -26.864  -1.790  30.790  0.00  0.00    +0.099 A 
ENDROOT
BRANCH   5  11
ATOM     11  C   UNL A   1     -23.475   2.196  27.605  0.00  0.00    +0.398 C 
ATOM     12  F   UNL A   1     -22.686   1.790  27.142  0.00  0.00    -0.170 F 
ATOM     13  F   UNL A   1     -23.036   2.793  28.839  0.00  0.00    -0.170 F 
ATOM     14  F   UNL A   1     -23.967   3.397  27.002  0.00  0.00    -0.170 F 
ENDBRANCH   5  11
TORSDOF 1
