MODEL 4142
MODEL 1
REMARK VINA RESULT:    -5.930      0.000      0.000
REMARK INTER + INTRA:          -6.492
REMARK INTER:                  -6.277
REMARK INTRA:                  -0.215
REMARK UNBOUND:                -0.215
REMARK  Name = No_4142-gen_results/8p0m/2024-11-26-14-13-15/
REMARK  1 active torsions:
REMARK  status: ('A' for Active; 'I' for Inactive)
REMARK    1  A    between atoms: C_5  and  C_9
REMARK                            x       y       z     vdW  Elec       q    Type
REMARK                         _______ _______ _______ _____ _____    ______ ____
ROOT
ATOM      1  C   UNL A   1     -26.589  -3.442  30.030  0.00  0.00    +0.094 A 
ATOM      2  C   UNL A   1     -25.725  -2.620  29.831  0.00  0.00    -0.007 A 
ATOM      3  C   UNL A   1     -25.862  -1.256  30.025  0.00  0.00    +0.028 C 
ATOM      4  C   UNL A   1     -24.878  -0.246  29.720  0.00  0.00    +0.013 C 
ATOM      5  C   UNL A   1     -23.638  -0.654  29.173  0.00  0.00    +0.100 C 
ATOM      6  C   UNL A   1     -23.431  -2.041  28.951  0.00  0.00    +0.035 C 
ATOM      7  C   UNL A   1     -24.433  -2.914  29.245  0.00  0.00    -0.023 A 
ATOM      8  N   UNL A   1     -26.347  -4.814  29.731  0.00  0.00    -0.243 NA
ATOM      9  C   UNL A   1     -24.186  -4.290  28.922  0.00  0.00    +0.016 A 
ATOM     10  C   UNL A   1     -25.183  -5.244  29.186  0.00  0.00    +0.099 A 
ENDROOT
BRANCH   5  11
ATOM     11  C   UNL A   1     -22.594   0.298  28.869  0.00  0.00    +0.398 C 
ATOM     12  F   UNL A   1     -22.498   1.156  29.375  0.00  0.00    -0.170 F 
ATOM     13  F   UNL A   1     -22.706   0.595  27.465  0.00  0.00    -0.170 F 
ATOM     14  F   UNL A   1     -21.397  -0.480  28.782  0.00  0.00    -0.170 F 
ENDBRANCH   5  11
TORSDOF 1
ENDMDL
ENDMDL
