MODEL 4143
MODEL 1
REMARK VINA RESULT:    -5.304      0.000      0.000
REMARK INTER + INTRA:          -5.824
REMARK INTER:                  -5.614
REMARK INTRA:                  -0.209
REMARK UNBOUND:                -0.209
REMARK  Name = No_4143-gen_results/8p0m/2024-11-26-14-13-15/
REMARK  1 active torsions:
REMARK  status: ('A' for Active; 'I' for Inactive)
REMARK    1  A    between atoms: C_3  and  C_4
REMARK                            x       y       z     vdW  Elec       q    Type
REMARK                         _______ _______ _______ _____ _____    ______ ____
ROOT
ATOM      1  C   UNL A   1     -24.203  -2.503  29.018  0.00  0.00    +0.005 A 
ATOM      2  C   UNL A   1     -23.096  -1.887  29.300  0.00  0.00    +0.000 A 
ATOM      3  C   UNL A   1     -22.779  -0.556  28.857  0.00  0.00    +0.000 A 
ATOM      4  C   UNL A   1     -23.769   0.087  28.099  0.00  0.00    +0.000 A 
ATOM      5  C   UNL A   1     -24.893  -0.530  27.799  0.00  0.00    +0.000 A 
ATOM      6  C   UNL A   1     -25.118  -1.862  28.136  0.00  0.00    +0.000 A 
ENDROOT
BRANCH   1   9
ATOM      7  F   UNL A   1     -23.623  -4.736  27.926  0.00  0.00    -0.172 F 
ATOM      8  C   UNL A   1     -24.322  -4.717  28.750  0.00  0.00    +0.279 C 
ATOM      9  C   UNL A   1     -24.667  -3.953  29.296  0.00  0.00    +0.060 C 
ATOM     10  F   UNL A   1     -24.941  -6.017  29.108  0.00  0.00    -0.172 F 
ENDBRANCH   1   9
TORSDOF 1
ENDMDL
ENDMDL
