REMARK  Name = No_4144-gen_results/8p0m/2024-11-26-14-13-15/
REMARK  7 active torsions:
REMARK  status: ('A' for Active; 'I' for Inactive)
REMARK    1  A    between atoms: C_1  and  C_2
REMARK    2  A    between atoms: C_5  and  C_9
REMARK    3  A    between atoms: N_8  and  C_13
REMARK    4  A    between atoms: C_9  and  N_10
REMARK    5  A    between atoms: N_10  and  C_18
REMARK    6  A    between atoms: C_18  and  C_19
REMARK    7  A    between atoms: C_19  and  C_21
REMARK                            x       y       z     vdW  Elec       q    Type
REMARK                         _______ _______ _______ _____ _____    ______ ____
ROOT
ATOM      1  C   UNL A   1     -27.064  -0.119  28.608  0.00  0.00    +0.056 A 
ATOM      2  C   UNL A   1     -26.929   1.171  29.008  0.00  0.00    +0.034 A 
ATOM      3  C   UNL A   1     -25.770   2.034  28.688  0.00  0.00    +0.138 A 
ATOM      4  C   UNL A   1     -24.714   1.443  27.919  0.00  0.00    +0.021 A 
ATOM      5  C   UNL A   1     -24.859   0.078  27.584  0.00  0.00    -0.001 A 
ATOM      6  C   UNL A   1     -25.965  -0.661  27.916  0.00  0.00    +0.004 A 
ATOM      7  F   UNL A   1     -25.710   3.248  28.999  0.00  0.00    -0.204 F 
ENDROOT
BRANCH   1   8
ATOM      8  C   UNL A   1     -28.016  -0.814  28.878  0.00  0.00    +0.253 C 
ATOM      9  N   UNL A   1     -27.982  -1.611  30.103  0.00  0.00    -0.248 N 
ATOM     10  O   UNL A   1     -29.200  -0.607  28.482  0.00  0.00    -0.270 OA
ATOM     11  C   UNL A   1     -26.679  -2.326  30.303  0.00  0.00    +0.120 C 
BRANCH   9  12
ATOM     12  C   UNL A   1     -29.050  -2.496  30.572  0.00  0.00    +0.129 C 
ATOM     13  C   UNL A   1     -28.851  -3.747  30.759  0.00  0.00    +0.294 C 
ATOM     14  F   UNL A   1     -29.834  -4.201  31.516  0.00  0.00    -0.171 F 
ATOM     15  F   UNL A   1     -28.525  -4.707  30.209  0.00  0.00    -0.171 F 
ENDBRANCH   9  12
ENDBRANCH   1   8
BRANCH   4  16
ATOM     16  C   UNL A   1     -23.535   2.170  27.555  0.00  0.00    +0.097 C 
ATOM     17  C   UNL A   1     -23.839   3.001  26.297  0.00  0.00    +0.024 C 
BRANCH  16  18
ATOM     18  N   UNL A   1     -22.378   2.193  27.832  0.00  0.00    -0.215 NA
BRANCH  18  19
ATOM     19  C   UNL A   1     -21.527   1.058  28.201  0.00  0.00    +0.094 C 
BRANCH  19  20
ATOM     20  C   UNL A   1     -22.147  -0.093  28.777  0.00  0.00    +0.050 C 
BRANCH  20  21
ATOM     21  C   UNL A   1     -22.567   0.072  30.218  0.00  0.00    +0.036 C 
ATOM     22  C   UNL A   1     -23.274  -1.088  30.784  0.00  0.00    +0.275 C 
ATOM     23  F   UNL A   1     -23.380  -2.061  30.106  0.00  0.00    -0.172 F 
ATOM     24  F   UNL A   1     -24.587  -0.653  31.132  0.00  0.00    -0.172 F 
ENDBRANCH  20  21
ENDBRANCH  19  20
ENDBRANCH  18  19
ENDBRANCH  16  18
ENDBRANCH   4  16
TORSDOF 7
