MODEL 4144
MODEL 1
REMARK VINA RESULT:    -5.638      0.000      0.000
REMARK INTER + INTRA:          -9.311
REMARK INTER:                  -7.945
REMARK INTRA:                  -1.367
REMARK UNBOUND:                -1.367
REMARK  Name = No_4144-gen_results/8p0m/2024-11-26-14-13-15/
REMARK  7 active torsions:
REMARK  status: ('A' for Active; 'I' for Inactive)
REMARK    1  A    between atoms: C_1  and  C_2
REMARK    2  A    between atoms: C_5  and  C_9
REMARK    3  A    between atoms: N_8  and  C_13
REMARK    4  A    between atoms: C_9  and  N_10
REMARK    5  A    between atoms: N_10  and  C_18
REMARK    6  A    between atoms: C_18  and  C_19
REMARK    7  A    between atoms: C_19  and  C_21
REMARK                            x       y       z     vdW  Elec       q    Type
REMARK                         _______ _______ _______ _____ _____    ______ ____
ROOT
ATOM      1  C   UNL A   1     -28.745  -9.528   9.396  0.00  0.00    +0.056 A 
ATOM      2  C   UNL A   1     -30.002  -9.151   9.740  0.00  0.00    +0.034 A 
ATOM      3  C   UNL A   1     -30.944  -9.980  10.526  0.00  0.00    +0.138 A 
ATOM      4  C   UNL A   1     -30.486 -11.280  10.924  0.00  0.00    +0.021 A 
ATOM      5  C   UNL A   1     -29.199 -11.663  10.484  0.00  0.00    -0.001 A 
ATOM      6  C   UNL A   1     -28.380 -10.838   9.757  0.00  0.00    +0.004 A 
ATOM      7  F   UNL A   1     -32.069  -9.574  10.902  0.00  0.00    -0.204 F 
ENDROOT
BRANCH   1   8
ATOM      8  C   UNL A   1     -27.986  -8.840   8.752  0.00  0.00    +0.253 C 
ATOM      9  N   UNL A   1     -28.316  -8.541   7.360  0.00  0.00    -0.248 N 
ATOM     10  O   UNL A   1     -27.185  -7.991   9.241  0.00  0.00    -0.270 OA
ATOM     11  C   UNL A   1     -28.785  -9.743   6.595  0.00  0.00    +0.120 C 
BRANCH   9  12
ATOM     12  C   UNL A   1     -27.508  -7.725   6.451  0.00  0.00    +0.129 C 
ATOM     13  C   UNL A   1     -26.649  -8.251   5.661  0.00  0.00    +0.294 C 
ATOM     14  F   UNL A   1     -26.361  -7.359   4.730  0.00  0.00    -0.171 F 
ATOM     15  F   UNL A   1     -25.695  -8.900   5.658  0.00  0.00    -0.171 F 
ENDBRANCH   9  12
ENDBRANCH   1   8
BRANCH   4  16
ATOM     16  C   UNL A   1     -31.307 -12.181  11.676  0.00  0.00    +0.097 C 
ATOM     17  C   UNL A   1     -30.511 -12.663  12.901  0.00  0.00    +0.024 C 
BRANCH  16  18
ATOM     18  N   UNL A   1     -32.329 -12.777  11.549  0.00  0.00    -0.215 NA
BRANCH  18  19
ATOM     19  C   UNL A   1     -32.791 -13.513  10.369  0.00  0.00    +0.094 C 
BRANCH  19  20
ATOM     20  C   UNL A   1     -32.589 -14.927  10.332  0.00  0.00    +0.050 C 
BRANCH  20  21
ATOM     21  C   UNL A   1     -31.388 -15.372   9.533  0.00  0.00    +0.036 C 
ATOM     22  C   UNL A   1     -30.216 -15.737  10.345  0.00  0.00    +0.275 C 
ATOM     23  F   UNL A   1     -30.335 -15.730  11.530  0.00  0.00    -0.172 F 
ATOM     24  F   UNL A   1     -29.169 -14.829  10.006  0.00  0.00    -0.172 F 
ENDBRANCH  20  21
ENDBRANCH  19  20
ENDBRANCH  18  19
ENDBRANCH  16  18
ENDBRANCH   4  16
TORSDOF 7
ENDMDL
ENDMDL
