MODEL 4145
MODEL 1
REMARK VINA RESULT:    -5.882      0.000      0.000
REMARK INTER + INTRA:          -6.266
REMARK INTER:                  -6.226
REMARK INTRA:                  -0.041
REMARK UNBOUND:                -0.041
REMARK  Name = No_4145-gen_results/8p0m/2024-11-26-14-13-15/
REMARK  1 active torsions:
REMARK  status: ('A' for Active; 'I' for Inactive)
REMARK    1  A    between atoms: C_5  and  C_12
REMARK                            x       y       z     vdW  Elec       q    Type
REMARK                         _______ _______ _______ _____ _____    ______ ____
ROOT
ATOM      1  C   UNL A   1     -22.498   1.480  28.008  0.00  0.00    +0.052 C 
ATOM      2  C   UNL A   1     -23.045   0.411  28.150  0.00  0.00    -0.018 A 
ATOM      3  C   UNL A   1     -22.567  -0.527  29.058  0.00  0.00    -0.003 A 
ATOM      4  C   UNL A   1     -23.144  -1.877  29.316  0.00  0.00    +0.010 A 
ATOM      5  C   UNL A   1     -24.389  -2.156  28.678  0.00  0.00    +0.068 A 
ATOM      6  C   UNL A   1     -24.887  -1.166  27.807  0.00  0.00    +0.010 A 
ATOM      7  C   UNL A   1     -24.292   0.012  27.575  0.00  0.00    -0.003 A 
ATOM      8  C   UNL A   1     -22.334   1.904  26.594  0.00  0.00    -0.021 C 
ATOM      9  C   UNL A   1     -23.471   2.388  26.069  0.00  0.00    -0.004 C 
ATOM     10  C   UNL A   1     -24.725   1.703  25.867  0.00  0.00    -0.000 C 
ATOM     11  C   UNL A   1     -24.984   0.693  26.457  0.00  0.00    -0.000 C 
ENDROOT
BRANCH   5  12
ATOM     12  C   UNL A   1     -25.004  -3.418  29.018  0.00  0.00    +0.100 C 
ATOM     13  N   UNL A   1     -24.231  -4.428  29.286  0.00  0.00    -0.191 NA
ENDBRANCH   5  12
TORSDOF 1
ENDMDL
ENDMDL
