MODEL 4146
MODEL 1
REMARK VINA RESULT:    -5.058      0.000      0.000
REMARK INTER + INTRA:          -5.745
REMARK INTER:                  -5.649
REMARK INTRA:                  -0.096
REMARK UNBOUND:                -0.096
REMARK  Name = No_4146-gen_results/8p0m/2024-11-26-14-13-15/
REMARK  2 active torsions:
REMARK  status: ('A' for Active; 'I' for Inactive)
REMARK    1  A    between atoms: C_2  and  C_7
REMARK    2  A    between atoms: C_7  and  N_8
REMARK                            x       y       z     vdW  Elec       q    Type
REMARK                         _______ _______ _______ _____ _____    ______ ____
ROOT
ATOM      1  C   UNL A   1     -23.849  -3.659  28.705  0.00  0.00    -0.002 A 
ATOM      2  C   UNL A   1     -24.350  -2.798  29.047  0.00  0.00    +0.002 A 
ATOM      3  C   UNL A   1     -24.569  -4.968  28.944  0.00  0.00    -0.000 A 
ATOM      4  C   UNL A   1     -25.883  -4.950  29.457  0.00  0.00    -0.000 A 
ATOM      5  C   UNL A   1     -25.703  -2.505  29.570  0.00  0.00    -0.002 A 
ATOM      6  C   UNL A   1     -26.399  -3.685  29.797  0.00  0.00    -0.000 A 
ENDROOT
BRANCH   2   7
ATOM      7  C   UNL A   1     -23.615  -1.392  28.794  0.00  0.00    +0.153 C 
BRANCH   7   8
ATOM      8  N   UNL A   1     -22.376  -1.265  29.131  0.00  0.00    -0.246 NA
ATOM      9  C   UNL A   1     -21.595  -0.548  28.986  0.00  0.00    +0.200 C 
ATOM     10  N   UNL A   1     -21.812   0.613  28.253  0.00  0.00    -0.104 NA
ENDBRANCH   7   8
ENDBRANCH   2   7
TORSDOF 2
ENDMDL
ENDMDL
