MODEL 4147
MODEL 1
REMARK VINA RESULT:    -4.225      0.000      0.000
REMARK INTER + INTRA:          -4.225
REMARK INTER:                  -4.225
REMARK INTRA:                   0.000
REMARK UNBOUND:                 0.000
REMARK  Name = No_4147-gen_results/8p0m/2024-11-26-14-13-15/
REMARK  0 active torsions:
REMARK  status: ('A' for Active; 'I' for Inactive)
REMARK                            x       y       z     vdW  Elec       q    Type
REMARK                         _______ _______ _______ _____ _____    ______ ____
ROOT
ATOM      1  C   UNL A   1     -26.195  -4.716  29.686  0.00  0.00    +0.000 A 
ATOM      2  C   UNL A   1     -26.149  -3.664  29.718  0.00  0.00    +0.000 A 
ATOM      3  C   UNL A   1     -25.089  -5.404  29.002  0.00  0.00    +0.000 A 
ATOM      4  C   UNL A   1     -23.955  -4.673  28.541  0.00  0.00    +0.000 A 
ATOM      5  C   UNL A   1     -25.080  -2.687  29.374  0.00  0.00    +0.000 A 
ATOM      6  C   UNL A   1     -24.040  -3.286  28.728  0.00  0.00    +0.000 A 
ENDROOT
TORSDOF 0
ENDMDL
ENDMDL
