REMARK  Name = No_4148-gen_results/8p0m/2024-11-26-14-13-15/
REMARK  5 active torsions:
REMARK  status: ('A' for Active; 'I' for Inactive)
REMARK    1  A    between atoms: C_2  and  O_14
REMARK    2  A    between atoms: C_9  and  C_11
REMARK    3  A    between atoms: O_14  and  C_15
REMARK    4  A    between atoms: C_16  and  C_17
REMARK    5  A    between atoms: C_18  and  C_19
REMARK                            x       y       z     vdW  Elec       q    Type
REMARK                         _______ _______ _______ _____ _____    ______ ____
ROOT
ATOM      1  C   UNL A   1     -28.016  -0.814  28.878  0.00  0.00    +0.037 A 
ATOM      2  C   UNL A   1     -28.469  -0.785  29.829  0.00  0.00    +0.145 A 
ATOM      3  C   UNL A   1     -26.504  -0.778  28.877  0.00  0.00    +0.003 A 
ATOM      4  C   UNL A   1     -25.654  -0.660  27.719  0.00  0.00    +0.000 A 
ATOM      5  C   UNL A   1     -27.918  -0.937  31.182  0.00  0.00    +0.037 A 
ATOM      6  C   UNL A   1     -26.542  -0.940  31.261  0.00  0.00    +0.003 A 
ATOM      7  C   UNL A   1     -25.783  -0.893  30.120  0.00  0.00    +0.000 A 
ATOM      8  C   UNL A   1     -24.310  -0.301  27.853  0.00  0.00    +0.005 A 
ATOM      9  C   UNL A   1     -23.667  -0.460  29.099  0.00  0.00    +0.059 A 
ATOM     10  C   UNL A   1     -24.370  -0.664  30.203  0.00  0.00    +0.005 A 
ENDROOT
BRANCH   9  11
ATOM     11  C   UNL A   1     -22.195  -0.229  29.131  0.00  0.00    +0.297 C 
ATOM     12  N   UNL A   1     -21.288   0.567  28.771  0.00  0.00    -0.102 NA
ATOM     13  O   UNL A   1     -21.616  -1.398  29.684  0.00  0.00    -0.264 OA
ENDBRANCH   9  11
BRANCH   2  14
ATOM     14  O   UNL A   1     -29.923  -0.867  29.862  0.00  0.00    -0.450 OA
BRANCH  14  15
ATOM     15  C   UNL A   1     -30.616   0.245  30.236  0.00  0.00    +0.179 C 
ATOM     16  C   UNL A   1     -31.601   0.433  29.741  0.00  0.00    +0.041 C 
BRANCH  16  17
ATOM     17  C   UNL A   1     -32.254   1.172  29.559  0.00  0.00    +0.003 C 
ATOM     18  C   UNL A   1     -33.543   1.306  28.803  0.00  0.00    +0.000 C 
BRANCH  18  19
ATOM     19  C   UNL A   1     -33.914   0.108  28.221  0.00  0.00    +0.000 C 
ATOM     20  C   UNL A   1     -33.173  -0.991  28.294  0.00  0.00    +0.000 C 
ENDBRANCH  18  19
ENDBRANCH  16  17
ENDBRANCH  14  15
ENDBRANCH   2  14
TORSDOF 5
