MODEL 4148
MODEL 1
REMARK VINA RESULT:    -6.475      0.000      0.000
REMARK INTER + INTRA:          -8.934
REMARK INTER:                  -8.368
REMARK INTRA:                  -0.566
REMARK UNBOUND:                -0.566
REMARK  Name = No_4148-gen_results/8p0m/2024-11-26-14-13-15/
REMARK  5 active torsions:
REMARK  status: ('A' for Active; 'I' for Inactive)
REMARK    1  A    between atoms: C_2  and  O_14
REMARK    2  A    between atoms: C_9  and  C_11
REMARK    3  A    between atoms: O_14  and  C_15
REMARK    4  A    between atoms: C_16  and  C_17
REMARK    5  A    between atoms: C_18  and  C_19
REMARK                            x       y       z     vdW  Elec       q    Type
REMARK                         _______ _______ _______ _____ _____    ______ ____
ROOT
ATOM      1  C   UNL A   1     -30.905  -9.792  28.963  0.00  0.00    +0.037 A 
ATOM      2  C   UNL A   1     -30.873 -10.344  28.067  0.00  0.00    +0.145 A 
ATOM      3  C   UNL A   1     -29.985 -10.279  30.060  0.00  0.00    +0.003 A 
ATOM      4  C   UNL A   1     -29.944  -9.796  31.417  0.00  0.00    +0.000 A 
ATOM      5  C   UNL A   1     -29.945 -11.375  27.583  0.00  0.00    +0.037 A 
ATOM      6  C   UNL A   1     -29.055 -11.853  28.521  0.00  0.00    +0.003 A 
ATOM      7  C   UNL A   1     -29.015 -11.308  29.778  0.00  0.00    +0.000 A 
ATOM      8  C   UNL A   1     -29.306 -10.532  32.419  0.00  0.00    +0.005 A 
ATOM      9  C   UNL A   1     -28.353 -11.512  32.065  0.00  0.00    +0.059 A 
ATOM     10  C   UNL A   1     -28.262 -11.947  30.817  0.00  0.00    +0.005 A 
ENDROOT
BRANCH   9  11
ATOM     11  C   UNL A   1     -27.582 -12.134  33.178  0.00  0.00    +0.297 C 
ATOM     12  N   UNL A   1     -27.536 -12.260  34.430  0.00  0.00    -0.102 NA
ATOM     13  O   UNL A   1     -26.421 -12.701  32.596  0.00  0.00    -0.264 OA
ENDBRANCH   9  11
BRANCH   2  14
ATOM     14  O   UNL A   1     -31.714  -9.868  26.976  0.00  0.00    -0.450 OA
BRANCH  14  15
ATOM     15  C   UNL A   1     -32.532  -8.806  27.220  0.00  0.00    +0.179 C 
ATOM     16  C   UNL A   1     -32.373  -7.880  26.614  0.00  0.00    +0.041 C 
BRANCH  16  17
ATOM     17  C   UNL A   1     -32.566  -6.896  26.629  0.00  0.00    +0.003 C 
ATOM     18  C   UNL A   1     -31.933  -5.685  27.250  0.00  0.00    +0.000 C 
BRANCH  18  19
ATOM     19  C   UNL A   1     -30.804  -6.021  27.974  0.00  0.00    +0.000 C 
ATOM     20  C   UNL A   1     -30.735  -5.914  29.295  0.00  0.00    +0.000 C 
ENDBRANCH  18  19
ENDBRANCH  16  17
ENDBRANCH  14  15
ENDBRANCH   2  14
TORSDOF 5
ENDMDL
ENDMDL
