MODEL 4149
MODEL 1
REMARK VINA RESULT:    -6.550      0.000      0.000
REMARK INTER + INTRA:          -9.603
REMARK INTER:                  -8.847
REMARK INTRA:                  -0.756
REMARK UNBOUND:                -0.756
REMARK  Name = No_4149-gen_results/8p0m/2024-11-26-14-13-15/
REMARK  6 active torsions:
REMARK  status: ('A' for Active; 'I' for Inactive)
REMARK    1  A    between atoms: C_1  and  C_2
REMARK    2  A    between atoms: N_8  and  C_10
REMARK    3  A    between atoms: C_10  and  C_12
REMARK    4  A    between atoms: C_12  and  N_14
REMARK    5  A    between atoms: N_14  and  C_15
REMARK    6  A    between atoms: C_15  and  C_16
REMARK                            x       y       z     vdW  Elec       q    Type
REMARK                         _______ _______ _______ _____ _____    ______ ____
ROOT
ATOM      1  C   UNL A   1     -22.531   0.662  27.888  0.00  0.00    +0.113 C 
ATOM      2  C   UNL A   1     -21.865   1.853  27.288  0.00  0.00    +0.025 C 
ENDROOT
BRANCH   1   4
ATOM      3  C   UNL A   1     -25.038   0.930  27.559  0.00  0.00    +0.265 C 
ATOM      4  N   UNL A   1     -23.853   0.514  27.218  0.00  0.00    -0.202 NA
ATOM      5  O   UNL A   1     -24.933   1.537  28.828  0.00  0.00    -0.268 OA
BRANCH   3   6
ATOM      6  C   UNL A   1     -25.897   1.079  26.969  0.00  0.00    +0.055 A 
ATOM      7  C   UNL A   1     -26.027   2.449  26.458  0.00  0.00    +0.005 A 
ATOM      8  C   UNL A   1     -27.055   2.790  25.456  0.00  0.00    +0.011 A 
ATOM      9  C   UNL A   1     -27.437   1.785  24.540  0.00  0.00    +0.058 A 
ATOM     10  C   UNL A   1     -26.992   0.441  24.775  0.00  0.00    +0.011 A 
ATOM     11  C   UNL A   1     -26.187   0.154  25.799  0.00  0.00    +0.005 A 
ATOM     12 CL   UNL A   1     -28.346   2.272  23.185  0.00  0.00    -0.082 Cl
ENDBRANCH   3   6
ENDBRANCH   1   4
BRANCH   1  13
ATOM     13  C   UNL A   1     -22.091   0.058  28.745  0.00  0.00    +0.111 C 
BRANCH  13  14
ATOM     14  N   UNL A   1     -22.455  -1.266  29.050  0.00  0.00    -0.211 NA
BRANCH  14  15
ATOM     15  C   UNL A   1     -23.460  -1.521  29.843  0.00  0.00    +0.115 C 
BRANCH  15  16
ATOM     16  C   UNL A   1     -24.375  -2.564  29.448  0.00  0.00    -0.005 A 
ATOM     17  C   UNL A   1     -23.872  -3.650  29.003  0.00  0.00    -0.003 A 
ATOM     18  C   UNL A   1     -24.745  -4.821  28.840  0.00  0.00    -0.000 A 
ATOM     19  C   UNL A   1     -26.001  -4.798  29.436  0.00  0.00    -0.000 A 
ATOM     20  C   UNL A   1     -26.557  -3.666  30.018  0.00  0.00    -0.000 A 
ATOM     21  C   UNL A   1     -25.702  -2.557  30.099  0.00  0.00    -0.003 A 
ENDBRANCH  15  16
ENDBRANCH  14  15
ENDBRANCH  13  14
ENDBRANCH   1  13
TORSDOF 6
ENDMDL
ENDMDL
