REMARK  Name = No_4149-gen_results/8p0m/2024-11-26-14-13-15/
REMARK  6 active torsions:
REMARK  status: ('A' for Active; 'I' for Inactive)
REMARK    1  A    between atoms: C_1  and  C_2
REMARK    2  A    between atoms: N_8  and  C_10
REMARK    3  A    between atoms: C_10  and  C_12
REMARK    4  A    between atoms: C_12  and  N_14
REMARK    5  A    between atoms: N_14  and  C_15
REMARK    6  A    between atoms: C_15  and  C_16
REMARK                            x       y       z     vdW  Elec       q    Type
REMARK                         _______ _______ _______ _____ _____    ______ ____
ROOT
ATOM      1  C   UNL A   1     -30.467  -0.547  31.382  0.00  0.00    +0.113 C 
ATOM      2  C   UNL A   1     -31.855  -0.763  30.884  0.00  0.00    +0.025 C 
ENDROOT
BRANCH   1   4
ATOM      3  C   UNL A   1     -28.469  -0.785  29.829  0.00  0.00    +0.265 C 
ATOM      4  N   UNL A   1     -29.610  -0.278  30.194  0.00  0.00    -0.202 NA
ATOM      5  O   UNL A   1     -28.039  -1.660  30.848  0.00  0.00    -0.268 OA
BRANCH   3   6
ATOM      6  C   UNL A   1     -28.016  -0.814  28.878  0.00  0.00    +0.055 A 
ATOM      7  C   UNL A   1     -28.182   0.428  28.113  0.00  0.00    +0.005 A 
ATOM      8  C   UNL A   1     -27.450   0.643  26.850  0.00  0.00    +0.011 A 
ATOM      9  C   UNL A   1     -26.181   0.036  26.715  0.00  0.00    +0.058 A 
ATOM     10  C   UNL A   1     -25.780  -0.933  27.694  0.00  0.00    +0.011 A 
ATOM     11  C   UNL A   1     -26.557  -1.213  28.741  0.00  0.00    +0.005 A 
ATOM     12 CL   UNL A   1     -25.200   0.563  25.427  0.00  0.00    -0.082 Cl
ENDBRANCH   3   6
ENDBRANCH   1   4
BRANCH   1  13
ATOM     13  C   UNL A   1     -30.165  -0.649  32.474  0.00  0.00    +0.111 C 
BRANCH  13  14
ATOM     14  N   UNL A   1     -28.997  -0.096  33.028  0.00  0.00    -0.211 NA
BRANCH  14  15
ATOM     15  C   UNL A   1     -28.616   1.115  32.723  0.00  0.00    +0.115 C 
BRANCH  15  16
ATOM     16  C   UNL A   1     -27.232   1.455  32.945  0.00  0.00    -0.005 A 
ATOM     17  C   UNL A   1     -26.424   0.498  33.194  0.00  0.00    -0.003 A 
ATOM     18  C   UNL A   1     -24.979   0.765  33.165  0.00  0.00    -0.000 A 
ATOM     19  C   UNL A   1     -24.536   1.952  32.594  0.00  0.00    -0.000 A 
ATOM     20  C   UNL A   1     -25.382   2.988  32.218  0.00  0.00    -0.000 A 
ATOM     21  C   UNL A   1     -26.752   2.705  32.318  0.00  0.00    -0.003 A 
ENDBRANCH  15  16
ENDBRANCH  14  15
ENDBRANCH  13  14
ENDBRANCH   1  13
TORSDOF 6
