MODEL 414
MODEL 1
REMARK VINA RESULT:    -6.437      0.000      0.000
REMARK INTER + INTRA:          -8.866
REMARK INTER:                  -7.942
REMARK INTRA:                  -0.925
REMARK UNBOUND:                -0.925
REMARK  Name = No_414-gen_results/8p0m/2024-11-26-14-13-15/
REMARK  4 active torsions:
REMARK  status: ('A' for Active; 'I' for Inactive)
REMARK    1  A    between atoms: C_6  and  C_9
REMARK    2  A    between atoms: C_11  and  C_15
REMARK    3  A    between atoms: C_14  and  O_18
REMARK    4  A    between atoms: O_18  and  C_19
REMARK                            x       y       z     vdW  Elec       q    Type
REMARK                         _______ _______ _______ _____ _____    ______ ____
ROOT
ATOM      1  C   UNL A   1     -19.352 -21.110   6.779  0.00  0.00    +0.001 A 
ATOM      2  C   UNL A   1     -20.261 -21.131   7.318  0.00  0.00    +0.010 A 
ATOM      3  C   UNL A   1     -21.329 -20.133   7.408  0.00  0.00    +0.114 A 
ATOM      4  C   UNL A   1     -19.101 -19.773   5.995  0.00  0.00    +0.003 A 
ATOM      5  C   UNL A   1     -20.039 -18.785   5.959  0.00  0.00    +0.038 A 
ATOM      6  C   UNL A   1     -21.164 -18.962   6.700  0.00  0.00    +0.152 A 
ENDROOT
BRANCH   1  12
ATOM      7  C   UNL A   1     -15.721 -23.118   6.318  0.00  0.00    +0.012 A 
ATOM      8  C   UNL A   1     -16.479 -23.244   5.597  0.00  0.00    +0.012 A 
ATOM      9  C   UNL A   1     -16.085 -22.384   7.497  0.00  0.00    +0.058 A 
ATOM     10  C   UNL A   1     -17.251 -21.745   7.627  0.00  0.00    +0.012 A 
ATOM     11  C   UNL A   1     -17.797 -22.631   5.520  0.00  0.00    +0.058 A 
ATOM     12  C   UNL A   1     -18.140 -21.930   6.592  0.00  0.00    +0.011 A 
ATOM     13 CL   UNL A   1     -14.879 -22.279   8.773  0.00  0.00    -0.082 Cl
ATOM     14 CL   UNL A   1     -18.896 -22.774   4.165  0.00  0.00    -0.082 Cl
ENDBRANCH   1  12
BRANCH   3  15
ATOM     15  C   UNL A   1     -22.529 -20.388   8.210  0.00  0.00    +0.391 C 
ATOM     16  O   UNL A   1     -23.495 -20.814   7.749  0.00  0.00    -0.240 OA
ATOM     17  O   UNL A   1     -22.405 -19.967   9.447  0.00  0.00    -0.240 OA
ENDBRANCH   3  15
BRANCH   6  18
ATOM     18  O   UNL A   1     -22.071 -18.015   6.768  0.00  0.00    -0.451 OA
BRANCH  18  19
ATOM     19  C   UNL A   1     -21.995 -16.922   5.949  0.00  0.00    +0.175 C 
ATOM     20  C   UNL A   1     -22.613 -16.053   5.950  0.00  0.00    +0.015 C 
ATOM     21  C   UNL A   1     -22.480 -14.866   5.112  0.00  0.00    +0.034 C 
ENDBRANCH  18  19
ENDBRANCH   6  18
TORSDOF 4
ENDMDL
ENDMDL
