REMARK  Name = No_415-gen_results/8p0m/2024-11-26-14-13-15/
REMARK  1 active torsions:
REMARK  status: ('A' for Active; 'I' for Inactive)
REMARK    1  A    between atoms: C_5  and  C_10
REMARK                            x       y       z     vdW  Elec       q    Type
REMARK                         _______ _______ _______ _____ _____    ______ ____
ROOT
ATOM      1  C   UNL A   1     -28.016  -0.814  28.878  0.00  0.00    +0.076 A 
ATOM      2  C   UNL A   1     -27.064  -0.119  28.608  0.00  0.00    +0.006 A 
ATOM      3  C   UNL A   1     -26.972   0.714  27.506  0.00  0.00    +0.000 A 
ATOM      4  C   UNL A   1     -28.105   0.774  26.642  0.00  0.00    +0.007 A 
ATOM      5  C   UNL A   1     -29.201   0.104  27.053  0.00  0.00    +0.080 A 
ATOM      6  C   UNL A   1     -28.022  -1.590  30.088  0.00  0.00    +0.348 C 
ATOM      7  C   UNL A   1     -29.164  -0.639  28.148  0.00  0.00    +0.013 A 
ATOM      8  O   UNL A   1     -28.845  -1.957  30.662  0.00  0.00    -0.244 OA
ATOM      9  O   UNL A   1     -26.755  -2.149  30.413  0.00  0.00    -0.389 OA
ATOM     10  C   UNL A   1     -25.702   1.446  27.129  0.00  0.00    +0.000 A 
ATOM     11  C   UNL A   1     -25.517   2.385  26.352  0.00  0.00    +0.000 A 
ATOM     12  C   UNL A   1     -24.399   3.126  26.299  0.00  0.00    +0.000 A 
ATOM     13  C   UNL A   1     -23.190   2.651  26.904  0.00  0.00    +0.005 A 
ATOM     14  C   UNL A   1     -23.331   1.464  27.619  0.00  0.00    +0.055 A 
ATOM     15  C   UNL A   1     -24.543   0.851  27.839  0.00  0.00    +0.005 A 
ATOM     16  C   UNL A   1     -22.088   0.954  28.273  0.00  0.00    +0.271 C 
ATOM     17  N   UNL A   1     -22.155  -0.240  28.908  0.00  0.00    -0.129 N 
ATOM     18  O   UNL A   1     -21.011   1.534  28.165  0.00  0.00    -0.268 OA
ATOM     19  N   UNL A   1     -20.945  -0.787  29.384  0.00  0.00    -0.006 NA
ATOM     20  C   UNL A   1     -23.269  -1.046  29.202  0.00  0.00    +0.267 C 
ATOM     21  C   UNL A   1     -23.354  -0.996  30.694  0.00  0.00    +0.045 C 
ATOM     22  C   UNL A   1     -24.459  -1.836  31.191  0.00  0.00    +0.141 C 
ATOM     23  C   UNL A   1     -25.755  -1.952  30.363  0.00  0.00    +0.328 C 
ATOM     24  O   UNL A   1     -25.162  -1.855  29.015  0.00  0.00    -0.249 OA
ATOM     25  O   UNL A   1     -24.010  -1.488  28.483  0.00  0.00    -0.268 OA
ENDROOT
BRANCH   5  26
ATOM     26  C   UNL A   1     -30.374   0.209  26.165  0.00  0.00    +0.388 C 
ATOM     27  O   UNL A   1     -31.272  -0.416  26.324  0.00  0.00    -0.241 OA
ATOM     28  O   UNL A   1     -30.204   0.789  24.947  0.00  0.00    -0.241 OA
ENDBRANCH   5  26
TORSDOF 1
