MODEL 4150
MODEL 1
REMARK VINA RESULT:    -5.682      0.000      0.000
REMARK INTER + INTRA:          -7.171
REMARK INTER:                  -6.679
REMARK INTRA:                  -0.492
REMARK UNBOUND:                -0.492
REMARK  Name = No_4150-gen_results/8p0m/2024-11-26-14-13-15/
REMARK  3 active torsions:
REMARK  status: ('A' for Active; 'I' for Inactive)
REMARK    1  A    between atoms: C_2  and  N_7
REMARK    2  A    between atoms: C_4  and  C_13
REMARK    3  A    between atoms: C_13  and  C_15
REMARK                            x       y       z     vdW  Elec       q    Type
REMARK                         _______ _______ _______ _____ _____    ______ ____
ROOT
ATOM      1  C   UNL A   1      -9.659   0.142  36.308  0.00  0.00    +0.014 A 
ATOM      2  C   UNL A   1      -8.991   0.331  35.515  0.00  0.00    +0.048 A 
ATOM      3  C   UNL A   1     -11.047   0.719  36.140  0.00  0.00    -0.003 A 
ATOM      4  C   UNL A   1     -11.400   1.326  34.917  0.00  0.00    -0.021 A 
ATOM      5  C   UNL A   1      -9.111   0.892  34.150  0.00  0.00    +0.014 A 
ATOM      6  C   UNL A   1     -10.377   1.427  33.956  0.00  0.00    -0.003 A 
ENDROOT
BRANCH   2   7
ATOM      7  N   UNL A   1      -7.559  -0.198  35.484  0.00  0.00    -0.307 N 
ATOM      8  C   UNL A   1      -7.360  -1.295  34.785  0.00  0.00    +0.091 C 
ATOM      9  C   UNL A   1      -6.022  -1.668  34.540  0.00  0.00    +0.021 C 
ATOM     10  C   UNL A   1      -6.462   0.529  35.895  0.00  0.00    +0.091 C 
ATOM     11  C   UNL A   1      -5.163   0.140  35.668  0.00  0.00    +0.021 C 
ATOM     12  C   UNL A   1      -4.976  -1.002  34.994  0.00  0.00    +0.004 C 
ENDBRANCH   2   7
BRANCH   4  13
ATOM     13  C   UNL A   1     -12.657   1.842  34.533  0.00  0.00    +0.041 C 
ATOM     14  C   UNL A   1     -13.348   2.627  35.498  0.00  0.00    +0.006 C 
BRANCH  13  15
ATOM     15  C   UNL A   1     -13.324   1.468  33.359  0.00  0.00    +0.114 C 
ATOM     16  N   UNL A   1     -13.858   2.416  32.621  0.00  0.00    -0.131 NA
ENDBRANCH  13  15
ENDBRANCH   4  13
TORSDOF 3
ENDMDL
ENDMDL
