REMARK  Name = No_4150-gen_results/8p0m/2024-11-26-14-13-15/
REMARK  3 active torsions:
REMARK  status: ('A' for Active; 'I' for Inactive)
REMARK    1  A    between atoms: C_2  and  N_7
REMARK    2  A    between atoms: C_4  and  C_13
REMARK    3  A    between atoms: C_13  and  C_15
REMARK                            x       y       z     vdW  Elec       q    Type
REMARK                         _______ _______ _______ _____ _____    ______ ____
ROOT
ATOM      1  C   UNL A   1     -28.016  -0.814  28.878  0.00  0.00    +0.014 A 
ATOM      2  C   UNL A   1     -28.469  -0.785  29.829  0.00  0.00    +0.048 A 
ATOM      3  C   UNL A   1     -26.504  -0.778  28.877  0.00  0.00    -0.003 A 
ATOM      4  C   UNL A   1     -25.810  -0.853  30.103  0.00  0.00    -0.021 A 
ATOM      5  C   UNL A   1     -27.991  -0.892  31.226  0.00  0.00    +0.014 A 
ATOM      6  C   UNL A   1     -26.604  -0.868  31.265  0.00  0.00    -0.003 A 
ENDROOT
BRANCH   2   7
ATOM      7  N   UNL A   1     -29.981  -0.849  30.037  0.00  0.00    -0.307 N 
ATOM      8  C   UNL A   1     -30.703  -0.024  29.309  0.00  0.00    +0.091 C 
ATOM      9  C   UNL A   1     -32.099  -0.226  29.302  0.00  0.00    +0.021 C 
ATOM     10  C   UNL A   1     -30.622  -1.869  30.708  0.00  0.00    +0.091 C 
ATOM     11  C   UNL A   1     -31.986  -2.039  30.709  0.00  0.00    +0.021 C 
ATOM     12  C   UNL A   1     -32.711  -1.165  29.999  0.00  0.00    +0.004 C 
ENDBRANCH   2   7
BRANCH   4  13
ATOM     13  C   UNL A   1     -24.415  -0.921  30.310  0.00  0.00    +0.041 C 
ATOM     14  C   UNL A   1     -23.857   0.020  31.220  0.00  0.00    +0.006 C 
BRANCH  13  15
ATOM     15  C   UNL A   1     -23.554  -1.714  29.541  0.00  0.00    +0.114 C 
ATOM     16  N   UNL A   1     -22.296  -1.346  29.440  0.00  0.00    -0.131 NA
ENDBRANCH  13  15
ENDBRANCH   4  13
TORSDOF 3
