MODEL 4151
MODEL 1
REMARK VINA RESULT:    -5.067      0.000      0.000
REMARK INTER + INTRA:          -5.409
REMARK INTER:                  -5.363
REMARK INTRA:                  -0.046
REMARK UNBOUND:                -0.046
REMARK  Name = No_4151-gen_results/8p0m/2024-11-26-14-13-15/
REMARK  1 active torsions:
REMARK  status: ('A' for Active; 'I' for Inactive)
REMARK    1  A    between atoms: C_2  and  C_5
REMARK                            x       y       z     vdW  Elec       q    Type
REMARK                         _______ _______ _______ _____ _____    ______ ____
ROOT
ATOM      1  C   UNL A   1     -28.760 -10.690  32.727  0.00  0.00    +0.007 A 
ATOM      2  C   UNL A   1     -28.262 -11.504  32.280  0.00  0.00    +0.080 A 
ATOM      3  C   UNL A   1     -29.744 -10.050  31.844  0.00  0.00    +0.000 A 
ATOM      4  C   UNL A   1     -29.852 -10.359  30.550  0.00  0.00    +0.000 A 
ATOM      5  C   UNL A   1     -29.098 -11.393  30.088  0.00  0.00    +0.000 A 
ATOM      6  C   UNL A   1     -28.261 -12.003  30.955  0.00  0.00    +0.007 A 
ENDROOT
BRANCH   2   7
ATOM      7  C   UNL A   1     -27.195 -12.319  33.134  0.00  0.00    +0.388 C 
ATOM      8  O   UNL A   1     -26.442 -12.922  32.517  0.00  0.00    -0.241 OA
ATOM      9  O   UNL A   1     -27.367 -12.367  34.435  0.00  0.00    -0.241 OA
ENDBRANCH   2   7
TORSDOF 1
ENDMDL
ENDMDL
