REMARK  Name = No_4152-gen_results/8p0m/2024-11-26-14-13-15/
REMARK  4 active torsions:
REMARK  status: ('A' for Active; 'I' for Inactive)
REMARK    1  A    between atoms: C_2  and  C_5
REMARK    2  A    between atoms: C_4  and  C_16
REMARK    3  A    between atoms: N_9  and  C_10
REMARK    4  A    between atoms: C_16  and  C_17
REMARK                            x       y       z     vdW  Elec       q    Type
REMARK                         _______ _______ _______ _____ _____    ______ ____
ROOT
ATOM      1  C   UNL A   1     -28.016  -0.814  28.878  0.00  0.00    +0.004 A 
ATOM      2  C   UNL A   1     -28.469  -0.785  29.829  0.00  0.00    +0.055 A 
ATOM      3  C   UNL A   1     -26.504  -0.778  28.877  0.00  0.00    -0.004 A 
ATOM      4  C   UNL A   1     -25.810  -0.853  30.103  0.00  0.00    -0.018 A 
ATOM      5  C   UNL A   1     -26.567  -0.885  31.252  0.00  0.00    -0.004 A 
ATOM      6  C   UNL A   1     -27.941  -0.907  31.185  0.00  0.00    +0.004 A 
ENDROOT
BRANCH   2   7
ATOM      7  C   UNL A   1     -30.014  -0.841  29.851  0.00  0.00    +0.269 C 
ATOM      8  O   UNL A   1     -30.539  -0.429  28.996  0.00  0.00    -0.268 OA
ATOM      9  N   UNL A   1     -30.690  -1.499  30.929  0.00  0.00    -0.175 NA
BRANCH   9  10
ATOM     10  C   UNL A   1     -32.120  -1.591  30.891  0.00  0.00    +0.074 A 
ATOM     11  C   UNL A   1     -32.584  -2.503  31.550  0.00  0.00    +0.017 A 
ATOM     12  C   UNL A   1     -33.979  -2.813  31.540  0.00  0.00    +0.001 A 
ATOM     13  C   UNL A   1     -34.789  -1.951  30.727  0.00  0.00    +0.000 A 
ATOM     14  C   UNL A   1     -34.186  -0.972  29.987  0.00  0.00    +0.001 A 
ATOM     15  C   UNL A   1     -32.822  -0.745  30.033  0.00  0.00    +0.017 A 
ENDBRANCH   9  10
ENDBRANCH   2   7
BRANCH   4  16
ATOM     16  C   UNL A   1     -24.345  -0.810  30.098  0.00  0.00    +0.053 C 
BRANCH  16  17
ATOM     17  C   UNL A   1     -23.594  -0.463  29.068  0.00  0.00    -0.018 A 
ATOM     18  C   UNL A   1     -22.154  -0.326  29.201  0.00  0.00    -0.004 A 
ATOM     19  C   UNL A   1     -21.411   0.168  28.123  0.00  0.00    -0.000 A 
ATOM     20  C   UNL A   1     -22.061   1.082  27.258  0.00  0.00    -0.000 A 
ATOM     21  C   UNL A   1     -23.465   1.267  27.298  0.00  0.00    -0.000 A 
ATOM     22  C   UNL A   1     -24.193   0.605  28.218  0.00  0.00    -0.004 A 
ENDBRANCH  16  17
ENDBRANCH   4  16
TORSDOF 4
