MODEL 4152
MODEL 1
REMARK VINA RESULT:    -7.044      0.000      0.000
REMARK INTER + INTRA:          -9.222
REMARK INTER:                  -8.691
REMARK INTRA:                  -0.531
REMARK UNBOUND:                -0.531
REMARK  Name = No_4152-gen_results/8p0m/2024-11-26-14-13-15/
REMARK  4 active torsions:
REMARK  status: ('A' for Active; 'I' for Inactive)
REMARK    1  A    between atoms: C_2  and  C_5
REMARK    2  A    between atoms: C_4  and  C_16
REMARK    3  A    between atoms: N_9  and  C_10
REMARK    4  A    between atoms: C_16  and  C_17
REMARK                            x       y       z     vdW  Elec       q    Type
REMARK                         _______ _______ _______ _____ _____    ______ ____
ROOT
ATOM      1  C   UNL A   1     -26.902   2.358  25.395  0.00  0.00    +0.004 A 
ATOM      2  C   UNL A   1     -26.594   1.406  25.064  0.00  0.00    +0.055 A 
ATOM      3  C   UNL A   1     -28.182   2.878  24.779  0.00  0.00    -0.004 A 
ATOM      4  C   UNL A   1     -28.938   2.032  23.940  0.00  0.00    -0.018 A 
ATOM      5  C   UNL A   1     -28.419   0.785  23.673  0.00  0.00    -0.004 A 
ATOM      6  C   UNL A   1     -27.244   0.375  24.260  0.00  0.00    +0.004 A 
ENDROOT
BRANCH   2   7
ATOM      7  C   UNL A   1     -25.298   0.850  25.698  0.00  0.00    +0.269 C 
ATOM      8  O   UNL A   1     -24.577   0.388  25.032  0.00  0.00    -0.268 OA
ATOM      9  N   UNL A   1     -25.049   1.036  27.096  0.00  0.00    -0.175 NA
BRANCH   9  10
ATOM     10  C   UNL A   1     -23.811   0.566  27.644  0.00  0.00    +0.074 A 
ATOM     11  C   UNL A   1     -23.905  -0.456  28.299  0.00  0.00    +0.017 A 
ATOM     12  C   UNL A   1     -22.795  -1.006  29.010  0.00  0.00    +0.001 A 
ATOM     13  C   UNL A   1     -21.561  -0.287  28.865  0.00  0.00    +0.000 A 
ATOM     14  C   UNL A   1     -21.547   0.874  28.142  0.00  0.00    +0.001 A 
ATOM     15  C   UNL A   1     -22.671   1.356  27.497  0.00  0.00    +0.017 A 
ENDBRANCH   9  10
ENDBRANCH   2   7
BRANCH   4  16
ATOM     16  C   UNL A   1     -30.174   2.542  23.339  0.00  0.00    +0.053 C 
BRANCH  16  17
ATOM     17  C   UNL A   1     -30.944   1.878  22.496  0.00  0.00    -0.018 A 
ATOM     18  C   UNL A   1     -31.668   2.564  21.440  0.00  0.00    -0.004 A 
ATOM     19  C   UNL A   1     -32.573   1.845  20.651  0.00  0.00    -0.000 A 
ATOM     20  C   UNL A   1     -33.225   0.745  21.260  0.00  0.00    -0.000 A 
ATOM     21  C   UNL A   1     -32.782   0.215  22.497  0.00  0.00    -0.000 A 
ATOM     22  C   UNL A   1     -31.755   0.804  23.138  0.00  0.00    -0.004 A 
ENDBRANCH  16  17
ENDBRANCH   4  16
TORSDOF 4
ENDMDL
ENDMDL
