MODEL 4153
MODEL 1
REMARK VINA RESULT:    -5.326      0.000      0.000
REMARK INTER + INTRA:          -5.781
REMARK INTER:                  -5.637
REMARK INTRA:                  -0.144
REMARK UNBOUND:                -0.144
REMARK  Name = No_4153-gen_results/8p0m/2024-11-26-14-13-15/
REMARK  1 active torsions:
REMARK  status: ('A' for Active; 'I' for Inactive)
REMARK    1  A    between atoms: C_4  and  C_7
REMARK                            x       y       z     vdW  Elec       q    Type
REMARK                         _______ _______ _______ _____ _____    ______ ____
ROOT
ATOM      1  C   UNL A   1     -24.629  -5.214  28.900  0.00  0.00    -0.000 A 
ATOM      2  C   UNL A   1     -25.610  -5.155  29.280  0.00  0.00    -0.000 A 
ATOM      3  C   UNL A   1     -23.945  -3.937  28.640  0.00  0.00    -0.000 A 
ATOM      4  C   UNL A   1     -24.545  -2.703  29.025  0.00  0.00    -0.000 A 
ATOM      5  C   UNL A   1     -25.803  -2.788  29.566  0.00  0.00    -0.000 A 
ATOM      6  C   UNL A   1     -26.395  -3.986  29.758  0.00  0.00    -0.000 A 
ENDROOT
BRANCH   4   7
ATOM      7  C   UNL A   1     -23.883  -1.444  28.795  0.00  0.00    -0.005 C 
ATOM      8  C   UNL A   1     -22.698  -1.156  29.170  0.00  0.00    -0.026 C 
ATOM      9  C   UNL A   1     -21.988   0.055  28.739  0.00  0.00    +0.031 C 
ENDBRANCH   4   7
TORSDOF 1
ENDMDL
ENDMDL
