REMARK  Name = No_4154-gen_results/8p0m/2024-11-26-14-13-15/
REMARK  2 active torsions:
REMARK  status: ('A' for Active; 'I' for Inactive)
REMARK    1  A    between atoms: C_3  and  C_7
REMARK    2  A    between atoms: N_8  and  C_12
REMARK                            x       y       z     vdW  Elec       q    Type
REMARK                         _______ _______ _______ _____ _____    ______ ____
ROOT
ATOM      1  C   UNL A   1     -26.317   0.399  27.365  0.00  0.00    +0.323 C 
ATOM      2  N   UNL A   1     -25.072   0.157  27.430  0.00  0.00    -0.166 N 
ATOM      3  N   UNL A   1     -26.896   0.647  26.239  0.00  0.00    -0.060 NA
ATOM      4  C   UNL A   1     -25.846   0.509  25.324  0.00  0.00    +0.314 C 
ATOM      5  C   UNL A   1     -24.690   0.288  26.034  0.00  0.00    +0.265 C 
ENDROOT
BRANCH   1   8
ATOM      6  C   UNL A   1     -28.016  -0.814  28.878  0.00  0.00    +0.007 A 
ATOM      7  C   UNL A   1     -28.469  -0.785  29.829  0.00  0.00    +0.000 A 
ATOM      8  C   UNL A   1     -27.087   0.290  28.638  0.00  0.00    +0.082 A 
ATOM      9  C   UNL A   1     -26.832   1.249  29.587  0.00  0.00    +0.007 A 
ATOM     10  C   UNL A   1     -28.391   0.080  31.006  0.00  0.00    +0.000 A 
ATOM     11  C   UNL A   1     -27.494   1.152  30.784  0.00  0.00    +0.000 A 
ENDBRANCH   1   8
BRANCH   2  12
ATOM     12  C   UNL A   1     -24.148  -0.099  28.424  0.00  0.00    +0.139 A 
ATOM     13  C   UNL A   1     -24.149  -1.334  29.125  0.00  0.00    +0.040 A 
ATOM     14  C   UNL A   1     -23.258   0.967  28.742  0.00  0.00    +0.040 A 
ATOM     15  C   UNL A   1     -22.215   0.651  29.699  0.00  0.00    +0.004 A 
ATOM     16  C   UNL A   1     -23.204  -1.541  30.124  0.00  0.00    +0.004 A 
ATOM     17  C   UNL A   1     -22.262  -0.526  30.431  0.00  0.00    +0.000 A 
ENDBRANCH   2  12
TORSDOF 2
