MODEL 4154
MODEL 1
REMARK VINA RESULT:    -6.686      0.000      0.000
REMARK INTER + INTRA:          -8.180
REMARK INTER:                  -7.468
REMARK INTRA:                  -0.712
REMARK UNBOUND:                -0.712
REMARK  Name = No_4154-gen_results/8p0m/2024-11-26-14-13-15/
REMARK  2 active torsions:
REMARK  status: ('A' for Active; 'I' for Inactive)
REMARK    1  A    between atoms: C_3  and  C_7
REMARK    2  A    between atoms: N_8  and  C_12
REMARK                            x       y       z     vdW  Elec       q    Type
REMARK                         _______ _______ _______ _____ _____    ______ ____
ROOT
ATOM      1  C   UNL A   1     -24.483  -0.180  29.784  0.00  0.00    +0.323 C 
ATOM      2  N   UNL A   1     -24.802  -1.119  28.991  0.00  0.00    -0.166 N 
ATOM      3  N   UNL A   1     -24.389   1.041  29.378  0.00  0.00    -0.060 NA
ATOM      4  C   UNL A   1     -24.759   0.940  28.032  0.00  0.00    +0.314 C 
ATOM      5  C   UNL A   1     -24.940  -0.391  27.740  0.00  0.00    +0.265 C 
ENDROOT
BRANCH   1   8
ATOM      6  C   UNL A   1     -23.067  -1.122  31.722  0.00  0.00    +0.007 A 
ATOM      7  C   UNL A   1     -23.074  -1.304  32.760  0.00  0.00    +0.000 A 
ATOM      8  C   UNL A   1     -24.314  -0.547  31.220  0.00  0.00    +0.082 A 
ATOM      9  C   UNL A   1     -25.372  -0.262  32.049  0.00  0.00    +0.007 A 
ATOM     10  C   UNL A   1     -24.020  -1.106  33.857  0.00  0.00    +0.000 A 
ATOM     11  C   UNL A   1     -25.232  -0.549  33.382  0.00  0.00    +0.000 A 
ENDBRANCH   1   8
BRANCH   2  12
ATOM     12  C   UNL A   1     -24.951  -2.490  29.063  0.00  0.00    +0.139 A 
ATOM     13  C   UNL A   1     -26.119  -3.071  29.625  0.00  0.00    +0.040 A 
ATOM     14  C   UNL A   1     -23.845  -3.266  28.613  0.00  0.00    +0.040 A 
ATOM     15  C   UNL A   1     -24.055  -4.701  28.579  0.00  0.00    +0.004 A 
ATOM     16  C   UNL A   1     -26.219  -4.457  29.684  0.00  0.00    +0.004 A 
ATOM     17  C   UNL A   1     -25.163  -5.266  29.192  0.00  0.00    +0.000 A 
ENDBRANCH   2  12
TORSDOF 2
ENDMDL
ENDMDL
