MODEL 4155
MODEL 1
REMARK VINA RESULT:    -5.349      0.000      0.000
REMARK INTER + INTRA:          -5.805
REMARK INTER:                  -5.662
REMARK INTRA:                  -0.142
REMARK UNBOUND:                -0.142
REMARK  Name = No_4155-gen_results/8p0m/2024-11-26-14-13-15/
REMARK  1 active torsions:
REMARK  status: ('A' for Active; 'I' for Inactive)
REMARK    1  A    between atoms: C_4  and  C_7
REMARK                            x       y       z     vdW  Elec       q    Type
REMARK                         _______ _______ _______ _____ _____    ______ ____
ROOT
ATOM      1  C   UNL A   1     -26.564  -4.000  29.856  0.00  0.00    -0.000 A 
ATOM      2  C   UNL A   1     -26.052  -4.885  29.599  0.00  0.00    -0.000 A 
ATOM      3  C   UNL A   1     -25.778  -2.720  29.680  0.00  0.00    +0.004 A 
ATOM      4  C   UNL A   1     -24.508  -2.767  29.067  0.00  0.00    +0.071 A 
ATOM      5  C   UNL A   1     -24.773  -5.202  28.925  0.00  0.00    -0.000 A 
ATOM      6  C   UNL A   1     -24.025  -4.048  28.740  0.00  0.00    +0.004 A 
ENDROOT
BRANCH   4   7
ATOM      7  C   UNL A   1     -23.717  -1.598  28.892  0.00  0.00    +0.419 C 
ATOM      8  F   UNL A   1     -22.562  -1.807  28.856  0.00  0.00    -0.166 F 
ATOM      9  F   UNL A   1     -23.919  -0.724  29.952  0.00  0.00    -0.166 F 
ATOM     10  F   UNL A   1     -24.104  -0.841  27.816  0.00  0.00    -0.166 F 
ENDBRANCH   4   7
TORSDOF 1
ENDMDL
ENDMDL
