REMARK  Name = No_4155-gen_results/8p0m/2024-11-26-14-13-15/
REMARK  1 active torsions:
REMARK  status: ('A' for Active; 'I' for Inactive)
REMARK    1  A    between atoms: C_4  and  C_7
REMARK                            x       y       z     vdW  Elec       q    Type
REMARK                         _______ _______ _______ _____ _____    ______ ____
ROOT
ATOM      1  C   UNL A   1     -28.016  -0.814  28.878  0.00  0.00    -0.000 A 
ATOM      2  C   UNL A   1     -28.469  -0.785  29.829  0.00  0.00    -0.000 A 
ATOM      3  C   UNL A   1     -26.504  -0.778  28.877  0.00  0.00    +0.004 A 
ATOM      4  C   UNL A   1     -25.810  -0.853  30.103  0.00  0.00    +0.071 A 
ATOM      5  C   UNL A   1     -27.991  -0.892  31.226  0.00  0.00    -0.000 A 
ATOM      6  C   UNL A   1     -26.604  -0.868  31.265  0.00  0.00    +0.004 A 
ENDROOT
BRANCH   4   7
ATOM      7  C   UNL A   1     -24.389  -0.805  30.164  0.00  0.00    +0.419 C 
ATOM      8  F   UNL A   1     -23.928  -1.469  31.015  0.00  0.00    -0.166 F 
ATOM      9  F   UNL A   1     -23.968   0.494  30.414  0.00  0.00    -0.166 F 
ATOM     10  F   UNL A   1     -23.789  -1.077  28.961  0.00  0.00    -0.166 F 
ENDBRANCH   4   7
TORSDOF 1
