MODEL 4156
MODEL 1
REMARK VINA RESULT:    -5.383      0.000      0.000
REMARK INTER + INTRA:          -6.362
REMARK INTER:                  -6.013
REMARK INTRA:                  -0.349
REMARK UNBOUND:                -0.349
REMARK  Name = No_4156-gen_results/8p0m/2024-11-26-14-13-15/
REMARK  2 active torsions:
REMARK  status: ('A' for Active; 'I' for Inactive)
REMARK    1  A    between atoms: C_3  and  C_7
REMARK    2  A    between atoms: C_7  and  C_9
REMARK                            x       y       z     vdW  Elec       q    Type
REMARK                         _______ _______ _______ _____ _____    ______ ____
ROOT
ATOM      1  C   UNL A   1     -23.885  -3.873  28.526  0.00  0.00    -0.003 A 
ATOM      2  C   UNL A   1     -24.235  -4.849  28.714  0.00  0.00    -0.000 A 
ATOM      3  C   UNL A   1     -24.690  -2.801  29.038  0.00  0.00    -0.006 A 
ATOM      4  C   UNL A   1     -25.898  -2.990  29.578  0.00  0.00    -0.003 A 
ATOM      5  C   UNL A   1     -25.513  -5.286  29.259  0.00  0.00    -0.000 A 
ATOM      6  C   UNL A   1     -26.279  -4.305  29.717  0.00  0.00    -0.000 A 
ENDROOT
BRANCH   3   7
ATOM      7  C   UNL A   1     -24.141  -1.373  28.880  0.00  0.00    +0.146 C 
ATOM      8 BR   UNL A   1     -24.766  -0.229  27.613  0.00  0.00    -0.071 Br
BRANCH   7   9
ATOM      9  C   UNL A   1     -23.033  -0.861  29.622  0.00  0.00    +0.333 C 
ATOM     10  F   UNL A   1     -22.917  -1.165  30.773  0.00  0.00    -0.197 F 
ATOM     11  F   UNL A   1     -21.914  -1.196  28.940  0.00  0.00    -0.197 F 
ENDBRANCH   7   9
ENDBRANCH   3   7
TORSDOF 2
ENDMDL
ENDMDL
