MODEL 4157
MODEL 1
REMARK VINA RESULT:    -8.355      0.000      0.000
REMARK INTER + INTRA:         -11.863
REMARK INTER:                 -10.797
REMARK INTRA:                  -1.066
REMARK UNBOUND:                -1.066
REMARK  Name = No_4157-gen_results/8p0m/2024-11-26-14-13-15/
REMARK  5 active torsions:
REMARK  status: ('A' for Active; 'I' for Inactive)
REMARK    1  A    between atoms: C_1  and  C_2
REMARK    2  A    between atoms: N_8  and  C_10
REMARK    3  A    between atoms: C_16  and  C_25
REMARK    4  A    between atoms: C_20  and  C_21
REMARK    5  A    between atoms: C_29  and  C_31
REMARK                            x       y       z     vdW  Elec       q    Type
REMARK                         _______ _______ _______ _____ _____    ______ ____
ROOT
ATOM      1  C   UNL A   1     -27.036   1.547  26.490  0.00  0.00    +0.269 C 
ATOM      2  N   UNL A   1     -27.417   1.633  25.129  0.00  0.00    -0.175 NA
ATOM      3  O   UNL A   1     -27.969   1.150  27.241  0.00  0.00    -0.268 OA
ENDROOT
BRANCH   1   4
ATOM      4  C   UNL A   1     -25.871   1.500  26.812  0.00  0.00    +0.055 A 
ATOM      5  C   UNL A   1     -25.372   0.432  27.550  0.00  0.00    +0.001 A 
ATOM      6  C   UNL A   1     -23.965   0.265  28.015  0.00  0.00    -0.008 A 
ATOM      7  C   UNL A   1     -23.026   1.217  27.519  0.00  0.00    +0.051 A 
ATOM      8  C   UNL A   1     -23.544   2.258  26.722  0.00  0.00    +0.004 A 
ATOM      9  C   UNL A   1     -24.834   2.385  26.381  0.00  0.00    +0.005 A 
ATOM     10  C   UNL A   1     -21.654   1.052  27.940  0.00  0.00    +0.265 C 
ATOM     11  N   UNL A   1     -21.273  -0.061  28.603  0.00  0.00    -0.201 NA
ATOM     12  O   UNL A   1     -20.792   1.821  27.445  0.00  0.00    -0.268 OA
ATOM     13  C   UNL A   1     -22.050  -1.022  29.139  0.00  0.00    +0.128 C 
ATOM     14  C   UNL A   1     -23.524  -0.893  28.799  0.00  0.00    +0.139 C 
BRANCH  14  15
ATOM     15  C   UNL A   1     -24.416  -1.907  29.229  0.00  0.00    +0.403 C 
ATOM     16  F   UNL A   1     -25.127  -1.381  30.127  0.00  0.00    -0.170 F 
ATOM     17  F   UNL A   1     -23.676  -2.824  29.893  0.00  0.00    -0.170 F 
ATOM     18  F   UNL A   1     -25.003  -2.452  28.204  0.00  0.00    -0.170 F 
ENDBRANCH  14  15
ENDBRANCH   1   4
BRANCH   2  19
ATOM     19  C   UNL A   1     -28.775   1.596  24.596  0.00  0.00    +0.074 A 
ATOM     20  C   UNL A   1     -29.039   0.323  24.174  0.00  0.00    +0.017 A 
ATOM     21  C   UNL A   1     -30.127   0.289  23.237  0.00  0.00    +0.001 A 
ATOM     22  C   UNL A   1     -30.827   1.460  22.890  0.00  0.00    +0.000 A 
ATOM     23  C   UNL A   1     -30.372   2.696  23.336  0.00  0.00    +0.001 A 
ATOM     24  C   UNL A   1     -29.218   2.726  24.029  0.00  0.00    +0.017 A 
BRANCH  22  25
ATOM     25  C   UNL A   1     -32.025   1.399  21.988  0.00  0.00    -0.000 A 
ATOM     26  C   UNL A   1     -32.888   0.552  22.040  0.00  0.00    -0.000 A 
ATOM     27  C   UNL A   1     -34.056   0.553  21.155  0.00  0.00    -0.000 A 
ATOM     28  C   UNL A   1     -34.135   1.593  20.244  0.00  0.00    +0.001 A 
ATOM     29  C   UNL A   1     -33.150   2.539  20.157  0.00  0.00    +0.044 A 
ATOM     30  C   UNL A   1     -32.073   2.465  20.968  0.00  0.00    +0.001 A 
BRANCH  29  31
ATOM     31  C   UNL A   1     -33.256   3.622  19.166  0.00  0.00    +0.341 C 
ATOM     32  F   UNL A   1     -33.312   3.603  18.006  0.00  0.00    -0.193 F 
ATOM     33  F   UNL A   1     -33.159   4.831  19.707  0.00  0.00    -0.193 F 
ENDBRANCH  29  31
ENDBRANCH  22  25
ENDBRANCH   2  19
TORSDOF 5
ENDMDL
ENDMDL
