MODEL 4158
MODEL 1
REMARK VINA RESULT:    -5.914      0.000      0.000
REMARK INTER + INTRA:          -6.344
REMARK INTER:                  -6.260
REMARK INTRA:                  -0.084
REMARK UNBOUND:                -0.084
REMARK  Name = No_4158-gen_results/8p0m/2024-11-26-14-13-15/
REMARK  1 active torsions:
REMARK  status: ('A' for Active; 'I' for Inactive)
REMARK    1  A    between atoms: C_3  and  C_5
REMARK                            x       y       z     vdW  Elec       q    Type
REMARK                         _______ _______ _______ _____ _____    ______ ____
ROOT
ATOM      1  O   UNL A   1     -10.599  -8.723  20.129  0.00  0.00    -0.273 OA
ATOM      2  C   UNL A   1      -9.954  -9.310  19.375  0.00  0.00    +0.245 C 
ATOM      3  C   UNL A   1      -8.971  -9.756  19.272  0.00  0.00    +0.100 C 
ATOM      4  N   UNL A   1     -10.802  -9.674  18.131  0.00  0.00    -0.205 NA
ATOM      5  C   UNL A   1     -10.539 -10.348  17.292  0.00  0.00    +0.115 C 
ATOM      6  C   UNL A   1      -9.229 -10.921  17.208  0.00  0.00    +0.024 C 
ATOM      7  C   UNL A   1      -8.411 -10.713  18.208  0.00  0.00    +0.015 C 
ENDROOT
BRANCH   3   8
ATOM      8  C   UNL A   1      -7.935  -9.708  20.263  0.00  0.00    -0.022 C 
ATOM      9  C   UNL A   1      -6.982  -9.188  20.422  0.00  0.00    -0.030 C 
ATOM     10  C   UNL A   1      -6.857  -7.845  19.644  0.00  0.00    +0.030 C 
ENDBRANCH   3   8
TORSDOF 1
ENDMDL
ENDMDL
