REMARK  Name = No_4159-gen_results/8p0m/2024-11-26-14-13-15/
REMARK  1 active torsions:
REMARK  status: ('A' for Active; 'I' for Inactive)
REMARK    1  A    between atoms: C_5  and  C_9
REMARK                            x       y       z     vdW  Elec       q    Type
REMARK                         _______ _______ _______ _____ _____    ______ ____
ROOT
ATOM      1  C   UNL A   1     -28.016  -0.814  28.878  0.00  0.00    +0.271 C 
ATOM      2  C   UNL A   1     -27.064  -0.119  28.608  0.00  0.00    +0.012 C 
ATOM      3  C   UNL A   1     -26.876   1.133  28.913  0.00  0.00    +0.027 C 
ATOM      4  C   UNL A   1     -25.688   1.952  28.567  0.00  0.00    +0.006 C 
ATOM      5  C   UNL A   1     -24.639   1.283  27.875  0.00  0.00    +0.018 C 
ATOM      6  C   UNL A   1     -24.807  -0.051  27.604  0.00  0.00    +0.006 C 
ATOM      7  C   UNL A   1     -25.902  -0.767  27.951  0.00  0.00    +0.027 C 
ATOM      8  F   UNL A   1     -28.436  -0.277  30.164  0.00  0.00    -0.173 F 
ATOM      9  F   UNL A   1     -27.813  -2.120  29.279  0.00  0.00    -0.173 F 
ENDROOT
BRANCH   5  10
ATOM     10  C   UNL A   1     -23.440   1.979  27.464  0.00  0.00    +0.092 C 
ATOM     11  N   UNL A   1     -22.266   2.280  27.864  0.00  0.00    -0.133 NA
ATOM     12  C   UNL A   1     -23.632   2.568  26.036  0.00  0.00    +0.021 C 
ENDBRANCH   5  10
TORSDOF 1
