MODEL 415
MODEL 1
REMARK VINA RESULT:    -7.639      0.000      0.000
REMARK INTER + INTRA:          -8.213
REMARK INTER:                  -8.085
REMARK INTRA:                  -0.128
REMARK UNBOUND:                -0.128
REMARK  Name = No_415-gen_results/8p0m/2024-11-26-14-13-15/
REMARK  1 active torsions:
REMARK  status: ('A' for Active; 'I' for Inactive)
REMARK    1  A    between atoms: C_5  and  C_10
REMARK                            x       y       z     vdW  Elec       q    Type
REMARK                         _______ _______ _______ _____ _____    ______ ____
ROOT
ATOM      1  C   UNL A   1     -29.944 -10.170  32.802  0.00  0.00    +0.076 A 
ATOM      2  C   UNL A   1     -30.252 -10.251  31.636  0.00  0.00    +0.006 A 
ATOM      3  C   UNL A   1     -29.533 -10.931  30.667  0.00  0.00    +0.000 A 
ATOM      4  C   UNL A   1     -28.354 -11.611  31.093  0.00  0.00    +0.007 A 
ATOM      5  C   UNL A   1     -28.123 -11.624  32.422  0.00  0.00    +0.080 A 
ATOM      6  C   UNL A   1     -30.807  -9.489  33.729  0.00  0.00    +0.348 C 
ATOM      7  C   UNL A   1     -28.909 -10.951  33.247  0.00  0.00    +0.013 A 
ATOM      8  O   UNL A   1     -30.905  -9.607  34.786  0.00  0.00    -0.244 OA
ATOM      9  O   UNL A   1     -31.426  -8.329  33.186  0.00  0.00    -0.389 OA
ATOM     10  C   UNL A   1     -29.876 -10.875  29.194  0.00  0.00    +0.000 A 
ATOM     11  C   UNL A   1     -29.509 -11.587  28.257  0.00  0.00    +0.000 A 
ATOM     12  C   UNL A   1     -30.084 -11.613  27.044  0.00  0.00    +0.000 A 
ATOM     13  C   UNL A   1     -30.951 -10.548  26.635  0.00  0.00    +0.005 A 
ATOM     14  C   UNL A   1     -31.214  -9.606  27.626  0.00  0.00    +0.055 A 
ATOM     15  C   UNL A   1     -30.786  -9.734  28.927  0.00  0.00    +0.005 A 
ATOM     16  C   UNL A   1     -32.129  -8.492  27.230  0.00  0.00    +0.271 C 
ATOM     17  N   UNL A   1     -32.347  -7.506  28.132  0.00  0.00    -0.129 N 
ATOM     18  O   UNL A   1     -32.596  -8.406  26.098  0.00  0.00    -0.268 OA
ATOM     19  N   UNL A   1     -33.081  -6.383  27.696  0.00  0.00    -0.006 NA
ATOM     20  C   UNL A   1     -31.970  -7.417  29.483  0.00  0.00    +0.267 C 
ATOM     21  C   UNL A   1     -33.272  -7.469  30.215  0.00  0.00    +0.045 C 
ATOM     22  C   UNL A   1     -33.069  -7.341  31.670  0.00  0.00    +0.141 C 
ATOM     23  C   UNL A   1     -31.813  -7.960  32.317  0.00  0.00    +0.328 C 
ATOM     24  O   UNL A   1     -30.870  -7.756  31.201  0.00  0.00    -0.249 OA
ATOM     25  O   UNL A   1     -30.934  -7.460  29.915  0.00  0.00    -0.268 OA
ENDROOT
BRANCH   5  26
ATOM     26  C   UNL A   1     -26.920 -12.364  32.845  0.00  0.00    +0.388 C 
ATOM     27  O   UNL A   1     -26.266 -12.867  32.109  0.00  0.00    -0.241 OA
ATOM     28  O   UNL A   1     -26.828 -12.744  34.148  0.00  0.00    -0.241 OA
ENDBRANCH   5  26
TORSDOF 1
ENDMDL
ENDMDL
