MODEL 4160
MODEL 1
REMARK VINA RESULT:    -6.832      0.000      0.000
REMARK INTER + INTRA:         -10.162
REMARK INTER:                  -9.228
REMARK INTRA:                  -0.934
REMARK UNBOUND:                -0.934
REMARK  Name = No_4160-gen_results/8p0m/2024-11-26-14-13-15/
REMARK  6 active torsions:
REMARK  status: ('A' for Active; 'I' for Inactive)
REMARK    1  A    between atoms: C_2  and  C_3
REMARK    2  A    between atoms: C_2  and  O_4
REMARK    3  A    between atoms: C_3  and  C_5
REMARK    4  A    between atoms: O_4  and  C_13
REMARK    5  A    between atoms: C_5  and  C_6
REMARK    6  A    between atoms: C_6  and  C_7
REMARK                            x       y       z     vdW  Elec       q    Type
REMARK                         _______ _______ _______ _____ _____    ______ ____
ROOT
ATOM      1  O   UNL A   1     -24.302   1.122  25.647  0.00  0.00    -0.250 OA
ATOM      2  C   UNL A   1     -24.964   0.355  26.196  0.00  0.00    +0.322 C 
ENDROOT
BRANCH   2   3
ATOM      3  C   UNL A   1     -24.910  -0.415  26.958  0.00  0.00    +0.110 C 
BRANCH   3   4
ATOM      4  C   UNL A   1     -25.226  -0.367  28.270  0.00  0.00    +0.016 C 
BRANCH   4   5
ATOM      5  C   UNL A   1     -24.701  -1.363  29.040  0.00  0.00    +0.023 C 
ATOM      6  C   UNL A   1     -24.579  -0.772  30.528  0.00  0.00    +0.005 C 
BRANCH   5   7
ATOM      7  C   UNL A   1     -24.917  -2.627  29.064  0.00  0.00    -0.022 A 
ATOM      8  C   UNL A   1     -23.866  -3.388  28.612  0.00  0.00    -0.004 A 
ATOM      9  C   UNL A   1     -24.114  -4.782  28.627  0.00  0.00    -0.000 A 
ATOM     10  C   UNL A   1     -25.263  -5.279  29.192  0.00  0.00    -0.000 A 
ATOM     11  C   UNL A   1     -26.248  -4.479  29.676  0.00  0.00    -0.000 A 
ATOM     12  C   UNL A   1     -26.117  -3.125  29.598  0.00  0.00    -0.004 A 
ENDBRANCH   5   7
ENDBRANCH   4   5
ENDBRANCH   3   4
ENDBRANCH   2   3
BRANCH   2  13
ATOM     13  O   UNL A   1     -26.373   0.605  25.775  0.00  0.00    -0.421 OA
BRANCH  13  14
ATOM     14  C   UNL A   1     -26.647   0.307  24.497  0.00  0.00    +0.181 C 
ATOM     15  C   UNL A   1     -27.582   0.650  24.111  0.00  0.00    +0.043 C 
ATOM     16  C   UNL A   1     -28.624   0.215  23.916  0.00  0.00    +0.139 C 
ATOM     17  C   UNL A   1     -29.862   0.782  23.191  0.00  0.00    +0.029 C 
ATOM     18  C   UNL A   1     -30.648   1.418  23.316  0.00  0.00    -0.002 C 
ATOM     19  C   UNL A   1     -27.916   2.180  24.447  0.00  0.00    +0.036 C 
ATOM     20  C   UNL A   1     -30.044   2.786  23.807  0.00  0.00    -0.026 C 
ATOM     21  C   UNL A   1     -28.872   2.993  24.388  0.00  0.00    +0.031 C 
ATOM     22  F   UNL A   1     -28.694  -1.145  23.959  0.00  0.00    -0.204 F 
ENDBRANCH  13  14
ENDBRANCH   2  13
TORSDOF 6
ENDMDL
ENDMDL
