MODEL 4161
MODEL 1
REMARK VINA RESULT:    -4.271      0.000      0.000
REMARK INTER + INTRA:          -4.271
REMARK INTER:                  -4.271
REMARK INTRA:                   0.000
REMARK UNBOUND:                 0.000
REMARK  Name = No_4161-gen_results/8p0m/2024-11-26-14-13-15/
REMARK  0 active torsions:
REMARK  status: ('A' for Active; 'I' for Inactive)
REMARK                            x       y       z     vdW  Elec       q    Type
REMARK                         _______ _______ _______ _____ _____    ______ ____
ROOT
ATOM      1  C   UNL A   1     -25.087  -5.354  29.121  0.00  0.00    +0.000 A 
ATOM      2  C   UNL A   1     -26.070  -4.805  29.563  0.00  0.00    +0.000 A 
ATOM      3  C   UNL A   1     -26.146  -3.446  29.797  0.00  0.00    +0.000 A 
ATOM      4  C   UNL A   1     -25.017  -2.647  29.461  0.00  0.00    +0.000 A 
ATOM      5  C   UNL A   1     -24.011  -3.280  28.814  0.00  0.00    +0.000 A 
ATOM      6  C   UNL A   1     -24.041  -4.581  28.595  0.00  0.00    +0.000 A 
ENDROOT
TORSDOF 0
ENDMDL
ENDMDL
