REMARK  Name = No_4162-gen_results/8p0m/2024-11-26-14-13-15/
REMARK  4 active torsions:
REMARK  status: ('A' for Active; 'I' for Inactive)
REMARK    1  A    between atoms: C_3  and  C_7
REMARK    2  A    between atoms: C_7  and  C_8
REMARK    3  A    between atoms: C_8  and  C_9
REMARK    4  A    between atoms: C_10  and  C_11
REMARK                            x       y       z     vdW  Elec       q    Type
REMARK                         _______ _______ _______ _____ _____    ______ ____
ROOT
ATOM      1  C   UNL A   1     -27.450   0.375  26.707  0.00  0.00    +0.031 C 
ENDROOT
BRANCH   1   4
ATOM      2  C   UNL A   1     -28.016  -0.814  28.878  0.00  0.00    -0.004 A 
ATOM      3  C   UNL A   1     -28.469  -0.785  29.829  0.00  0.00    -0.000 A 
ATOM      4  C   UNL A   1     -28.196   0.348  28.055  0.00  0.00    -0.022 A 
ATOM      5  C   UNL A   1     -29.019   1.350  28.378  0.00  0.00    -0.004 A 
ATOM      6  C   UNL A   1     -29.625   1.268  29.601  0.00  0.00    -0.000 A 
ATOM      7  C   UNL A   1     -29.382   0.182  30.400  0.00  0.00    -0.000 A 
ENDBRANCH   1   4
BRANCH   1   8
ATOM      8  C   UNL A   1     -26.479   1.370  26.605  0.00  0.00    +0.027 C 
BRANCH   8   9
ATOM      9  C   UNL A   1     -25.364   1.362  27.530  0.00  0.00    -0.044 C 
ATOM     10  C   UNL A   1     -24.832   0.523  28.117  0.00  0.00    -0.009 C 
ATOM     11  C   UNL A   1     -24.263   2.495  27.448  0.00  0.00    +0.026 C 
BRANCH  10  12
ATOM     12  C   UNL A   1     -23.696   0.644  28.975  0.00  0.00    -0.001 C 
ATOM     13  C   UNL A   1     -23.263  -0.356  29.892  0.00  0.00    -0.000 C 
ENDBRANCH  10  12
ENDBRANCH   8   9
ENDBRANCH   1   8
TORSDOF 4
