MODEL 4162
MODEL 1
REMARK VINA RESULT:    -6.126      0.000      0.000
REMARK INTER + INTRA:          -8.116
REMARK INTER:                  -7.559
REMARK INTRA:                  -0.557
REMARK UNBOUND:                -0.557
REMARK  Name = No_4162-gen_results/8p0m/2024-11-26-14-13-15/
REMARK  4 active torsions:
REMARK  status: ('A' for Active; 'I' for Inactive)
REMARK    1  A    between atoms: C_3  and  C_7
REMARK    2  A    between atoms: C_7  and  C_8
REMARK    3  A    between atoms: C_8  and  C_9
REMARK    4  A    between atoms: C_10  and  C_11
REMARK                            x       y       z     vdW  Elec       q    Type
REMARK                         _______ _______ _______ _____ _____    ______ ____
ROOT
ATOM      1  C   UNL A   1     -24.283  -1.265  29.557  0.00  0.00    +0.031 C 
ENDROOT
BRANCH   1   4
ATOM      2  C   UNL A   1     -23.856  -3.613  28.691  0.00  0.00    -0.004 A 
ATOM      3  C   UNL A   1     -24.142  -4.627  28.658  0.00  0.00    -0.000 A 
ATOM      4  C   UNL A   1     -24.737  -2.729  29.400  0.00  0.00    -0.022 A 
ATOM      5  C   UNL A   1     -25.935  -3.105  29.856  0.00  0.00    -0.004 A 
ATOM      6  C   UNL A   1     -26.256  -4.425  29.703  0.00  0.00    -0.000 A 
ATOM      7  C   UNL A   1     -25.368  -5.266  29.086  0.00  0.00    -0.000 A 
ENDBRANCH   1   4
BRANCH   1   8
ATOM      8  C   UNL A   1     -22.928  -1.051  29.311  0.00  0.00    +0.027 C 
BRANCH   8   9
ATOM      9  C   UNL A   1     -22.539  -0.039  28.349  0.00  0.00    -0.044 C 
ATOM     10  C   UNL A   1     -23.121   0.790  27.798  0.00  0.00    -0.009 C 
ATOM     11  C   UNL A   1     -21.049   0.490  28.320  0.00  0.00    +0.026 C 
BRANCH  10  12
ATOM     12  C   UNL A   1     -22.602   1.768  26.895  0.00  0.00    -0.001 C 
ATOM     13  C   UNL A   1     -23.323   2.323  25.800  0.00  0.00    -0.000 C 
ENDBRANCH  10  12
ENDBRANCH   8   9
ENDBRANCH   1   8
TORSDOF 4
ENDMDL
ENDMDL
