REMARK  Name = No_4163-gen_results/8p0m/2024-11-26-14-13-15/
REMARK  9 active torsions:
REMARK  status: ('A' for Active; 'I' for Inactive)
REMARK    1  A    between atoms: C_3  and  C_7
REMARK    2  A    between atoms: C_6  and  C_13
REMARK    3  A    between atoms: C_12  and  N_16
REMARK    4  A    between atoms: C_13  and  O_15
REMARK    5  A    between atoms: O_15  and  C_30
REMARK    6  A    between atoms: C_17  and  C_19
REMARK    7  A    between atoms: C_20  and  C_21
REMARK    8  A    between atoms: C_21  and  C_22
REMARK    9  A    between atoms: C_31  and  C_32
REMARK                            x       y       z     vdW  Elec       q    Type
REMARK                         _______ _______ _______ _____ _____    ______ ____
ROOT
ATOM      1  C   UNL A   1     -24.544   0.413  28.738  0.00  0.00    +0.001 A 
ATOM      2  C   UNL A   1     -23.323   0.048  29.050  0.00  0.00    +0.000 A 
ATOM      3  C   UNL A   1     -22.200   0.841  28.719  0.00  0.00    +0.001 A 
ATOM      4  C   UNL A   1     -22.363   1.839  27.717  0.00  0.00    +0.015 A 
ATOM      5  C   UNL A   1     -24.604   1.516  27.812  0.00  0.00    +0.015 A 
ATOM      6  C   UNL A   1     -23.558   2.190  27.359  0.00  0.00    +0.054 A 
ENDROOT
BRANCH   1   9
ATOM      7  C   UNL A   1     -28.016  -0.814  28.878  0.00  0.00    +0.006 A 
ATOM      8  C   UNL A   1     -27.064  -0.119  28.608  0.00  0.00    +0.000 A 
ATOM      9  C   UNL A   1     -25.765  -0.390  29.036  0.00  0.00    +0.000 A 
ATOM     10  C   UNL A   1     -25.530  -1.530  29.901  0.00  0.00    +0.000 A 
ATOM     11  C   UNL A   1     -26.658  -2.292  30.203  0.00  0.00    +0.006 A 
ATOM     12  C   UNL A   1     -27.855  -1.956  29.763  0.00  0.00    +0.076 A 
BRANCH  12  13
ATOM     13  C   UNL A   1     -29.025  -2.780  30.184  0.00  0.00    +0.346 C 
ATOM     14  O   UNL A   1     -28.945  -4.012  30.258  0.00  0.00    -0.244 OA
BRANCH  13  15
ATOM     15  O   UNL A   1     -30.112  -2.228  30.522  0.00  0.00    -0.418 OA
BRANCH  15  16
ATOM     16  C   UNL A   1     -30.393  -1.251  30.881  0.00  0.00    +0.183 C 
ATOM     17  C   UNL A   1     -30.137  -0.902  32.206  0.00  0.00    +0.041 C 
BRANCH  17  18
ATOM     18  C   UNL A   1     -30.350  -1.658  33.195  0.00  0.00    +0.003 C 
ATOM     19  C   UNL A   1     -29.962  -1.369  34.581  0.00  0.00    +0.000 C 
ENDBRANCH  17  18
ENDBRANCH  15  16
ENDBRANCH  13  15
ENDBRANCH  12  13
ENDBRANCH   1   9
BRANCH   6  20
ATOM     20  N   UNL A   1     -23.548   3.215  26.433  0.00  0.00    -0.253 N 
ATOM     21  C   UNL A   1     -24.551   4.161  26.560  0.00  0.00    +0.253 C 
ATOM     22  C   UNL A   1     -23.607   2.633  25.004  0.00  0.00    +0.120 C 
ATOM     23  O   UNL A   1     -25.757   4.015  26.326  0.00  0.00    -0.270 OA
BRANCH  21  24
ATOM     24  C   UNL A   1     -23.996   5.384  27.026  0.00  0.00    +0.054 C 
ATOM     25  C   UNL A   1     -24.952   6.534  27.319  0.00  0.00    -0.017 C 
BRANCH  25  26
ATOM     26  C   UNL A   1     -24.477   7.772  27.750  0.00  0.00    +0.052 C 
BRANCH  26  27
ATOM     27  C   UNL A   1     -25.200   8.663  28.533  0.00  0.00    -0.018 A 
ATOM     28  C   UNL A   1     -24.695   9.849  29.069  0.00  0.00    -0.003 A 
ATOM     29  C   UNL A   1     -25.467  10.806  29.730  0.00  0.00    +0.011 A 
ATOM     30  C   UNL A   1     -26.809  10.418  29.946  0.00  0.00    +0.058 A 
ATOM     31  C   UNL A   1     -27.332   9.303  29.489  0.00  0.00    +0.011 A 
ATOM     32  C   UNL A   1     -26.562   8.401  28.740  0.00  0.00    -0.003 A 
ATOM     33 CL   UNL A   1     -27.770  11.579  30.871  0.00  0.00    -0.082 Cl
ENDBRANCH  26  27
ENDBRANCH  25  26
ENDBRANCH  21  24
ENDBRANCH   6  20
TORSDOF 9
