REMARK  Name = No_4164-gen_results/8p0m/2024-11-26-14-13-15/
REMARK  10 active torsions:
REMARK  status: ('A' for Active; 'I' for Inactive)
REMARK    1  A    between atoms: C_1  and  C_2
REMARK    2  A    between atoms: C_3  and  C_4
REMARK    3  A    between atoms: C_5  and  C_6
REMARK    4  A    between atoms: C_5  and  C_7
REMARK    5  A    between atoms: C_7  and  O_10
REMARK    6  A    between atoms: O_10  and  C_12
REMARK    7  A    between atoms: C_12  and  C_26
REMARK    8  A    between atoms: C_13  and  N_20
REMARK    9  A    between atoms: N_20  and  C_21
REMARK   10  A    between atoms: C_21  and  P_22
REMARK                            x       y       z     vdW  Elec       q    Type
REMARK                         _______ _______ _______ _____ _____    ______ ____
ROOT
ATOM      1  C   UNL A   1     -28.016  -0.814  28.878  0.00  0.00    +0.174 C 
ATOM      2  O   UNL A   1     -28.015  -1.608  30.038  0.00  0.00    -0.335 OA
ATOM      3  C   UNL A   1     -27.670  -1.743  28.744  0.00  0.00    +0.222 C 
ATOM      4  C   UNL A   1     -27.267  -1.361  31.112  0.00  0.00    +0.193 C 
ATOM      5  C   UNL A   1     -26.753  -2.739  29.307  0.00  0.00    +0.191 C 
ATOM      6  F   UNL A   1     -27.720  -2.203  27.722  0.00  0.00    -0.232 F 
ATOM      7  C   UNL A   1     -26.586  -2.736  30.700  0.00  0.00    +0.084 C 
ATOM      8  O   UNL A   1     -25.426  -2.608  28.856  0.00  0.00    -0.220 OA
ENDROOT
BRANCH   1   9
ATOM      9  C   UNL A   1     -27.064  -0.119  28.608  0.00  0.00    +0.006 C 
ATOM     10  C   UNL A   1     -27.001   0.691  27.491  0.00  0.00    -0.002 C 
BRANCH  10  11
ATOM     11  C   UNL A   1     -28.137   0.736  26.635  0.00  0.00    +0.005 C 
ATOM     12  C   UNL A   1     -29.236   0.076  27.069  0.00  0.00    +0.095 C 
BRANCH  12  13
ATOM     13  C   UNL A   1     -30.381   0.205  26.266  0.00  0.00    +0.285 C 
ATOM     14  O   UNL A   1     -31.398   0.553  26.585  0.00  0.00    -0.267 OA
ATOM     15  N   UNL A   1     -30.181  -0.243  24.988  0.00  0.00    -0.084 NA
ENDBRANCH  12  13
BRANCH  12  16
ATOM     16  C   UNL A   1     -29.180  -0.642  28.183  0.00  0.00    +0.307 C 
ATOM     17  F   UNL A   1     -29.906   0.094  28.783  0.00  0.00    -0.199 F 
BRANCH  16  18
ATOM     18  O   UNL A   1     -30.311  -1.325  28.526  0.00  0.00    -0.315 OA
BRANCH  18  19
ATOM     19  C   UNL A   1     -31.448  -1.464  28.765  0.00  0.00    +0.217 C 
BRANCH  19  20
ATOM     20  C   UNL A   1     -31.791  -2.446  29.806  0.00  0.00    +0.240 C 
ATOM     21  O   UNL A   1     -31.064  -2.499  30.769  0.00  0.00    -0.285 OA
ENDBRANCH  19  20
ENDBRANCH  18  19
ENDBRANCH  16  18
ENDBRANCH  12  16
ENDBRANCH  10  11
ENDBRANCH   1   9
BRANCH   4  22
ATOM     22  N   UNL A   1     -26.973  -0.128  31.088  0.00  0.00    -0.184 NA
BRANCH  22  23
ATOM     23  C   UNL A   1     -25.793   0.332  31.730  0.00  0.00    +0.149 C 
BRANCH  23  24
ATOM     24  P   UNL A   1     -25.028   1.719  31.639  0.00  0.00    +0.135 P 
ATOM     25  O   UNL A   1     -25.862   2.500  30.498  0.00  0.00    -0.459 OA
ATOM     26  O   UNL A   1     -25.308   2.504  32.875  0.00  0.00    -0.356 OA
ATOM     27  O   UNL A   1     -23.668   1.612  31.086  0.00  0.00    -0.356 OA
ENDBRANCH  23  24
ENDBRANCH  22  23
ENDBRANCH   4  22
TORSDOF 10
