MODEL 4164
MODEL 1
REMARK VINA RESULT:    -5.589      0.000      0.000
REMARK INTER + INTRA:         -10.578
REMARK INTER:                  -8.856
REMARK INTRA:                  -1.722
REMARK UNBOUND:                -1.722
REMARK  Name = No_4164-gen_results/8p0m/2024-11-26-14-13-15/
REMARK  10 active torsions:
REMARK  status: ('A' for Active; 'I' for Inactive)
REMARK    1  A    between atoms: C_1  and  C_2
REMARK    2  A    between atoms: C_3  and  C_4
REMARK    3  A    between atoms: C_5  and  C_6
REMARK    4  A    between atoms: C_5  and  C_7
REMARK    5  A    between atoms: C_7  and  O_10
REMARK    6  A    between atoms: O_10  and  C_12
REMARK    7  A    between atoms: C_12  and  C_26
REMARK    8  A    between atoms: C_13  and  N_20
REMARK    9  A    between atoms: N_20  and  C_21
REMARK   10  A    between atoms: C_21  and  P_22
REMARK                            x       y       z     vdW  Elec       q    Type
REMARK                         _______ _______ _______ _____ _____    ______ ____
ROOT
ATOM      1  C   UNL A   1      -8.321   1.168  10.542  0.00  0.00    +0.174 C 
ATOM      2  O   UNL A   1      -9.596   1.609  10.939  0.00  0.00    -0.335 OA
ATOM      3  C   UNL A   1      -8.650   0.769  11.399  0.00  0.00    +0.222 C 
ATOM      4  C   UNL A   1      -9.879   2.865  11.280  0.00  0.00    +0.193 C 
ATOM      5  C   UNL A   1      -9.265   1.112  12.685  0.00  0.00    +0.191 C 
ATOM      6  F   UNL A   1      -8.248  -0.224  11.730  0.00  0.00    -0.232 F 
ATOM      7  C   UNL A   1     -10.150   2.201  12.698  0.00  0.00    +0.084 C 
ATOM      8  O   UNL A   1      -8.337   1.482  13.677  0.00  0.00    -0.220 OA
ENDROOT
BRANCH   1   9
ATOM      9  C   UNL A   1      -7.330   1.773  10.877  0.00  0.00    +0.006 C 
ATOM     10  C   UNL A   1      -6.139   1.735  10.179  0.00  0.00    -0.002 C 
BRANCH  10  11
ATOM     11  C   UNL A   1      -6.093   0.972   8.978  0.00  0.00    +0.005 C 
ATOM     12  C   UNL A   1      -5.222  -0.063   8.964  0.00  0.00    +0.095 C 
BRANCH  12  13
ATOM     13  C   UNL A   1      -5.252  -0.869   7.814  0.00  0.00    +0.285 C 
ATOM     14  O   UNL A   1      -5.854  -1.801   7.653  0.00  0.00    -0.267 OA
ATOM     15  N   UNL A   1      -4.360  -0.458   6.860  0.00  0.00    -0.084 NA
ENDBRANCH  12  13
BRANCH  12  16
ATOM     16  C   UNL A   1      -4.406  -0.256   9.992  0.00  0.00    +0.307 C 
ATOM     17  F   UNL A   1      -5.037  -1.177  10.417  0.00  0.00    -0.199 F 
BRANCH  16  18
ATOM     18  O   UNL A   1      -3.628  -1.377   9.951  0.00  0.00    -0.315 OA
BRANCH  18  19
ATOM     19  C   UNL A   1      -2.635  -1.995   9.993  0.00  0.00    +0.217 C 
BRANCH  19  20
ATOM     20  C   UNL A   1      -2.184  -2.611   8.735  0.00  0.00    +0.240 C 
ATOM     21  O   UNL A   1      -2.930  -3.409   8.219  0.00  0.00    -0.285 OA
ENDBRANCH  19  20
ENDBRANCH  18  19
ENDBRANCH  16  18
ENDBRANCH  12  16
ENDBRANCH  10  11
ENDBRANCH   1   9
BRANCH   4  22
ATOM     22  N   UNL A   1      -8.998   3.605  10.748  0.00  0.00    -0.184 NA
BRANCH  22  23
ATOM     23  C   UNL A   1      -9.310   4.350   9.580  0.00  0.00    +0.149 C 
BRANCH  23  24
ATOM     24  P   UNL A   1      -9.139   4.000   8.042  0.00  0.00    +0.135 P 
ATOM     25  O   UNL A   1      -9.761   5.303   7.319  0.00  0.00    -0.459 OA
ATOM     26  O   UNL A   1      -7.691   4.065   7.693  0.00  0.00    -0.356 OA
ATOM     27  O   UNL A   1      -9.992   2.890   7.587  0.00  0.00    -0.356 OA
ENDBRANCH  23  24
ENDBRANCH  22  23
ENDBRANCH   4  22
TORSDOF 10
ENDMDL
ENDMDL
