REMARK  Name = No_4165-gen_results/8p0m/2024-11-26-14-13-15/
REMARK  4 active torsions:
REMARK  status: ('A' for Active; 'I' for Inactive)
REMARK    1  A    between atoms: C_2  and  C_23
REMARK    2  A    between atoms: C_4  and  C_7
REMARK    3  A    between atoms: C_8  and  C_14
REMARK    4  A    between atoms: N_16  and  C_17
REMARK                            x       y       z     vdW  Elec       q    Type
REMARK                         _______ _______ _______ _____ _____    ______ ____
ROOT
ATOM      1  C   UNL A   1     -24.389  -0.805  30.164  0.00  0.00    +0.027 C 
ATOM      2  C   UNL A   1     -23.817   0.476  29.912  0.00  0.00    +0.082 C 
ATOM      3  C   UNL A   1     -22.501   0.545  29.410  0.00  0.00    +0.009 C 
ATOM      4  C   UNL A   1     -21.770  -0.652  29.213  0.00  0.00    +0.001 C 
ATOM      5  C   UNL A   1     -23.681  -1.359  31.325  0.00  0.00    +0.005 C 
ATOM      6  C   UNL A   1     -23.806  -1.793  29.108  0.00  0.00    +0.004 C 
ATOM      7  C   UNL A   1     -22.840  -1.579  28.548  0.00  0.00    +0.000 C 
ENDROOT
BRANCH   1  11
ATOM      8  C   UNL A   1     -28.016  -0.814  28.878  0.00  0.00    +0.006 A 
ATOM      9  C   UNL A   1     -28.469  -0.785  29.829  0.00  0.00    +0.080 A 
ATOM     10  C   UNL A   1     -26.504  -0.778  28.877  0.00  0.00    -0.004 A 
ATOM     11  C   UNL A   1     -25.810  -0.853  30.103  0.00  0.00    -0.022 A 
ATOM     12  C   UNL A   1     -27.991  -0.892  31.226  0.00  0.00    +0.006 A 
ATOM     13  C   UNL A   1     -26.604  -0.868  31.265  0.00  0.00    -0.004 A 
BRANCH   9  14
ATOM     14  C   UNL A   1     -30.071  -0.726  29.850  0.00  0.00    +0.388 C 
ATOM     15  O   UNL A   1     -30.779  -1.454  30.379  0.00  0.00    -0.241 OA
ATOM     16  O   UNL A   1     -30.554   0.044  28.833  0.00  0.00    -0.241 OA
ENDBRANCH   9  14
ENDBRANCH   1  11
BRANCH   2  17
ATOM     17  C   UNL A   1     -24.471   1.742  30.247  0.00  0.00    +0.245 C 
ATOM     18  O   UNL A   1     -24.642   2.172  31.390  0.00  0.00    -0.273 OA
ATOM     19  N   UNL A   1     -25.076   2.406  29.218  0.00  0.00    -0.179 NA
BRANCH  19  20
ATOM     20  C   UNL A   1     -25.920   3.660  29.462  0.00  0.00    +0.073 A 
ATOM     21  C   UNL A   1     -26.613   3.839  30.352  0.00  0.00    +0.017 A 
ATOM     22  C   UNL A   1     -27.480   4.885  30.401  0.00  0.00    +0.001 A 
ATOM     23  C   UNL A   1     -25.961   4.427  28.288  0.00  0.00    +0.017 A 
ATOM     24  C   UNL A   1     -26.708   5.583  28.271  0.00  0.00    +0.001 A 
ATOM     25  C   UNL A   1     -27.514   5.820  29.383  0.00  0.00    +0.000 A 
ENDBRANCH  19  20
ENDBRANCH   2  17
TORSDOF 4
