REMARK  Name = No_4166-gen_results/8p0m/2024-11-26-14-13-15/
REMARK  5 active torsions:
REMARK  status: ('A' for Active; 'I' for Inactive)
REMARK    1  A    between atoms: C_2  and  C_14
REMARK    2  A    between atoms: C_3  and  C_4
REMARK    3  A    between atoms: C_4  and  C_8
REMARK    4  A    between atoms: C_9  and  C_17
REMARK    5  A    between atoms: C_17  and  C_18
REMARK                            x       y       z     vdW  Elec       q    Type
REMARK                         _______ _______ _______ _____ _____    ______ ____
ROOT
ATOM      1  C   UNL A   1     -25.220   0.687  27.394  0.00  0.00    -0.021 A 
ATOM      2  C   UNL A   1     -25.303   1.079  26.073  0.00  0.00    -0.021 A 
ATOM      3  C   UNL A   1     -24.660   1.548  28.317  0.00  0.00    -0.004 A 
ATOM      4  C   UNL A   1     -24.169   2.790  27.865  0.00  0.00    -0.000 A 
ATOM      5  C   UNL A   1     -24.250   3.175  26.539  0.00  0.00    -0.000 A 
ATOM      6  C   UNL A   1     -24.826   2.269  25.633  0.00  0.00    -0.004 A 
ENDROOT
BRANCH   1   7
ATOM      7  C   UNL A   1     -25.654  -0.660  27.719  0.00  0.00    +0.052 C 
BRANCH   7  10
ATOM      8  C   UNL A   1     -28.016  -0.814  28.878  0.00  0.00    +0.003 A 
ATOM      9  C   UNL A   1     -28.469  -0.785  29.829  0.00  0.00    +0.080 A 
ATOM     10  C   UNL A   1     -26.504  -0.778  28.877  0.00  0.00    -0.018 A 
ATOM     11  C   UNL A   1     -27.918  -0.937  31.182  0.00  0.00    +0.007 A 
ATOM     12  C   UNL A   1     -26.542  -0.940  31.261  0.00  0.00    -0.000 A 
ATOM     13  C   UNL A   1     -25.783  -0.893  30.120  0.00  0.00    -0.004 A 
BRANCH   9  14
ATOM     14  C   UNL A   1     -30.041  -0.845  30.026  0.00  0.00    +0.388 C 
ATOM     15  O   UNL A   1     -30.658  -0.220  29.295  0.00  0.00    -0.241 OA
ATOM     16  O   UNL A   1     -30.605  -1.585  30.905  0.00  0.00    -0.241 OA
ENDBRANCH   9  14
ENDBRANCH   7  10
ENDBRANCH   1   7
BRANCH   2  17
ATOM     17  C   UNL A   1     -25.864   0.233  25.035  0.00  0.00    +0.052 C 
BRANCH  17  18
ATOM     18  C   UNL A   1     -27.303   0.018  25.008  0.00  0.00    -0.018 A 
ATOM     19  C   UNL A   1     -28.128   0.841  25.768  0.00  0.00    -0.004 A 
ATOM     20  C   UNL A   1     -29.561   0.733  25.648  0.00  0.00    -0.000 A 
ATOM     21  C   UNL A   1     -30.033  -0.246  24.817  0.00  0.00    -0.000 A 
ATOM     22  C   UNL A   1     -29.221  -0.972  23.985  0.00  0.00    -0.000 A 
ATOM     23  C   UNL A   1     -27.876  -0.831  24.062  0.00  0.00    -0.004 A 
ENDBRANCH  17  18
ENDBRANCH   2  17
TORSDOF 5
