MODEL 4166
MODEL 1
REMARK VINA RESULT:    -7.720      0.000      0.000
REMARK INTER + INTRA:         -11.484
REMARK INTER:                  -9.977
REMARK INTRA:                  -1.507
REMARK UNBOUND:                -1.507
REMARK  Name = No_4166-gen_results/8p0m/2024-11-26-14-13-15/
REMARK  5 active torsions:
REMARK  status: ('A' for Active; 'I' for Inactive)
REMARK    1  A    between atoms: C_2  and  C_14
REMARK    2  A    between atoms: C_3  and  C_4
REMARK    3  A    between atoms: C_4  and  C_8
REMARK    4  A    between atoms: C_9  and  C_17
REMARK    5  A    between atoms: C_17  and  C_18
REMARK                            x       y       z     vdW  Elec       q    Type
REMARK                         _______ _______ _______ _____ _____    ______ ____
ROOT
ATOM      1  C   UNL A   1     -24.056  -2.226  29.362  0.00  0.00    -0.021 A 
ATOM      2  C   UNL A   1     -25.189  -1.947  30.100  0.00  0.00    -0.021 A 
ATOM      3  C   UNL A   1     -23.935  -3.461  28.757  0.00  0.00    -0.004 A 
ATOM      4  C   UNL A   1     -24.969  -4.402  28.939  0.00  0.00    -0.000 A 
ATOM      5  C   UNL A   1     -26.099  -4.118  29.684  0.00  0.00    -0.000 A 
ATOM      6  C   UNL A   1     -26.182  -2.851  30.284  0.00  0.00    -0.004 A 
ENDROOT
BRANCH   1   7
ATOM      7  C   UNL A   1     -23.008  -1.220  29.341  0.00  0.00    +0.052 C 
BRANCH   7  10
ATOM      8  C   UNL A   1     -24.295  -0.051  27.360  0.00  0.00    +0.003 A 
ATOM      9  C   UNL A   1     -24.174   0.698  26.630  0.00  0.00    +0.080 A 
ATOM     10  C   UNL A   1     -23.156  -0.188  28.346  0.00  0.00    -0.018 A 
ATOM     11  C   UNL A   1     -23.206   1.796  26.503  0.00  0.00    +0.007 A 
ATOM     12  C   UNL A   1     -22.149   1.755  27.387  0.00  0.00    -0.000 A 
ATOM     13  C   UNL A   1     -22.096   0.789  28.357  0.00  0.00    -0.004 A 
BRANCH   9  14
ATOM     14  C   UNL A   1     -25.278   1.007  25.534  0.00  0.00    +0.388 C 
ATOM     15  O   UNL A   1     -25.434   0.197  24.744  0.00  0.00    -0.241 OA
ATOM     16  O   UNL A   1     -25.998   2.065  25.550  0.00  0.00    -0.241 OA
ENDBRANCH   9  14
ENDBRANCH   7  10
ENDBRANCH   1   7
BRANCH   2  17
ATOM     17  C   UNL A   1     -25.392  -0.680  30.780  0.00  0.00    +0.052 C 
BRANCH  17  18
ATOM     18  C   UNL A   1     -25.257  -0.633  32.228  0.00  0.00    -0.018 A 
ATOM     19  C   UNL A   1     -26.366  -0.310  33.005  0.00  0.00    -0.004 A 
ATOM     20  C   UNL A   1     -26.287  -0.393  34.442  0.00  0.00    -0.000 A 
ATOM     21  C   UNL A   1     -25.071  -0.732  34.970  0.00  0.00    -0.000 A 
ATOM     22  C   UNL A   1     -24.020  -1.162  34.202  0.00  0.00    -0.000 A 
ATOM     23  C   UNL A   1     -24.114  -1.134  32.851  0.00  0.00    -0.004 A 
ENDBRANCH  17  18
ENDBRANCH   2  17
TORSDOF 5
ENDMDL
ENDMDL
