MODEL 4167
MODEL 1
REMARK VINA RESULT:    -6.575      0.000      0.000
REMARK INTER + INTRA:         -12.992
REMARK INTER:                 -10.035
REMARK INTRA:                  -2.957
REMARK UNBOUND:                -2.957
REMARK  Name = No_4167-gen_results/8p0m/2024-11-26-14-13-15/
REMARK  9 active torsions:
REMARK  status: ('A' for Active; 'I' for Inactive)
REMARK    1  A    between atoms: C_1  and  N_8
REMARK    2  A    between atoms: C_3  and  C_29
REMARK    3  A    between atoms: C_5  and  C_9
REMARK    4  A    between atoms: C_7  and  C_16
REMARK    5  A    between atoms: N_15  and  C_19
REMARK    6  A    between atoms: C_29  and  C_30
REMARK    7  A    between atoms: C_30  and  C_32
REMARK    8  A    between atoms: C_32  and  N_33
REMARK    9  A    between atoms: N_33  and  C_34
REMARK                            x       y       z     vdW  Elec       q    Type
REMARK                         _______ _______ _______ _____ _____    ______ ____
ROOT
ATOM      1  C   UNL A   1     -25.288   2.668  26.574  0.00  0.00    +0.095 C 
ATOM      2  C   UNL A   1     -26.286   2.372  25.958  0.00  0.00    -0.015 C 
ATOM      3  C   UNL A   1     -27.347   3.250  25.740  0.00  0.00    +0.025 C 
ATOM      4  C   UNL A   1     -28.601   2.970  25.014  0.00  0.00    +0.013 C 
ATOM      5  C   UNL A   1     -28.640   1.739  24.293  0.00  0.00    +0.096 C 
ATOM      6  C   UNL A   1     -27.574   0.846  24.447  0.00  0.00    +0.024 C 
ATOM      7  C   UNL A   1     -26.481   1.120  25.193  0.00  0.00    +0.123 C 
ENDROOT
BRANCH   1   8
ATOM      8  N   UNL A   1     -25.367   2.571  27.953  0.00  0.00    -0.203 NA
ATOM      9  C   UNL A   1     -25.048   2.006  28.777  0.00  0.00    +0.300 C 
ATOM     10  F   UNL A   1     -25.197   2.381  30.108  0.00  0.00    -0.164 F 
ATOM     11  N   UNL A   1     -24.424   0.830  28.681  0.00  0.00    -0.169 NA
BRANCH  11  12
ATOM     12  C   UNL A   1     -23.956  -0.051  29.715  0.00  0.00    +0.074 A 
ATOM     13  C   UNL A   1     -23.009  -0.584  29.617  0.00  0.00    +0.017 A 
ATOM     14  C   UNL A   1     -22.975  -1.882  29.119  0.00  0.00    +0.001 A 
ATOM     15  C   UNL A   1     -24.123  -2.714  29.363  0.00  0.00    +0.000 A 
ATOM     16  C   UNL A   1     -24.229  -4.042  28.933  0.00  0.00    +0.000 A 
ATOM     17  C   UNL A   1     -25.437  -4.776  29.124  0.00  0.00    +0.000 A 
ATOM     18  C   UNL A   1     -26.487  -4.068  29.760  0.00  0.00    +0.000 A 
ATOM     19  C   UNL A   1     -26.427  -2.776  30.133  0.00  0.00    +0.000 A 
ATOM     20  C   UNL A   1     -25.278  -2.062  29.868  0.00  0.00    +0.001 A 
ATOM     21  C   UNL A   1     -25.108  -0.956  30.221  0.00  0.00    +0.017 A 
ENDBRANCH  11  12
ENDBRANCH   1   8
BRANCH   5  22
ATOM     22  C   UNL A   1     -29.832   1.507  23.523  0.00  0.00    +0.398 C 
ATOM     23  F   UNL A   1     -30.043   2.345  22.649  0.00  0.00    -0.170 F 
ATOM     24  F   UNL A   1     -29.913   0.290  22.916  0.00  0.00    -0.170 F 
ATOM     25  F   UNL A   1     -30.963   1.485  24.310  0.00  0.00    -0.170 F 
ENDBRANCH   5  22
BRANCH   7  26
ATOM     26  C   UNL A   1     -25.405   0.131  25.320  0.00  0.00    +0.368 C 
ATOM     27  O   UNL A   1     -24.659   0.098  24.399  0.00  0.00    -0.245 OA
ATOM     28  O   UNL A   1     -25.516  -0.762  26.290  0.00  0.00    -0.245 OA
ENDBRANCH   7  26
BRANCH   3  29
ATOM     29  C   UNL A   1     -27.372   4.636  26.347  0.00  0.00    +0.028 C 
BRANCH  29  30
ATOM     30  C   UNL A   1     -28.244   4.905  27.307  0.00  0.00    -0.027 C 
ATOM     31  C   UNL A   1     -29.179   5.913  26.971  0.00  0.00    -0.008 C 
BRANCH  30  32
ATOM     32  C   UNL A   1     -28.367   4.273  28.541  0.00  0.00    +0.111 C 
BRANCH  32  33
ATOM     33  N   UNL A   1     -29.418   3.538  28.779  0.00  0.00    -0.214 NA
BRANCH  33  34
ATOM     34  C   UNL A   1     -29.746   2.437  28.477  0.00  0.00    +0.089 C 
ATOM     35  C   UNL A   1     -28.752   1.298  28.554  0.00  0.00    +0.020 C 
ENDBRANCH  33  34
ENDBRANCH  32  33
ENDBRANCH  30  32
ENDBRANCH  29  30
ENDBRANCH   3  29
TORSDOF 9
ENDMDL
ENDMDL
