REMARK  Name = No_4167-gen_results/8p0m/2024-11-26-14-13-15/
REMARK  9 active torsions:
REMARK  status: ('A' for Active; 'I' for Inactive)
REMARK    1  A    between atoms: C_1  and  N_8
REMARK    2  A    between atoms: C_3  and  C_29
REMARK    3  A    between atoms: C_5  and  C_9
REMARK    4  A    between atoms: C_7  and  C_16
REMARK    5  A    between atoms: N_15  and  C_19
REMARK    6  A    between atoms: C_29  and  C_30
REMARK    7  A    between atoms: C_30  and  C_32
REMARK    8  A    between atoms: C_32  and  N_33
REMARK    9  A    between atoms: N_33  and  C_34
REMARK                            x       y       z     vdW  Elec       q    Type
REMARK                         _______ _______ _______ _____ _____    ______ ____
ROOT
ATOM      1  C   UNL A   1     -28.016  -0.814  28.878  0.00  0.00    +0.095 C 
ATOM      2  C   UNL A   1     -27.064  -0.119  28.608  0.00  0.00    -0.015 C 
ATOM      3  C   UNL A   1     -25.765  -0.390  29.036  0.00  0.00    +0.025 C 
ATOM      4  C   UNL A   1     -24.552   0.406  28.765  0.00  0.00    +0.013 C 
ATOM      5  C   UNL A   1     -24.696   1.448  27.799  0.00  0.00    +0.096 C 
ATOM      6  C   UNL A   1     -25.976   1.725  27.308  0.00  0.00    +0.024 C 
ATOM      7  C   UNL A   1     -27.072   1.013  27.654  0.00  0.00    +0.123 C 
ENDROOT
BRANCH   1   8
ATOM      8  N   UNL A   1     -28.608  -0.591  30.110  0.00  0.00    -0.203 NA
ATOM      9  C   UNL A   1     -29.505  -0.309  30.574  0.00  0.00    +0.300 C 
ATOM     10  F   UNL A   1     -29.763  -0.403  31.937  0.00  0.00    -0.164 F 
ATOM     11  N   UNL A   1     -30.564   0.177  29.923  0.00  0.00    -0.169 NA
BRANCH  11  12
ATOM     12  C   UNL A   1     -31.834   0.618  30.429  0.00  0.00    +0.074 A 
ATOM     13  C   UNL A   1     -32.538   1.160  29.796  0.00  0.00    +0.017 A 
ATOM     14  C   UNL A   1     -32.564   2.550  29.793  0.00  0.00    +0.001 A 
ATOM     15  C   UNL A   1     -32.197   3.221  31.012  0.00  0.00    +0.000 A 
ATOM     16  C   UNL A   1     -32.185   4.612  31.163  0.00  0.00    +0.000 A 
ATOM     17  C   UNL A   1     -31.715   5.211  32.370  0.00  0.00    +0.000 A 
ATOM     18  C   UNL A   1     -31.271   4.306  33.366  0.00  0.00    +0.000 A 
ATOM     19  C   UNL A   1     -31.222   2.969  33.224  0.00  0.00    +0.000 A 
ATOM     20  C   UNL A   1     -31.607   2.416  32.021  0.00  0.00    +0.001 A 
ATOM     21  C   UNL A   1     -31.667   1.259  31.830  0.00  0.00    +0.017 A 
ENDBRANCH  11  12
ENDBRANCH   1   8
BRANCH   5  22
ATOM     22  C   UNL A   1     -23.494   2.169  27.479  0.00  0.00    +0.398 C 
ATOM     23  F   UNL A   1     -23.680   3.222  26.873  0.00  0.00    -0.170 F 
ATOM     24  F   UNL A   1     -22.689   2.470  28.536  0.00  0.00    -0.170 F 
ATOM     25  F   UNL A   1     -22.635   1.427  26.697  0.00  0.00    -0.170 F 
ENDBRANCH   5  22
BRANCH   7  26
ATOM     26  C   UNL A   1     -28.387   1.367  27.109  0.00  0.00    +0.368 C 
ATOM     27  O   UNL A   1     -28.847   2.366  27.552  0.00  0.00    -0.245 OA
ATOM     28  O   UNL A   1     -29.015   0.445  26.398  0.00  0.00    -0.245 OA
ENDBRANCH   7  26
BRANCH   3  29
ATOM     29  C   UNL A   1     -25.456  -1.544  29.965  0.00  0.00    +0.028 C 
BRANCH  29  30
ATOM     30  C   UNL A   1     -24.444  -2.350  29.680  0.00  0.00    -0.027 C 
ATOM     31  C   UNL A   1     -23.170  -1.777  29.906  0.00  0.00    -0.008 C 
BRANCH  30  32
ATOM     32  C   UNL A   1     -24.509  -3.675  29.260  0.00  0.00    +0.111 C 
BRANCH  32  33
ATOM     33  N   UNL A   1     -25.659  -4.290  29.262  0.00  0.00    -0.214 NA
BRANCH  33  34
ATOM     34  C   UNL A   1     -26.154  -5.121  29.952  0.00  0.00    +0.089 C 
ATOM     35  C   UNL A   1     -27.657  -5.174  30.120  0.00  0.00    +0.020 C 
ENDBRANCH  33  34
ENDBRANCH  32  33
ENDBRANCH  30  32
ENDBRANCH  29  30
ENDBRANCH   3  29
TORSDOF 9
