MODEL 4168
MODEL 1
REMARK VINA RESULT:    -6.045      0.000      0.000
REMARK INTER + INTRA:          -6.459
REMARK INTER:                  -6.399
REMARK INTRA:                  -0.060
REMARK UNBOUND:                -0.060
REMARK  Name = No_4168-gen_results/8p0m/2024-11-26-14-13-15/
REMARK  1 active torsions:
REMARK  status: ('A' for Active; 'I' for Inactive)
REMARK    1  A    between atoms: C_10  and  C_11
REMARK                            x       y       z     vdW  Elec       q    Type
REMARK                         _______ _______ _______ _____ _____    ______ ____
ROOT
ATOM      1  C   UNL A   1     -23.983  -4.348  28.660  0.00  0.00    +0.037 A 
ATOM      2  C   UNL A   1     -24.084  -3.205  29.042  0.00  0.00    +0.142 A 
ATOM      3  C   UNL A   1     -25.097  -2.651  29.645  0.00  0.00    +0.017 A 
ATOM      4  C   UNL A   1     -26.252  -3.452  29.892  0.00  0.00    -0.001 A 
ATOM      5  C   UNL A   1     -25.071  -5.254  28.979  0.00  0.00    +0.003 A 
ATOM      6  C   UNL A   1     -26.155  -4.762  29.579  0.00  0.00    -0.000 A 
ATOM      7  O   UNL A   1     -22.987  -2.313  28.842  0.00  0.00    -0.450 OA
ATOM      8  C   UNL A   1     -23.069  -0.954  29.061  0.00  0.00    +0.186 C 
ATOM      9  C   UNL A   1     -25.153  -1.215  29.948  0.00  0.00    +0.060 C 
ATOM     10  C   UNL A   1     -24.043  -0.412  29.755  0.00  0.00    +0.087 C 
ATOM     11  C   UNL A   1     -26.300  -0.362  30.162  0.00  0.00    +0.010 C 
ENDROOT
BRANCH  10  12
ATOM     12  C   UNL A   1     -23.969   0.999  30.028  0.00  0.00    +0.100 C 
ATOM     13  N   UNL A   1     -23.551   1.993  30.579  0.00  0.00    -0.191 NA
ENDBRANCH  10  12
TORSDOF 1
ENDMDL
ENDMDL
