REMARK  Name = No_4168-gen_results/8p0m/2024-11-26-14-13-15/
REMARK  1 active torsions:
REMARK  status: ('A' for Active; 'I' for Inactive)
REMARK    1  A    between atoms: C_10  and  C_11
REMARK                            x       y       z     vdW  Elec       q    Type
REMARK                         _______ _______ _______ _____ _____    ______ ____
ROOT
ATOM      1  C   UNL A   1     -28.016  -0.814  28.878  0.00  0.00    +0.037 A 
ATOM      2  C   UNL A   1     -27.064  -0.119  28.608  0.00  0.00    +0.142 A 
ATOM      3  C   UNL A   1     -26.876   1.133  28.913  0.00  0.00    +0.017 A 
ATOM      4  C   UNL A   1     -27.901   1.807  29.644  0.00  0.00    -0.001 A 
ATOM      5  C   UNL A   1     -29.046  -0.232  29.718  0.00  0.00    +0.003 A 
ATOM      6  C   UNL A   1     -28.940   1.052  30.060  0.00  0.00    -0.000 A 
ATOM      7  O   UNL A   1     -25.980  -0.691  27.875  0.00  0.00    -0.450 OA
ATOM      8  C   UNL A   1     -24.945   0.055  27.351  0.00  0.00    +0.186 C 
ATOM      9  C   UNL A   1     -25.732   1.909  28.419  0.00  0.00    +0.060 C 
ATOM     10  C   UNL A   1     -24.702   1.286  27.737  0.00  0.00    +0.087 C 
ATOM     11  C   UNL A   1     -25.591   3.338  28.249  0.00  0.00    +0.010 C 
ENDROOT
BRANCH  10  12
ATOM     12  C   UNL A   1     -23.525   1.933  27.219  0.00  0.00    +0.100 C 
ATOM     13  N   UNL A   1     -22.365   2.281  27.230  0.00  0.00    -0.191 NA
ENDBRANCH  10  12
TORSDOF 1
