MODEL 4169
MODEL 1
REMARK VINA RESULT:    -6.070      0.000      0.000
REMARK INTER + INTRA:         -13.280
REMARK INTER:                  -9.263
REMARK INTRA:                  -4.017
REMARK UNBOUND:                -4.017
REMARK  Name = No_4169-gen_results/8p0m/2024-11-26-14-13-15/
REMARK  9 active torsions:
REMARK  status: ('A' for Active; 'I' for Inactive)
REMARK    1  A    between atoms: C_4  and  C_17
REMARK    2  A    between atoms: C_5  and  C_12
REMARK    3  A    between atoms: C_9  and  C_10
REMARK    4  A    between atoms: C_10  and  O_16
REMARK    5  A    between atoms: O_16  and  C_20
REMARK    6  A    between atoms: C_21  and  C_22
REMARK    7  A    between atoms: C_22  and  C_23
REMARK    8  A    between atoms: C_23  and  C_24
REMARK    9  A    between atoms: C_27  and  C_28
REMARK                            x       y       z     vdW  Elec       q    Type
REMARK                         _______ _______ _______ _____ _____    ______ ____
ROOT
ATOM      1  C   UNL A   1     -31.456 -15.226   9.040  0.00  0.00    -0.004 A 
ATOM      2  C   UNL A   1     -30.651 -15.906   8.447  0.00  0.00    -0.026 A 
ATOM      3  C   UNL A   1     -29.428 -16.187   8.799  0.00  0.00    -0.015 A 
ATOM      4  C   UNL A   1     -28.470 -17.032   8.045  0.00  0.00    +0.134 C 
ATOM      5  C   UNL A   1     -28.958 -17.626   6.847  0.00  0.00    +0.095 C 
ATOM      6  C   UNL A   1     -30.263 -17.382   6.503  0.00  0.00    +0.015 C 
ATOM      7  C   UNL A   1     -31.111 -16.615   7.228  0.00  0.00    +0.027 C 
ATOM      8  C   UNL A   1     -31.383 -15.337  10.564  0.00  0.00    +0.006 A 
ATOM      9  C   UNL A   1     -30.119 -15.164  11.047  0.00  0.00    +0.076 A 
ATOM     10  C   UNL A   1     -29.093 -15.741  10.150  0.00  0.00    +0.002 A 
ENDROOT
BRANCH   5  11
ATOM     11  C   UNL A   1     -28.111 -18.423   5.989  0.00  0.00    +0.261 C 
ATOM     12  N   UNL A   1     -27.892 -19.555   5.820  0.00  0.00    -0.088 NA
ATOM     13  O   UNL A   1     -27.389 -17.646   5.030  0.00  0.00    -0.272 OA
ENDBRANCH   5  11
BRANCH   4  14
ATOM     14  C   UNL A   1     -27.097 -17.297   8.508  0.00  0.00    +0.369 C 
ATOM     15  O   UNL A   1     -26.093 -16.755   8.072  0.00  0.00    -0.245 OA
ATOM     16  O   UNL A   1     -26.917 -18.474   9.097  0.00  0.00    -0.245 OA
ENDBRANCH   4  14
BRANCH   9  17
ATOM     17  C   UNL A   1     -29.846 -14.968  12.407  0.00  0.00    +0.346 C 
ATOM     18  O   UNL A   1     -29.871 -15.664  13.187  0.00  0.00    -0.244 OA
BRANCH  17  19
ATOM     19  O   UNL A   1     -29.599 -13.642  12.706  0.00  0.00    -0.418 OA
BRANCH  19  20
ATOM     20  C   UNL A   1     -30.428 -12.842  13.174  0.00  0.00    +0.178 C 
ATOM     21  C   UNL A   1     -31.009 -12.025  12.363  0.00  0.00    +0.015 C 
BRANCH  21  22
ATOM     22  C   UNL A   1     -30.529 -11.428  11.367  0.00  0.00    +0.034 C 
BRANCH  22  23
ATOM     23  C   UNL A   1     -31.062 -11.667  10.058  0.00  0.00    +0.031 C 
BRANCH  23  24
ATOM     24  C   UNL A   1     -30.194 -11.387   8.928  0.00  0.00    -0.022 A 
ATOM     25  C   UNL A   1     -30.820 -11.604   7.665  0.00  0.00    -0.004 A 
ATOM     26  C   UNL A   1     -30.223 -12.577   6.888  0.00  0.00    +0.001 A 
ATOM     27  C   UNL A   1     -28.849 -12.949   7.068  0.00  0.00    +0.021 A 
ATOM     28  C   UNL A   1     -28.155 -12.778   8.325  0.00  0.00    +0.001 A 
ATOM     29  C   UNL A   1     -28.978 -12.028   9.313  0.00  0.00    -0.004 A 
BRANCH  27  30
ATOM     30  C   UNL A   1     -28.215 -13.847   6.204  0.00  0.00    +0.122 C 
ATOM     31  N   UNL A   1     -28.176 -13.525   4.861  0.00  0.00    -0.146 NA
ENDBRANCH  27  30
ENDBRANCH  23  24
ENDBRANCH  22  23
ENDBRANCH  21  22
ENDBRANCH  19  20
ENDBRANCH  17  19
ENDBRANCH   9  17
TORSDOF 9
ENDMDL
ENDMDL
