REMARK  Name = No_4169-gen_results/8p0m/2024-11-26-14-13-15/
REMARK  9 active torsions:
REMARK  status: ('A' for Active; 'I' for Inactive)
REMARK    1  A    between atoms: C_4  and  C_17
REMARK    2  A    between atoms: C_5  and  C_12
REMARK    3  A    between atoms: C_9  and  C_10
REMARK    4  A    between atoms: C_10  and  O_16
REMARK    5  A    between atoms: O_16  and  C_20
REMARK    6  A    between atoms: C_21  and  C_22
REMARK    7  A    between atoms: C_22  and  C_23
REMARK    8  A    between atoms: C_23  and  C_24
REMARK    9  A    between atoms: C_27  and  C_28
REMARK                            x       y       z     vdW  Elec       q    Type
REMARK                         _______ _______ _______ _____ _____    ______ ____
ROOT
ATOM      1  C   UNL A   1     -28.016  -0.814  28.878  0.00  0.00    -0.004 A 
ATOM      2  C   UNL A   1     -27.064  -0.119  28.608  0.00  0.00    -0.026 A 
ATOM      3  C   UNL A   1     -26.876   1.133  28.913  0.00  0.00    -0.015 A 
ATOM      4  C   UNL A   1     -25.688   1.952  28.567  0.00  0.00    +0.134 C 
ATOM      5  C   UNL A   1     -24.639   1.283  27.875  0.00  0.00    +0.095 C 
ATOM      6  C   UNL A   1     -24.807  -0.051  27.604  0.00  0.00    +0.015 C 
ATOM      7  C   UNL A   1     -25.902  -0.767  27.951  0.00  0.00    +0.027 C 
ATOM      8  C   UNL A   1     -28.645  -0.528  30.243  0.00  0.00    +0.006 A 
ATOM      9  C   UNL A   1     -28.912   0.796  30.435  0.00  0.00    +0.076 A 
ATOM     10  C   UNL A   1     -27.883   1.669  29.827  0.00  0.00    +0.002 A 
ENDROOT
BRANCH   5  11
ATOM     11  C   UNL A   1     -23.454   1.978  27.427  0.00  0.00    +0.261 C 
ATOM     12  N   UNL A   1     -23.181   2.752  26.599  0.00  0.00    -0.088 NA
ATOM     13  O   UNL A   1     -22.307   1.723  28.242  0.00  0.00    -0.272 OA
ENDBRANCH   5  11
BRANCH   4  14
ATOM     14  C   UNL A   1     -25.553   3.370  28.943  0.00  0.00    +0.369 C 
ATOM     15  O   UNL A   1     -25.297   3.777  30.065  0.00  0.00    -0.245 OA
ATOM     16  O   UNL A   1     -26.167   4.228  28.135  0.00  0.00    -0.245 OA
ENDBRANCH   4  14
BRANCH   9  17
ATOM     17  C   UNL A   1     -29.711   1.265  31.486  0.00  0.00    +0.346 C 
ATOM     18  O   UNL A   1     -30.677   0.970  31.757  0.00  0.00    -0.244 OA
BRANCH  17  19
ATOM     19  O   UNL A   1     -29.120   2.313  32.165  0.00  0.00    -0.418 OA
BRANCH  19  20
ATOM     20  C   UNL A   1     -29.669   3.008  33.038  0.00  0.00    +0.178 C 
ATOM     21  C   UNL A   1     -30.277   4.083  32.665  0.00  0.00    +0.015 C 
BRANCH  21  22
ATOM     22  C   UNL A   1     -29.949   4.905  31.774  0.00  0.00    +0.034 C 
BRANCH  22  23
ATOM     23  C   UNL A   1     -28.567   5.098  31.445  0.00  0.00    +0.031 C 
BRANCH  23  24
ATOM     24  C   UNL A   1     -28.083   6.466  31.390  0.00  0.00    -0.022 A 
ATOM     25  C   UNL A   1     -27.920   6.957  30.061  0.00  0.00    -0.004 A 
ATOM     26  C   UNL A   1     -26.625   7.308  29.734  0.00  0.00    +0.001 A 
ATOM     27  C   UNL A   1     -25.660   7.653  30.738  0.00  0.00    +0.021 A 
ATOM     28  C   UNL A   1     -25.749   7.176  32.100  0.00  0.00    +0.001 A 
ATOM     29  C   UNL A   1     -27.026   6.452  32.349  0.00  0.00    -0.004 A 
BRANCH  27  30
ATOM     30  C   UNL A   1     -24.387   8.122  30.398  0.00  0.00    +0.122 C 
ATOM     31  N   UNL A   1     -24.171   8.495  29.086  0.00  0.00    -0.146 NA
ENDBRANCH  27  30
ENDBRANCH  23  24
ENDBRANCH  22  23
ENDBRANCH  21  22
ENDBRANCH  19  20
ENDBRANCH  17  19
ENDBRANCH   9  17
TORSDOF 9
