MODEL 416
MODEL 1
REMARK VINA RESULT:    -5.195      0.000      0.000
REMARK INTER + INTRA:          -5.656
REMARK INTER:                  -5.498
REMARK INTRA:                  -0.158
REMARK UNBOUND:                -0.158
REMARK  Name = No_416-gen_results/8p0m/2024-11-26-14-13-15/
REMARK  1 active torsions:
REMARK  status: ('A' for Active; 'I' for Inactive)
REMARK    1  A    between atoms: C_1  and  C_7
REMARK                            x       y       z     vdW  Elec       q    Type
REMARK                         _______ _______ _______ _____ _____    ______ ____
ROOT
ATOM      1  C   UNL A   1     -24.487  -2.734  29.170  0.00  0.00    +0.071 A 
ATOM      2  C   UNL A   1     -23.872  -3.646  28.670  0.00  0.00    +0.004 A 
ATOM      3  C   UNL A   1     -24.292  -4.962  28.704  0.00  0.00    -0.000 A 
ATOM      4  C   UNL A   1     -25.538  -5.247  29.329  0.00  0.00    -0.000 A 
ATOM      5  C   UNL A   1     -26.267  -4.177  29.722  0.00  0.00    -0.000 A 
ATOM      6  C   UNL A   1     -25.801  -2.947  29.613  0.00  0.00    +0.004 A 
ENDROOT
BRANCH   1   7
ATOM      7  C   UNL A   1     -23.958  -1.324  29.075  0.00  0.00    +0.419 C 
ATOM      8  F   UNL A   1     -24.126  -0.535  29.804  0.00  0.00    -0.166 F 
ATOM      9  F   UNL A   1     -22.526  -1.516  28.926  0.00  0.00    -0.166 F 
ATOM     10  F   UNL A   1     -24.150  -0.789  27.745  0.00  0.00    -0.166 F 
ENDBRANCH   1   7
TORSDOF 1
ENDMDL
ENDMDL
