REMARK  Name = No_417-gen_results/8p0m/2024-11-26-14-13-15/
REMARK  7 active torsions:
REMARK  status: ('A' for Active; 'I' for Inactive)
REMARK    1  A    between atoms: C_1  and  C_2
REMARK    2  A    between atoms: C_1  and  C_8
REMARK    3  A    between atoms: C_3  and  C_15
REMARK    4  A    between atoms: C_5  and  C_12
REMARK    5  A    between atoms: N_17  and  C_18
REMARK    6  A    between atoms: C_18  and  C_19
REMARK    7  A    between atoms: C_23  and  C_25
REMARK                            x       y       z     vdW  Elec       q    Type
REMARK                         _______ _______ _______ _____ _____    ______ ____
ROOT
ATOM      1  C   UNL A   1     -27.064  -0.119  28.608  0.00  0.00    -0.009 A 
ATOM      2  C   UNL A   1     -27.001   0.691  27.491  0.00  0.00    +0.051 A 
ATOM      3  C   UNL A   1     -25.855   1.482  27.083  0.00  0.00    +0.009 A 
ATOM      4  C   UNL A   1     -24.690   1.453  27.881  0.00  0.00    +0.057 A 
ATOM      5  C   UNL A   1     -24.738   0.601  29.042  0.00  0.00    +0.004 A 
ATOM      6  C   UNL A   1     -25.823  -0.169  29.389  0.00  0.00    -0.004 A 
ENDROOT
BRANCH   4   7
ATOM      7  C   UNL A   1     -23.532   2.244  27.613  0.00  0.00    +0.284 C 
ATOM      8  N   UNL A   1     -22.864   2.637  28.641  0.00  0.00    -0.084 NA
ATOM      9  O   UNL A   1     -23.139   2.518  26.449  0.00  0.00    -0.267 OA
ENDBRANCH   4   7
BRANCH   2  10
ATOM     10  C   UNL A   1     -28.130   0.766  26.580  0.00  0.00    +0.265 C 
ATOM     11  O   UNL A   1     -28.133   0.560  25.433  0.00  0.00    -0.268 OA
ATOM     12  N   UNL A   1     -29.358   1.201  27.142  0.00  0.00    -0.197 NA
BRANCH  12  13
ATOM     13  C   UNL A   1     -30.558   1.307  26.394  0.00  0.00    +0.142 C 
BRANCH  13  14
ATOM     14  C   UNL A   1     -31.629   1.349  27.144  0.00  0.00    -0.001 A 
ATOM     15  C   UNL A   1     -31.742   2.242  27.919  0.00  0.00    -0.003 A 
ATOM     16  C   UNL A   1     -32.818   2.286  28.938  0.00  0.00    -0.000 A 
ATOM     17  C   UNL A   1     -33.802   1.302  28.816  0.00  0.00    -0.000 A 
ATOM     18  C   UNL A   1     -33.692   0.314  27.877  0.00  0.00    -0.000 A 
ATOM     19  C   UNL A   1     -32.569   0.295  27.063  0.00  0.00    -0.003 A 
BRANCH  18  20
ATOM     20  C   UNL A   1     -34.692  -0.754  27.816  0.00  0.00    -0.000 C 
ATOM     21  C   UNL A   1     -35.507  -1.033  28.524  0.00  0.00    -0.000 C 
ENDBRANCH  18  20
ENDBRANCH  13  14
ENDBRANCH  12  13
ENDBRANCH   2  10
BRANCH   1  22
ATOM     22  C   UNL A   1     -28.016  -0.814  28.878  0.00  0.00    +0.130 C 
BRANCH  22  23
ATOM     23  C   UNL A   1     -28.735  -0.464  30.142  0.00  0.00    +0.402 C 
ATOM     24  F   UNL A   1     -29.581  -1.427  30.480  0.00  0.00    -0.170 F 
ATOM     25  F   UNL A   1     -27.895  -0.366  31.187  0.00  0.00    -0.170 F 
ATOM     26  F   UNL A   1     -29.407   0.647  29.970  0.00  0.00    -0.170 F 
ENDBRANCH  22  23
ENDBRANCH   1  22
TORSDOF 7
