REMARK  Name = No_4170-gen_results/8p0m/2024-11-26-14-13-15/
REMARK  1 active torsions:
REMARK  status: ('A' for Active; 'I' for Inactive)
REMARK    1  A    between atoms: C_3  and  C_8
REMARK                            x       y       z     vdW  Elec       q    Type
REMARK                         _______ _______ _______ _____ _____    ______ ____
ROOT
ATOM      1  C   UNL A   1     -28.016  -0.814  28.878  0.00  0.00    +0.030 A 
ATOM      2  C   UNL A   1     -27.064  -0.119  28.608  0.00  0.00    +0.002 A 
ATOM      3  C   UNL A   1     -25.765  -0.390  29.036  0.00  0.00    +0.000 A 
ATOM      4  C   UNL A   1     -25.489  -1.154  29.717  0.00  0.00    +0.002 A 
ATOM      5  C   UNL A   1     -27.761  -1.903  29.857  0.00  0.00    +0.140 A 
ATOM      6  C   UNL A   1     -26.478  -2.106  30.236  0.00  0.00    +0.030 A 
ATOM      7  F   UNL A   1     -28.600  -2.799  30.278  0.00  0.00    -0.204 F 
ENDROOT
BRANCH   3   8
ATOM      8  C   UNL A   1     -24.654   0.658  28.517  0.00  0.00    +0.000 A 
ATOM      9  C   UNL A   1     -23.376   0.464  29.019  0.00  0.00    +0.000 A 
ATOM     10  C   UNL A   1     -22.336   1.300  28.553  0.00  0.00    +0.000 A 
ATOM     11  C   UNL A   1     -22.601   2.187  27.476  0.00  0.00    +0.000 A 
ATOM     12  C   UNL A   1     -24.788   1.530  27.451  0.00  0.00    +0.000 A 
ATOM     13  C   UNL A   1     -23.789   2.278  26.959  0.00  0.00    +0.000 A 
ENDBRANCH   3   8
TORSDOF 1
