REMARK  Name = No_4171-gen_results/8p0m/2024-11-26-14-13-15/
REMARK  5 active torsions:
REMARK  status: ('A' for Active; 'I' for Inactive)
REMARK    1  A    between atoms: C_3  and  C_7
REMARK    2  A    between atoms: C_7  and  C_8
REMARK    3  A    between atoms: C_7  and  C_17
REMARK    4  A    between atoms: C_8  and  C_9
REMARK    5  A    between atoms: C_9  and  C_10
REMARK                            x       y       z     vdW  Elec       q    Type
REMARK                         _______ _______ _______ _____ _____    ______ ____
ROOT
ATOM      1  C   UNL A   1     -27.459   0.493  26.770  0.00  0.00    +0.074 C 
ENDROOT
BRANCH   1   4
ATOM      2  C   UNL A   1     -28.016  -0.814  28.878  0.00  0.00    -0.004 A 
ATOM      3  C   UNL A   1     -28.469  -0.785  29.829  0.00  0.00    -0.000 A 
ATOM      4  C   UNL A   1     -28.182   0.428  28.113  0.00  0.00    -0.018 A 
ATOM      5  C   UNL A   1     -28.984   1.415  28.515  0.00  0.00    -0.004 A 
ATOM      6  C   UNL A   1     -29.380   0.138  30.461  0.00  0.00    -0.000 A 
ATOM      7  C   UNL A   1     -29.541   1.274  29.724  0.00  0.00    -0.000 A 
ENDBRANCH   1   4
BRANCH   1   8
ATOM      8  C   UNL A   1     -28.207   0.664  25.610  0.00  0.00    +0.255 C 
ATOM      9  N   UNL A   1     -28.046  -0.094  24.664  0.00  0.00    -0.094 NA
ATOM     10  F   UNL A   1     -29.137   1.525  25.568  0.00  0.00    -0.216 F 
ENDBRANCH   1   8
BRANCH   1  11
ATOM     11  C   UNL A   1     -26.026   0.384  26.762  0.00  0.00    +0.013 C 
BRANCH  11  12
ATOM     12  C   UNL A   1     -25.226   1.351  27.372  0.00  0.00    +0.024 C 
ATOM     13  C   UNL A   1     -25.474   2.700  26.801  0.00  0.00    +0.005 C 
BRANCH  12  14
ATOM     14  C   UNL A   1     -24.352   1.206  28.185  0.00  0.00    -0.003 A 
ATOM     15  C   UNL A   1     -23.344   2.214  28.522  0.00  0.00    +0.095 A 
ATOM     16  N   UNL A   1     -22.324   1.856  29.184  0.00  0.00    -0.243 NA
ATOM     17  C   UNL A   1     -24.057  -0.056  28.961  0.00  0.00    -0.001 A 
ATOM     18  C   UNL A   1     -22.911  -0.227  29.742  0.00  0.00    +0.020 A 
ATOM     19  C   UNL A   1     -21.998   0.831  29.891  0.00  0.00    +0.099 A 
ENDBRANCH  12  14
ENDBRANCH  11  12
ENDBRANCH   1  11
TORSDOF 5
