MODEL 4171
MODEL 1
REMARK VINA RESULT:    -6.312      0.000      0.000
REMARK INTER + INTRA:          -9.710
REMARK INTER:                  -8.157
REMARK INTRA:                  -1.553
REMARK UNBOUND:                -1.553
REMARK  Name = No_4171-gen_results/8p0m/2024-11-26-14-13-15/
REMARK  5 active torsions:
REMARK  status: ('A' for Active; 'I' for Inactive)
REMARK    1  A    between atoms: C_3  and  C_7
REMARK    2  A    between atoms: C_7  and  C_8
REMARK    3  A    between atoms: C_7  and  C_17
REMARK    4  A    between atoms: C_8  and  C_9
REMARK    5  A    between atoms: C_9  and  C_10
REMARK                            x       y       z     vdW  Elec       q    Type
REMARK                         _______ _______ _______ _____ _____    ______ ____
ROOT
ATOM      1  C   UNL A   1     -23.460  -1.214  30.014  0.00  0.00    +0.074 C 
ENDROOT
BRANCH   1   4
ATOM      2  C   UNL A   1     -23.951  -3.514  29.049  0.00  0.00    -0.004 A 
ATOM      3  C   UNL A   1     -24.631  -4.318  29.012  0.00  0.00    -0.000 A 
ATOM      4  C   UNL A   1     -24.439  -2.370  29.829  0.00  0.00    -0.018 A 
ATOM      5  C   UNL A   1     -25.691  -2.294  30.282  0.00  0.00    -0.004 A 
ATOM      6  C   UNL A   1     -26.014  -4.460  29.398  0.00  0.00    -0.000 A 
ATOM      7  C   UNL A   1     -26.457  -3.377  30.099  0.00  0.00    -0.000 A 
ENDBRANCH   1   4
BRANCH   1   8
ATOM      8  C   UNL A   1     -23.410  -0.562  31.242  0.00  0.00    +0.255 C 
ATOM      9  N   UNL A   1     -22.814  -1.074  32.179  0.00  0.00    -0.094 NA
ATOM     10  F   UNL A   1     -23.876   0.610  31.365  0.00  0.00    -0.216 F 
ENDBRANCH   1   8
BRANCH   1  11
ATOM     11  C   UNL A   1     -22.618  -0.851  28.907  0.00  0.00    +0.013 C 
BRANCH  11  12
ATOM     12  C   UNL A   1     -22.902   0.267  28.121  0.00  0.00    +0.024 C 
ATOM     13  C   UNL A   1     -21.691   1.101  27.907  0.00  0.00    +0.005 C 
BRANCH  12  14
ATOM     14  C   UNL A   1     -23.964   0.651  27.709  0.00  0.00    -0.003 A 
ATOM     15  C   UNL A   1     -24.576   1.940  28.040  0.00  0.00    +0.095 A 
ATOM     16  N   UNL A   1     -25.802   2.118  27.769  0.00  0.00    -0.243 NA
ATOM     17  C   UNL A   1     -24.920  -0.134  26.842  0.00  0.00    -0.001 A 
ATOM     18  C   UNL A   1     -26.222   0.287  26.559  0.00  0.00    +0.020 A 
ATOM     19  C   UNL A   1     -26.677   1.530  27.031  0.00  0.00    +0.099 A 
ENDBRANCH  12  14
ENDBRANCH  11  12
ENDBRANCH   1  11
TORSDOF 5
ENDMDL
ENDMDL
