REMARK  Name = No_4172-gen_results/8p0m/2024-11-26-14-13-15/
REMARK  1 active torsions:
REMARK  status: ('A' for Active; 'I' for Inactive)
REMARK    1  A    between atoms: C_5  and  C_11
REMARK                            x       y       z     vdW  Elec       q    Type
REMARK                         _______ _______ _______ _____ _____    ______ ____
ROOT
ATOM      1  C   UNL A   1     -28.016  -0.814  28.878  0.00  0.00    +0.102 A 
ATOM      2  C   UNL A   1     -27.064  -0.119  28.608  0.00  0.00    +0.037 A 
ATOM      3  C   UNL A   1     -25.765  -0.390  29.036  0.00  0.00    +0.085 A 
ATOM      4  C   UNL A   1     -24.552   0.406  28.765  0.00  0.00    +0.026 A 
ATOM      5  C   UNL A   1     -24.696   1.448  27.799  0.00  0.00    +0.081 A 
ATOM      6  C   UNL A   1     -26.001   1.678  27.297  0.00  0.00    +0.007 A 
ATOM      7  C   UNL A   1     -27.074   0.968  27.650  0.00  0.00    +0.003 A 
ATOM      8  N   UNL A   1     -27.852  -1.740  29.942  0.00  0.00    -0.222 NA
ATOM      9  C   UNL A   1     -26.610  -2.207  30.310  0.00  0.00    +0.199 A 
ATOM     10  N   UNL A   1     -25.546  -1.464  29.924  0.00  0.00    -0.224 NA
ENDROOT
BRANCH   5  11
ATOM     11  C   UNL A   1     -23.512   2.259  27.466  0.00  0.00    +0.388 C 
ATOM     12  O   UNL A   1     -23.553   2.971  26.391  0.00  0.00    -0.241 OA
ATOM     13  O   UNL A   1     -22.372   2.112  28.050  0.00  0.00    -0.241 OA
ENDBRANCH   5  11
TORSDOF 1
