MODEL 4172
MODEL 1
REMARK VINA RESULT:    -5.563      0.000      0.000
REMARK INTER + INTRA:          -5.951
REMARK INTER:                  -5.888
REMARK INTRA:                  -0.062
REMARK UNBOUND:                -0.062
REMARK  Name = No_4172-gen_results/8p0m/2024-11-26-14-13-15/
REMARK  1 active torsions:
REMARK  status: ('A' for Active; 'I' for Inactive)
REMARK    1  A    between atoms: C_5  and  C_11
REMARK                            x       y       z     vdW  Elec       q    Type
REMARK                         _______ _______ _______ _____ _____    ______ ____
ROOT
ATOM      1  C   UNL A   1     -30.867  -9.601  29.703  0.00  0.00    +0.102 A 
ATOM      2  C   UNL A   1     -30.121 -10.191  30.450  0.00  0.00    +0.037 A 
ATOM      3  C   UNL A   1     -29.222 -11.169  30.029  0.00  0.00    +0.085 A 
ATOM      4  C   UNL A   1     -28.288 -11.944  30.869  0.00  0.00    +0.026 A 
ATOM      5  C   UNL A   1     -28.155 -11.501  32.220  0.00  0.00    +0.081 A 
ATOM      6  C   UNL A   1     -29.010 -10.451  32.636  0.00  0.00    +0.007 A 
ATOM      7  C   UNL A   1     -29.894  -9.847  31.839  0.00  0.00    +0.003 A 
ATOM      8  N   UNL A   1     -31.064 -10.167  28.416  0.00  0.00    -0.222 NA
ATOM      9  C   UNL A   1     -30.131 -11.001  27.841  0.00  0.00    +0.199 A 
ATOM     10  N   UNL A   1     -29.245 -11.586  28.681  0.00  0.00    -0.224 NA
ENDROOT
BRANCH   5  11
ATOM     11  C   UNL A   1     -27.216 -12.219  33.100  0.00  0.00    +0.388 C 
ATOM     12  O   UNL A   1     -26.399 -13.055  32.554  0.00  0.00    -0.241 OA
ATOM     13  O   UNL A   1     -27.328 -12.235  34.384  0.00  0.00    -0.241 OA
ENDBRANCH   5  11
TORSDOF 1
ENDMDL
ENDMDL
