MODEL 4173
MODEL 1
REMARK VINA RESULT:    -7.004      0.000      0.000
REMARK INTER + INTRA:          -8.936
REMARK INTER:                  -8.233
REMARK INTRA:                  -0.704
REMARK UNBOUND:                -0.704
REMARK  Name = No_4173-gen_results/8p0m/2024-11-26-14-13-15/
REMARK  3 active torsions:
REMARK  status: ('A' for Active; 'I' for Inactive)
REMARK    1  A    between atoms: C_2  and  C_14
REMARK    2  A    between atoms: C_3  and  C_4
REMARK    3  A    between atoms: C_4  and  C_8
REMARK                            x       y       z     vdW  Elec       q    Type
REMARK                         _______ _______ _______ _____ _____    ______ ____
ROOT
ATOM      1  C   UNL A   1     -24.531  -0.285  27.494  0.00  0.00    +0.003 A 
ATOM      2  C   UNL A   1     -24.313   0.425  26.746  0.00  0.00    +0.080 A 
ATOM      3  C   UNL A   1     -23.511  -0.393  28.605  0.00  0.00    -0.018 A 
ATOM      4  C   UNL A   1     -23.313   1.499  26.676  0.00  0.00    +0.007 A 
ATOM      5  C   UNL A   1     -22.361   1.483  27.673  0.00  0.00    -0.000 A 
ATOM      6  C   UNL A   1     -22.437   0.564  28.688  0.00  0.00    -0.004 A 
ENDROOT
BRANCH   2   7
ATOM      7  C   UNL A   1     -25.358   0.541  25.554  0.00  0.00    +0.388 C 
ATOM      8  O   UNL A   1     -24.972  -0.000  24.622  0.00  0.00    -0.241 OA
ATOM      9  O   UNL A   1     -26.441   1.188  25.643  0.00  0.00    -0.241 OA
ENDBRANCH   2   7
BRANCH   3  10
ATOM     10  C   UNL A   1     -23.498  -1.377  29.658  0.00  0.00    +0.053 C 
BRANCH  10  11
ATOM     11  C   UNL A   1     -24.322  -2.551  29.431  0.00  0.00    -0.007 A 
ATOM     12  C   UNL A   1     -25.580  -2.563  29.999  0.00  0.00    +0.054 A 
ATOM     13  C   UNL A   1     -26.356  -3.770  29.937  0.00  0.00    +0.011 A 
ATOM     14  C   UNL A   1     -25.776  -4.904  29.293  0.00  0.00    +0.001 A 
ATOM     15  C   UNL A   1     -23.853  -3.770  28.900  0.00  0.00    -0.003 A 
ATOM     16  C   UNL A   1     -24.564  -4.888  28.859  0.00  0.00    -0.000 A 
ATOM     17 CL   UNL A   1     -26.309  -1.312  30.751  0.00  0.00    -0.083 Cl
ENDBRANCH  10  11
ENDBRANCH   3  10
TORSDOF 3
ENDMDL
ENDMDL
