MODEL 4174
MODEL 1
REMARK VINA RESULT:    -6.445      0.000      0.000
REMARK INTER + INTRA:          -7.442
REMARK INTER:                  -7.199
REMARK INTRA:                  -0.244
REMARK UNBOUND:                -0.244
REMARK  Name = No_4174-gen_results/8p0m/2024-11-26-14-13-15/
REMARK  2 active torsions:
REMARK  status: ('A' for Active; 'I' for Inactive)
REMARK    1  A    between atoms: C_1  and  C_12
REMARK    2  A    between atoms: C_12  and  N_13
REMARK                            x       y       z     vdW  Elec       q    Type
REMARK                         _______ _______ _______ _____ _____    ______ ____
ROOT
ATOM      1  C   UNL A   1     -24.965  -2.261  30.280  0.00  0.00    -0.008 C 
ATOM      2  C   UNL A   1     -24.299  -1.433  29.704  0.00  0.00    -0.042 C 
ATOM      3  C   UNL A   1     -23.331  -0.637  30.294  0.00  0.00    +0.027 C 
ATOM      4  C   UNL A   1     -22.579   0.413  29.649  0.00  0.00    +0.030 C 
ATOM      5  C   UNL A   1     -22.825   0.679  28.281  0.00  0.00    -0.025 A 
ATOM      6  C   UNL A   1     -22.172   1.703  27.556  0.00  0.00    -0.005 A 
ATOM      7  C   UNL A   1     -22.472   1.921  26.214  0.00  0.00    -0.000 A 
ATOM      8  C   UNL A   1     -23.794   1.709  25.931  0.00  0.00    -0.000 A 
ATOM      9  C   UNL A   1     -24.621   0.741  26.552  0.00  0.00    -0.004 A 
ATOM     10  C   UNL A   1     -24.151   0.290  27.809  0.00  0.00    -0.022 A 
ATOM     11  C   UNL A   1     -24.761  -0.872  28.366  0.00  0.00    +0.048 C 
ENDROOT
BRANCH   1  12
ATOM     12  C   UNL A   1     -25.705  -3.234  29.372  0.00  0.00    +0.151 C 
BRANCH  12  13
ATOM     13  N   UNL A   1     -25.638  -4.566  29.628  0.00  0.00    -0.269 NA
ATOM     14  C   UNL A   1     -24.896  -5.235  29.046  0.00  0.00    +0.068 C 
ATOM     15  C   UNL A   1     -24.090  -5.034  28.472  0.00  0.00    +0.053 C 
ENDBRANCH  12  13
ENDBRANCH   1  12
TORSDOF 2
ENDMDL
ENDMDL
