REMARK  Name = No_4174-gen_results/8p0m/2024-11-26-14-13-15/
REMARK  2 active torsions:
REMARK  status: ('A' for Active; 'I' for Inactive)
REMARK    1  A    between atoms: C_1  and  C_12
REMARK    2  A    between atoms: C_12  and  N_13
REMARK                            x       y       z     vdW  Elec       q    Type
REMARK                         _______ _______ _______ _____ _____    ______ ____
ROOT
ATOM      1  C   UNL A   1     -28.016  -0.814  28.878  0.00  0.00    -0.008 C 
ATOM      2  C   UNL A   1     -27.064  -0.119  28.608  0.00  0.00    -0.042 C 
ATOM      3  C   UNL A   1     -26.972   0.714  27.506  0.00  0.00    +0.027 C 
ATOM      4  C   UNL A   1     -25.820   1.491  27.116  0.00  0.00    +0.030 C 
ATOM      5  C   UNL A   1     -24.656   1.424  27.918  0.00  0.00    -0.025 A 
ATOM      6  C   UNL A   1     -23.460   2.116  27.616  0.00  0.00    -0.005 A 
ATOM      7  C   UNL A   1     -22.345   1.994  28.441  0.00  0.00    -0.000 A 
ATOM      8  C   UNL A   1     -22.216   0.737  28.967  0.00  0.00    -0.000 A 
ATOM      9  C   UNL A   1     -23.289  -0.116  29.325  0.00  0.00    -0.004 A 
ATOM     10  C   UNL A   1     -24.520   0.198  28.701  0.00  0.00    -0.022 A 
ATOM     11  C   UNL A   1     -25.699  -0.421  29.211  0.00  0.00    +0.048 C 
ENDROOT
BRANCH   1  12
ATOM     12  C   UNL A   1     -28.024  -1.369  30.296  0.00  0.00    +0.151 C 
BRANCH  12  13
ATOM     13  N   UNL A   1     -29.128  -2.016  30.752  0.00  0.00    -0.269 NA
ATOM     14  C   UNL A   1     -29.867  -1.480  31.460  0.00  0.00    +0.068 C 
ATOM     15  C   UNL A   1     -30.008  -0.511  31.706  0.00  0.00    +0.053 C 
ENDBRANCH  12  13
ENDBRANCH   1  12
TORSDOF 2
