REMARK  Name = No_4175-gen_results/8p0m/2024-11-26-14-13-15/
REMARK  6 active torsions:
REMARK  status: ('A' for Active; 'I' for Inactive)
REMARK    1  A    between atoms: C_3  and  C_7
REMARK    2  A    between atoms: C_6  and  C_13
REMARK    3  A    between atoms: N_15  and  C_16
REMARK    4  A    between atoms: C_16  and  C_20
REMARK    5  A    between atoms: C_17  and  C_18
REMARK    6  A    between atoms: N_21  and  C_22
REMARK                            x       y       z     vdW  Elec       q    Type
REMARK                         _______ _______ _______ _____ _____    ______ ____
ROOT
ATOM      1  C   UNL A   1     -29.035  -2.786  30.161  0.00  0.00    +0.269 C 
ATOM      2  O   UNL A   1     -28.964  -4.009  30.223  0.00  0.00    -0.268 OA
ATOM      3  N   UNL A   1     -30.184  -2.180  30.523  0.00  0.00    -0.171 NA
ENDROOT
BRANCH   1   9
ATOM      4  C   UNL A   1     -28.016  -0.814  28.878  0.00  0.00    +0.005 A 
ATOM      5  C   UNL A   1     -27.064  -0.119  28.608  0.00  0.00    +0.000 A 
ATOM      6  C   UNL A   1     -25.765  -0.390  29.036  0.00  0.00    +0.000 A 
ATOM      7  C   UNL A   1     -25.530  -1.530  29.901  0.00  0.00    +0.000 A 
ATOM      8  C   UNL A   1     -26.689  -2.289  30.181  0.00  0.00    +0.005 A 
ATOM      9  C   UNL A   1     -27.873  -1.951  29.737  0.00  0.00    +0.055 A 
BRANCH   6  10
ATOM     10  C   UNL A   1     -24.549   0.410  28.734  0.00  0.00    +0.000 A 
ATOM     11  C   UNL A   1     -24.479   1.187  27.684  0.00  0.00    +0.000 A 
ATOM     12  C   UNL A   1     -23.272   1.897  27.373  0.00  0.00    +0.000 A 
ATOM     13  C   UNL A   1     -22.106   1.703  28.041  0.00  0.00    +0.000 A 
ATOM     14  C   UNL A   1     -23.319   0.179  29.467  0.00  0.00    +0.000 A 
ATOM     15  C   UNL A   1     -22.116   0.840  29.101  0.00  0.00    +0.000 A 
ENDBRANCH   6  10
ENDBRANCH   1   9
BRANCH   3  16
ATOM     16  C   UNL A   1     -31.344  -2.958  30.933  0.00  0.00    +0.126 C 
ATOM     17  C   UNL A   1     -31.345  -3.745  31.811  0.00  0.00    +0.013 C 
BRANCH  16  18
ATOM     18  C   UNL A   1     -32.441  -1.799  31.079  0.00  0.00    +0.284 C 
ATOM     19  N   UNL A   1     -32.701  -1.021  30.187  0.00  0.00    -0.174 NA
ATOM     20  O   UNL A   1     -33.087  -1.827  32.182  0.00  0.00    -0.267 OA
BRANCH  19  21
ATOM     21  C   UNL A   1     -32.548  -1.078  29.000  0.00  0.00    +0.074 A 
ATOM     22  C   UNL A   1     -32.590   0.110  28.138  0.00  0.00    +0.017 A 
ATOM     23  C   UNL A   1     -32.422   0.146  26.824  0.00  0.00    +0.001 A 
ATOM     24  C   UNL A   1     -32.120  -1.104  26.171  0.00  0.00    +0.000 A 
ATOM     25  C   UNL A   1     -32.065  -2.280  26.898  0.00  0.00    +0.001 A 
ATOM     26  C   UNL A   1     -32.231  -2.225  28.254  0.00  0.00    +0.017 A 
ENDBRANCH  19  21
ENDBRANCH  16  18
BRANCH  17  27
ATOM     27  C   UNL A   1     -30.287  -3.678  32.758  0.00  0.00    +0.122 C 
ATOM     28 CL   UNL A   1     -29.724  -4.978  33.707  0.00  0.00    -0.108 Cl
ENDBRANCH  17  27
ENDBRANCH   3  16
TORSDOF 6
