MODEL 4175
MODEL 1
REMARK VINA RESULT:    -7.618      0.000      0.000
REMARK INTER + INTRA:         -11.032
REMARK INTER:                 -10.290
REMARK INTRA:                  -0.742
REMARK UNBOUND:                -0.742
REMARK  Name = No_4175-gen_results/8p0m/2024-11-26-14-13-15/
REMARK  6 active torsions:
REMARK  status: ('A' for Active; 'I' for Inactive)
REMARK    1  A    between atoms: C_3  and  C_7
REMARK    2  A    between atoms: C_6  and  C_13
REMARK    3  A    between atoms: N_15  and  C_16
REMARK    4  A    between atoms: C_16  and  C_20
REMARK    5  A    between atoms: C_17  and  C_18
REMARK    6  A    between atoms: N_21  and  C_22
REMARK                            x       y       z     vdW  Elec       q    Type
REMARK                         _______ _______ _______ _____ _____    ______ ____
ROOT
ATOM      1  C   UNL A   1     -26.359   0.219  25.337  0.00  0.00    +0.269 C 
ATOM      2  O   UNL A   1     -25.706  -0.769  25.016  0.00  0.00    -0.268 OA
ATOM      3  N   UNL A   1     -25.900   1.009  26.329  0.00  0.00    -0.171 NA
ENDROOT
BRANCH   1   9
ATOM      4  C   UNL A   1     -27.980   1.952  24.367  0.00  0.00    +0.005 A 
ATOM      5  C   UNL A   1     -28.976   2.216  23.735  0.00  0.00    +0.000 A 
ATOM      6  C   UNL A   1     -29.879   1.256  23.281  0.00  0.00    +0.000 A 
ATOM      7  C   UNL A   1     -29.597  -0.147  23.518  0.00  0.00    +0.000 A 
ATOM      8  C   UNL A   1     -28.412  -0.379  24.254  0.00  0.00    +0.005 A 
ATOM      9  C   UNL A   1     -27.621   0.591  24.633  0.00  0.00    +0.055 A 
BRANCH   6  10
ATOM     10  C   UNL A   1     -31.126   1.507  22.512  0.00  0.00    +0.000 A 
ATOM     11  C   UNL A   1     -32.099   0.633  22.472  0.00  0.00    +0.000 A 
ATOM     12  C   UNL A   1     -33.264   0.865  21.668  0.00  0.00    +0.000 A 
ATOM     13  C   UNL A   1     -33.371   1.906  20.803  0.00  0.00    +0.000 A 
ATOM     14  C   UNL A   1     -31.209   2.629  21.597  0.00  0.00    +0.000 A 
ATOM     15  C   UNL A   1     -32.342   2.805  20.758  0.00  0.00    +0.000 A 
ENDBRANCH   6  10
ENDBRANCH   1   9
BRANCH   3  16
ATOM     16  C   UNL A   1     -24.679   0.677  27.048  0.00  0.00    +0.126 C 
ATOM     17  C   UNL A   1     -23.612   1.106  26.788  0.00  0.00    +0.013 C 
BRANCH  16  18
ATOM     18  C   UNL A   1     -25.147   0.930  28.560  0.00  0.00    +0.284 C 
ATOM     19  N   UNL A   1     -25.489   0.036  29.303  0.00  0.00    -0.174 NA
ATOM     20  O   UNL A   1     -25.035   2.144  28.945  0.00  0.00    -0.267 OA
BRANCH  19  21
ATOM     21  C   UNL A   1     -25.268  -1.142  29.299  0.00  0.00    +0.074 A 
ATOM     22  C   UNL A   1     -26.291  -2.141  29.633  0.00  0.00    +0.017 A 
ATOM     23  C   UNL A   1     -26.143  -3.458  29.645  0.00  0.00    +0.001 A 
ATOM     24  C   UNL A   1     -24.857  -3.973  29.244  0.00  0.00    +0.000 A 
ATOM     25  C   UNL A   1     -23.826  -3.110  28.917  0.00  0.00    +0.001 A 
ATOM     26  C   UNL A   1     -24.070  -1.765  28.911  0.00  0.00    +0.017 A 
ENDBRANCH  19  21
ENDBRANCH  16  18
BRANCH  17  27
ATOM     27  C   UNL A   1     -23.550   2.278  25.986  0.00  0.00    +0.122 C 
ATOM     28 CL   UNL A   1     -22.344   2.625  24.832  0.00  0.00    -0.108 Cl
ENDBRANCH  17  27
ENDBRANCH   3  16
TORSDOF 6
ENDMDL
ENDMDL
