REMARK  Name = No_4176-gen_results/8p0m/2024-11-26-14-13-15/
REMARK  2 active torsions:
REMARK  status: ('A' for Active; 'I' for Inactive)
REMARK    1  A    between atoms: C_14  and  C_15
REMARK    2  A    between atoms: C_17  and  C_18
REMARK                            x       y       z     vdW  Elec       q    Type
REMARK                         _______ _______ _______ _____ _____    ______ ____
ROOT
ATOM      1  C   UNL A   1     -28.016  -0.814  28.878  0.00  0.00    -0.000 A 
ATOM      2  C   UNL A   1     -27.064  -0.119  28.608  0.00  0.00    -0.000 A 
ATOM      3  C   UNL A   1     -25.792  -0.430  29.076  0.00  0.00    -0.000 A 
ATOM      4  C   UNL A   1     -24.546   0.349  28.823  0.00  0.00    -0.000 A 
ATOM      5  C   UNL A   1     -23.241   0.022  29.332  0.00  0.00    -0.000 A 
ATOM      6  C   UNL A   1     -27.882  -1.899  29.863  0.00  0.00    -0.000 A 
ATOM      7  C   UNL A   1     -26.671  -2.327  30.321  0.00  0.00    -0.000 A 
ATOM      8  C   UNL A   1     -25.543  -1.585  29.932  0.00  0.00    -0.000 A 
ATOM      9  C   UNL A   1     -22.192   0.830  29.000  0.00  0.00    -0.000 A 
ATOM     10  C   UNL A   1     -22.147   1.778  28.029  0.00  0.00    -0.000 A 
ATOM     11  C   UNL A   1     -24.532   1.399  27.816  0.00  0.00    -0.004 A 
ATOM     12  C   UNL A   1     -25.740   1.695  27.155  0.00  0.00    -0.022 A 
ATOM     13  C   UNL A   1     -23.371   2.078  27.414  0.00  0.00    -0.000 A 
ATOM     14  C   UNL A   1     -27.066   0.990  27.586  0.00  0.00    -0.004 A 
ATOM     15  C   UNL A   1     -25.879   2.663  26.148  0.00  0.00    +0.031 C 
ENDROOT
BRANCH  14  16
ATOM     16  C   UNL A   1     -28.116   1.960  27.962  0.00  0.00    -0.000 C 
ATOM     17  C   UNL A   1     -29.241   1.758  28.196  0.00  0.00    -0.000 C 
BRANCH  17  18
ATOM     18  C   UNL A   1     -30.223   2.752  28.496  0.00  0.00    -0.000 C 
ATOM     19  C   UNL A   1     -31.486   2.534  28.932  0.00  0.00    -0.000 C 
ENDBRANCH  17  18
ENDBRANCH  14  16
TORSDOF 2
