MODEL 4176
MODEL 1
REMARK VINA RESULT:    -6.745      0.000      0.000
REMARK INTER + INTRA:          -8.066
REMARK INTER:                  -7.533
REMARK INTRA:                  -0.533
REMARK UNBOUND:                -0.533
REMARK  Name = No_4176-gen_results/8p0m/2024-11-26-14-13-15/
REMARK  2 active torsions:
REMARK  status: ('A' for Active; 'I' for Inactive)
REMARK    1  A    between atoms: C_14  and  C_15
REMARK    2  A    between atoms: C_17  and  C_18
REMARK                            x       y       z     vdW  Elec       q    Type
REMARK                         _______ _______ _______ _____ _____    ______ ____
ROOT
ATOM      1  C   UNL A   1     -23.799  -3.282  28.954  0.00  0.00    -0.000 A 
ATOM      2  C   UNL A   1     -24.685  -2.646  29.476  0.00  0.00    -0.000 A 
ATOM      3  C   UNL A   1     -25.878  -3.253  29.854  0.00  0.00    -0.000 A 
ATOM      4  C   UNL A   1     -27.045  -2.579  30.493  0.00  0.00    -0.000 A 
ATOM      5  C   UNL A   1     -28.279  -3.220  30.860  0.00  0.00    -0.000 A 
ATOM      6  C   UNL A   1     -24.037  -4.673  28.536  0.00  0.00    -0.000 A 
ATOM      7  C   UNL A   1     -25.139  -5.376  28.923  0.00  0.00    -0.000 A 
ATOM      8  C   UNL A   1     -26.134  -4.670  29.620  0.00  0.00    -0.000 A 
ATOM      9  C   UNL A   1     -29.253  -2.467  31.451  0.00  0.00    -0.000 A 
ATOM     10  C   UNL A   1     -29.133  -1.226  31.990  0.00  0.00    -0.000 A 
ATOM     11  C   UNL A   1     -26.912  -1.228  31.016  0.00  0.00    -0.004 A 
ATOM     12  C   UNL A   1     -25.683  -0.567  30.831  0.00  0.00    -0.022 A 
ATOM     13  C   UNL A   1     -27.911  -0.578  31.758  0.00  0.00    -0.000 A 
ATOM     14  C   UNL A   1     -24.550  -1.233  29.986  0.00  0.00    -0.004 A 
ATOM     15  C   UNL A   1     -25.397   0.726  31.297  0.00  0.00    +0.031 C 
ENDROOT
BRANCH  14  16
ATOM     16  C   UNL A   1     -24.116  -0.378  28.862  0.00  0.00    -0.000 C 
ATOM     17  C   UNL A   1     -24.709  -0.089  27.899  0.00  0.00    -0.000 C 
BRANCH  17  18
ATOM     18  C   UNL A   1     -24.208   0.697  26.815  0.00  0.00    -0.000 C 
ATOM     19  C   UNL A   1     -23.182   1.579  26.863  0.00  0.00    -0.000 C 
ENDBRANCH  17  18
ENDBRANCH  14  16
TORSDOF 2
ENDMDL
ENDMDL
