REMARK  Name = No_4177-gen_results/8p0m/2024-11-26-14-13-15/
REMARK  2 active torsions:
REMARK  status: ('A' for Active; 'I' for Inactive)
REMARK    1  A    between atoms: C_5  and  O_7
REMARK    2  A    between atoms: C_10  and  C_12
REMARK                            x       y       z     vdW  Elec       q    Type
REMARK                         _______ _______ _______ _____ _____    ______ ____
ROOT
ATOM      1  C   UNL A   1     -28.016  -0.814  28.878  0.00  0.00    +0.003 A 
ATOM      2  C   UNL A   1     -27.064  -0.119  28.608  0.00  0.00    +0.000 A 
ATOM      3  C   UNL A   1     -26.972   0.714  27.506  0.00  0.00    +0.004 A 
ATOM      4  C   UNL A   1     -28.105   0.774  26.642  0.00  0.00    +0.037 A 
ATOM      5  C   UNL A   1     -29.201   0.104  27.053  0.00  0.00    +0.139 A 
ATOM      6  C   UNL A   1     -29.210  -0.603  28.185  0.00  0.00    +0.037 A 
ATOM      7  C   UNL A   1     -25.719  -0.221  29.401  0.00  0.00    +0.001 A 
ATOM      8  C   UNL A   1     -24.569   0.127  28.900  0.00  0.00    +0.010 A 
ATOM      9  C   UNL A   1     -24.587   1.020  27.693  0.00  0.00    +0.068 A 
ATOM     10  C   UNL A   1     -25.692   1.235  26.987  0.00  0.00    +0.010 A 
ENDROOT
BRANCH   5  11
ATOM     11  O   UNL A   1     -30.299   0.228  26.257  0.00  0.00    -0.471 OA
ATOM     12  C   UNL A   1     -30.345  -0.454  25.143  0.00  0.00    +0.253 C 
ENDBRANCH   5  11
BRANCH   9  13
ATOM     13  C   UNL A   1     -23.252   1.605  27.325  0.00  0.00    +0.100 C 
ATOM     14  N   UNL A   1     -22.485   2.413  27.555  0.00  0.00    -0.191 NA
ENDBRANCH   9  13
TORSDOF 2
