MODEL 4177
MODEL 1
REMARK VINA RESULT:    -5.818      0.000      0.000
REMARK INTER + INTRA:          -6.587
REMARK INTER:                  -6.498
REMARK INTRA:                  -0.088
REMARK UNBOUND:                -0.088
REMARK  Name = No_4177-gen_results/8p0m/2024-11-26-14-13-15/
REMARK  2 active torsions:
REMARK  status: ('A' for Active; 'I' for Inactive)
REMARK    1  A    between atoms: C_5  and  O_7
REMARK    2  A    between atoms: C_10  and  C_12
REMARK                            x       y       z     vdW  Elec       q    Type
REMARK                         _______ _______ _______ _____ _____    ______ ____
ROOT
ATOM      1  C   UNL A   1     -30.883  -9.857  29.568  0.00  0.00    +0.003 A 
ATOM      2  C   UNL A   1     -29.978 -10.242  30.271  0.00  0.00    +0.000 A 
ATOM      3  C   UNL A   1     -29.067 -11.228  29.930  0.00  0.00    +0.004 A 
ATOM      4  C   UNL A   1     -29.195 -11.809  28.634  0.00  0.00    +0.037 A 
ATOM      5  C   UNL A   1     -30.118 -11.253  27.823  0.00  0.00    +0.139 A 
ATOM      6  C   UNL A   1     -30.890 -10.241  28.225  0.00  0.00    +0.037 A 
ATOM      7  C   UNL A   1     -29.839  -9.782  31.760  0.00  0.00    +0.001 A 
ATOM      8  C   UNL A   1     -29.211 -10.476  32.665  0.00  0.00    +0.010 A 
ATOM      9  C   UNL A   1     -28.259 -11.532  32.182  0.00  0.00    +0.068 A 
ATOM     10  C   UNL A   1     -28.241 -11.947  30.920  0.00  0.00    +0.010 A 
ENDROOT
BRANCH   5  11
ATOM     11  O   UNL A   1     -30.181 -11.768  26.564  0.00  0.00    -0.471 OA
ATOM     12  C   UNL A   1     -29.697 -12.963  26.351  0.00  0.00    +0.253 C 
ENDBRANCH   5  11
BRANCH   9  13
ATOM     13  C   UNL A   1     -27.369 -12.109  33.248  0.00  0.00    +0.100 C 
ATOM     14  N   UNL A   1     -27.186 -12.208  34.366  0.00  0.00    -0.191 NA
ENDBRANCH   9  13
TORSDOF 2
ENDMDL
ENDMDL
