REMARK  Name = No_4179-gen_results/8p0m/2024-11-26-14-13-15/
REMARK  3 active torsions:
REMARK  status: ('A' for Active; 'I' for Inactive)
REMARK    1  A    between atoms: C_1  and  C_2
REMARK    2  A    between atoms: C_1  and  N_8
REMARK    3  A    between atoms: N_8  and  C_10
REMARK                            x       y       z     vdW  Elec       q    Type
REMARK                         _______ _______ _______ _____ _____    ______ ____
ROOT
ATOM      1  C   UNL A   1     -27.064  -0.119  28.608  0.00  0.00    -0.001 A 
ATOM      2  C   UNL A   1     -26.876   1.133  28.913  0.00  0.00    -0.002 A 
ATOM      3  C   UNL A   1     -25.688   1.952  28.567  0.00  0.00    +0.011 A 
ATOM      4  C   UNL A   1     -24.639   1.283  27.875  0.00  0.00    +0.058 A 
ATOM      5  C   UNL A   1     -24.807  -0.051  27.604  0.00  0.00    +0.011 A 
ATOM      6  C   UNL A   1     -25.902  -0.767  27.951  0.00  0.00    -0.002 A 
ATOM      7 CL   UNL A   1     -23.234   2.094  27.449  0.00  0.00    -0.082 Cl
ENDROOT
BRANCH   1   8
ATOM      8  C   UNL A   1     -28.016  -0.814  28.878  0.00  0.00    +0.139 C 
BRANCH   8   9
ATOM      9  N   UNL A   1     -29.147  -0.219  28.976  0.00  0.00    -0.232 NA
BRANCH   9  10
ATOM     10  C   UNL A   1     -30.161  -0.713  29.707  0.00  0.00    +0.081 C 
ATOM     11  C   UNL A   1     -31.464  -0.243  29.539  0.00  0.00    +0.019 C 
ENDBRANCH   9  10
ENDBRANCH   8   9
ENDBRANCH   1   8
TORSDOF 3
