MODEL 4179
MODEL 1
REMARK VINA RESULT:    -4.918      0.000      0.000
REMARK INTER + INTRA:          -5.933
REMARK INTER:                  -5.780
REMARK INTRA:                  -0.153
REMARK UNBOUND:                -0.153
REMARK  Name = No_4179-gen_results/8p0m/2024-11-26-14-13-15/
REMARK  3 active torsions:
REMARK  status: ('A' for Active; 'I' for Inactive)
REMARK    1  A    between atoms: C_1  and  C_2
REMARK    2  A    between atoms: C_1  and  N_8
REMARK    3  A    between atoms: N_8  and  C_10
REMARK                            x       y       z     vdW  Elec       q    Type
REMARK                         _______ _______ _______ _____ _____    ______ ____
ROOT
ATOM      1  C   UNL A   1     -23.538  -0.506  28.481  0.00  0.00    -0.001 A 
ATOM      2  C   UNL A   1     -24.485  -0.258  27.621  0.00  0.00    -0.002 A 
ATOM      3  C   UNL A   1     -24.478   0.812  26.593  0.00  0.00    +0.011 A 
ATOM      4  C   UNL A   1     -23.345   1.674  26.585  0.00  0.00    +0.058 A 
ATOM      5  C   UNL A   1     -22.373   1.453  27.527  0.00  0.00    +0.011 A 
ATOM      6  C   UNL A   1     -22.424   0.473  28.459  0.00  0.00    -0.002 A 
ATOM      7 CL   UNL A   1     -23.231   2.936  25.486  0.00  0.00    -0.082 Cl
ENDROOT
BRANCH   1   8
ATOM      8  C   UNL A   1     -23.515  -1.365  29.331  0.00  0.00    +0.139 C 
BRANCH   8   9
ATOM      9  N   UNL A   1     -23.373  -2.571  28.920  0.00  0.00    -0.232 NA
BRANCH   9  10
ATOM     10  C   UNL A   1     -24.262  -3.539  29.201  0.00  0.00    +0.081 C 
ATOM     11  C   UNL A   1     -24.193  -4.783  28.575  0.00  0.00    +0.019 C 
ENDBRANCH   9  10
ENDBRANCH   8   9
ENDBRANCH   1   8
TORSDOF 3
ENDMDL
ENDMDL
