MODEL 417
MODEL 1
REMARK VINA RESULT:    -7.126      0.000      0.000
REMARK INTER + INTRA:         -11.234
REMARK INTER:                 -10.043
REMARK INTRA:                  -1.191
REMARK UNBOUND:                -1.191
REMARK  Name = No_417-gen_results/8p0m/2024-11-26-14-13-15/
REMARK  7 active torsions:
REMARK  status: ('A' for Active; 'I' for Inactive)
REMARK    1  A    between atoms: C_1  and  C_2
REMARK    2  A    between atoms: C_1  and  C_8
REMARK    3  A    between atoms: C_3  and  C_15
REMARK    4  A    between atoms: C_5  and  C_12
REMARK    5  A    between atoms: N_17  and  C_18
REMARK    6  A    between atoms: C_18  and  C_19
REMARK    7  A    between atoms: C_23  and  C_25
REMARK                            x       y       z     vdW  Elec       q    Type
REMARK                         _______ _______ _______ _____ _____    ______ ____
ROOT
ATOM      1  C   UNL A   1     -25.672   2.232  26.415  0.00  0.00    -0.009 A 
ATOM      2  C   UNL A   1     -26.257   1.171  27.079  0.00  0.00    +0.051 A 
ATOM      3  C   UNL A   1     -27.497   0.517  26.703  0.00  0.00    +0.009 A 
ATOM      4  C   UNL A   1     -28.198   0.990  25.572  0.00  0.00    +0.057 A 
ATOM      5  C   UNL A   1     -27.592   2.088  24.863  0.00  0.00    +0.004 A 
ATOM      6  C   UNL A   1     -26.397   2.668  25.216  0.00  0.00    -0.004 A 
ENDROOT
BRANCH   4   7
ATOM      7  C   UNL A   1     -29.460   0.469  25.154  0.00  0.00    +0.284 C 
ATOM      8  N   UNL A   1     -30.054  -0.313  25.987  0.00  0.00    -0.084 NA
ATOM      9  O   UNL A   1     -30.004   0.774  24.060  0.00  0.00    -0.267 OA
ENDBRANCH   4   7
BRANCH   2  10
ATOM     10  C   UNL A   1     -25.600   0.582  28.233  0.00  0.00    +0.265 C 
ATOM     11  O   UNL A   1     -25.590   0.984  29.327  0.00  0.00    -0.268 OA
ATOM     12  N   UNL A   1     -24.832  -0.585  27.987  0.00  0.00    -0.197 NA
BRANCH  12  13
ATOM     13  C   UNL A   1     -24.148  -1.292  29.008  0.00  0.00    +0.142 C 
BRANCH  13  14
ATOM     14  C   UNL A   1     -24.530  -2.539  29.113  0.00  0.00    -0.001 A 
ATOM     15  C   UNL A   1     -23.801  -3.389  28.716  0.00  0.00    -0.003 A 
ATOM     16  C   UNL A   1     -24.208  -4.811  28.619  0.00  0.00    -0.000 A 
ATOM     17  C   UNL A   1     -25.442  -5.124  29.193  0.00  0.00    -0.000 A 
ATOM     18  C   UNL A   1     -26.246  -4.142  29.703  0.00  0.00    -0.000 A 
ATOM     19  C   UNL A   1     -25.820  -2.825  29.618  0.00  0.00    -0.003 A 
BRANCH  18  20
ATOM     20  C   UNL A   1     -27.571  -4.479  30.229  0.00  0.00    -0.000 C 
ATOM     21  C   UNL A   1     -28.415  -3.827  30.554  0.00  0.00    -0.000 C 
ENDBRANCH  18  20
ENDBRANCH  13  14
ENDBRANCH  12  13
ENDBRANCH   2  10
BRANCH   1  22
ATOM     22  C   UNL A   1     -24.603   2.707  26.723  0.00  0.00    +0.130 C 
BRANCH  22  23
ATOM     23  C   UNL A   1     -23.439   2.271  25.891  0.00  0.00    +0.402 C 
ATOM     24  F   UNL A   1     -23.068   3.238  25.064  0.00  0.00    -0.170 F 
ATOM     25  F   UNL A   1     -22.350   2.027  26.641  0.00  0.00    -0.170 F 
ATOM     26  F   UNL A   1     -23.774   1.219  25.187  0.00  0.00    -0.170 F 
ENDBRANCH  22  23
ENDBRANCH   1  22
TORSDOF 7
ENDMDL
ENDMDL
