REMARK  Name = No_418-gen_results/8p0m/2024-11-26-14-13-15/
REMARK  4 active torsions:
REMARK  status: ('A' for Active; 'I' for Inactive)
REMARK    1  A    between atoms: C_2  and  C_7
REMARK    2  A    between atoms: C_3  and  C_11
REMARK    3  A    between atoms: C_11  and  C_12
REMARK    4  A    between atoms: C_13  and  C_18
REMARK                            x       y       z     vdW  Elec       q    Type
REMARK                         _______ _______ _______ _____ _____    ______ ____
ROOT
ATOM      1  C   UNL A   1     -25.238   0.655  27.332  0.00  0.00    -0.013 A 
ATOM      2  C   UNL A   1     -25.544   1.181  26.131  0.00  0.00    +0.050 A 
ATOM      3  C   UNL A   1     -24.408   1.442  28.190  0.00  0.00    -0.004 A 
ATOM      4  C   UNL A   1     -23.819   2.584  27.695  0.00  0.00    -0.000 A 
ATOM      5  C   UNL A   1     -25.018   2.341  25.630  0.00  0.00    +0.004 A 
ATOM      6  C   UNL A   1     -24.134   3.107  26.475  0.00  0.00    +0.000 A 
ENDROOT
BRANCH   2   7
ATOM      7  C   UNL A   1     -26.429   0.476  25.213  0.00  0.00    +0.249 C 
ATOM      8  N   UNL A   1     -27.744   0.430  25.274  0.00  0.00    -0.276 N 
ATOM      9  C   UNL A   1     -28.565  -0.138  24.428  0.00  0.00    +0.094 C 
ATOM     10  C   UNL A   1     -29.917   0.193  24.493  0.00  0.00    +0.022 C 
ATOM     11  C   UNL A   1     -28.437   1.577  25.930  0.00  0.00    +0.094 C 
ATOM     12  C   UNL A   1     -29.754   1.591  25.892  0.00  0.00    +0.022 C 
ATOM     13  C   UNL A   1     -30.538   1.035  25.217  0.00  0.00    +0.004 C 
ATOM     14  O   UNL A   1     -25.856  -0.379  24.428  0.00  0.00    -0.270 OA
ENDBRANCH   2   7
BRANCH   1  15
ATOM     15  C   UNL A   1     -25.629  -0.716  27.675  0.00  0.00    +0.053 C 
BRANCH  15  18
ATOM     16  C   UNL A   1     -28.016  -0.814  28.878  0.00  0.00    -0.000 A 
ATOM     17  C   UNL A   1     -28.469  -0.785  29.829  0.00  0.00    +0.071 A 
ATOM     18  C   UNL A   1     -26.504  -0.778  28.877  0.00  0.00    -0.018 A 
ATOM     19  C   UNL A   1     -25.810  -0.853  30.103  0.00  0.00    -0.004 A 
ATOM     20  C   UNL A   1     -27.991  -0.892  31.226  0.00  0.00    +0.004 A 
ATOM     21  C   UNL A   1     -26.604  -0.868  31.265  0.00  0.00    -0.000 A 
BRANCH  17  22
ATOM     22  C   UNL A   1     -30.074  -0.836  29.861  0.00  0.00    +0.419 C 
ATOM     23  F   UNL A   1     -30.592  -1.828  30.096  0.00  0.00    -0.166 F 
ATOM     24  F   UNL A   1     -30.413  -0.387  28.612  0.00  0.00    -0.166 F 
ATOM     25  F   UNL A   1     -30.535   0.155  30.642  0.00  0.00    -0.166 F 
ENDBRANCH  17  22
ENDBRANCH  15  18
ENDBRANCH   1  15
TORSDOF 4
