REMARK  Name = No_4180-gen_results/8p0m/2024-11-26-14-13-15/
REMARK  2 active torsions:
REMARK  status: ('A' for Active; 'I' for Inactive)
REMARK    1  A    between atoms: C_3  and  C_10
REMARK    2  A    between atoms: C_5  and  C_7
REMARK                            x       y       z     vdW  Elec       q    Type
REMARK                         _______ _______ _______ _____ _____    ______ ____
ROOT
ATOM      1  C   UNL A   1     -28.016  -0.814  28.878  0.00  0.00    +0.000 A 
ATOM      2  C   UNL A   1     -27.064  -0.119  28.608  0.00  0.00    -0.000 A 
ATOM      3  C   UNL A   1     -26.972   0.714  27.506  0.00  0.00    -0.002 A 
ATOM      4  C   UNL A   1     -28.105   0.774  26.642  0.00  0.00    +0.004 A 
ATOM      5  C   UNL A   1     -29.204   0.118  27.048  0.00  0.00    +0.057 A 
ATOM      6  C   UNL A   1     -29.213  -0.609  28.128  0.00  0.00    +0.005 A 
ENDROOT
BRANCH   3   7
ATOM      7  C   UNL A   1     -25.685   1.404  27.091  0.00  0.00    +0.004 C 
ATOM      8  C   UNL A   1     -24.544   1.065  27.733  0.00  0.00    +0.018 C 
ATOM      9  C   UNL A   1     -23.325   1.818  27.367  0.00  0.00    +0.093 C 
ATOM     10  N   UNL A   1     -23.487   2.579  26.254  0.00  0.00    -0.264 NA
ATOM     11  C   UNL A   1     -25.378   2.334  26.050  0.00  0.00    +0.152 C 
ENDBRANCH   3   7
BRANCH   5  12
ATOM     12  C   UNL A   1     -30.480   0.193  26.324  0.00  0.00    +0.284 C 
ATOM     13  N   UNL A   1     -30.537   0.136  25.133  0.00  0.00    -0.084 NA
ATOM     14  O   UNL A   1     -31.588   0.230  26.935  0.00  0.00    -0.267 OA
ENDBRANCH   5  12
TORSDOF 2
