REMARK  Name = No_4181-gen_results/8p0m/2024-11-26-14-13-15/
REMARK  5 active torsions:
REMARK  status: ('A' for Active; 'I' for Inactive)
REMARK    1  A    between atoms: C_1  and  C_8
REMARK    2  A    between atoms: C_3  and  C_17
REMARK    3  A    between atoms: C_5  and  C_11
REMARK    4  A    between atoms: N_18  and  C_20
REMARK    5  A    between atoms: C_20  and  C_21
REMARK                            x       y       z     vdW  Elec       q    Type
REMARK                         _______ _______ _______ _____ _____    ______ ____
ROOT
ATOM      1  C   UNL A   1     -28.016  -0.814  28.878  0.00  0.00    -0.008 C 
ATOM      2  C   UNL A   1     -27.064  -0.119  28.608  0.00  0.00    -0.037 C 
ATOM      3  C   UNL A   1     -26.972   0.714  27.506  0.00  0.00    +0.085 C 
ATOM      4  C   UNL A   1     -25.820   1.491  27.116  0.00  0.00    +0.018 C 
ATOM      5  C   UNL A   1     -24.656   1.424  27.918  0.00  0.00    +0.068 C 
ATOM      6  C   UNL A   1     -24.685   0.590  29.066  0.00  0.00    +0.010 C 
ATOM      7  C   UNL A   1     -25.810  -0.127  29.334  0.00  0.00    +0.023 C 
ENDROOT
BRANCH   1   8
ATOM      8  C   UNL A   1     -28.709  -0.459  30.175  0.00  0.00    -0.001 A 
ATOM      9  C   UNL A   1     -29.841  -0.517  30.336  0.00  0.00    -0.000 A 
ATOM     10  C   UNL A   1     -30.531  -0.146  31.601  0.00  0.00    -0.000 A 
ATOM     11  C   UNL A   1     -29.729   0.256  32.664  0.00  0.00    -0.000 A 
ATOM     12  C   UNL A   1     -28.354   0.257  32.507  0.00  0.00    -0.000 A 
ATOM     13  C   UNL A   1     -27.838  -0.091  31.340  0.00  0.00    -0.000 A 
ENDBRANCH   1   8
BRANCH   5  14
ATOM     14  C   UNL A   1     -23.460   2.189  27.585  0.00  0.00    +0.318 C 
ATOM     15  F   UNL A   1     -22.988   2.759  28.576  0.00  0.00    -0.198 F 
ATOM     16  F   UNL A   1     -23.137   2.487  26.496  0.00  0.00    -0.198 F 
ENDBRANCH   5  14
BRANCH   3  17
ATOM     17  C   UNL A   1     -28.150   0.913  26.636  0.00  0.00    +0.195 C 
ATOM     18  N   UNL A   1     -28.184   0.701  25.457  0.00  0.00    -0.151 NA
ATOM     19  F   UNL A   1     -29.043   1.708  27.112  0.00  0.00    -0.191 F 
BRANCH  18  20
ATOM     20  C   UNL A   1     -28.818   0.229  24.823  0.00  0.00    +0.271 C 
ATOM     21  O   UNL A   1     -28.597  -0.159  23.610  0.00  0.00    -0.268 OA
BRANCH  20  22
ATOM     22  C   UNL A   1     -30.125  -0.083  25.239  0.00  0.00    +0.055 A 
ATOM     23  C   UNL A   1     -30.994  -0.941  24.414  0.00  0.00    +0.005 A 
ATOM     24  C   UNL A   1     -32.200  -1.408  24.931  0.00  0.00    +0.000 A 
ATOM     25  C   UNL A   1     -32.678  -1.040  26.160  0.00  0.00    +0.000 A 
ATOM     26  C   UNL A   1     -31.856  -0.149  26.911  0.00  0.00    +0.000 A 
ATOM     27  C   UNL A   1     -30.693   0.203  26.515  0.00  0.00    +0.005 A 
ENDBRANCH  20  22
ENDBRANCH  18  20
ENDBRANCH   3  17
TORSDOF 5
