MODEL 4181
MODEL 1
REMARK VINA RESULT:    -9.173      0.000      0.000
REMARK INTER + INTRA:         -12.381
REMARK INTER:                 -11.855
REMARK INTRA:                  -0.526
REMARK UNBOUND:                -0.526
REMARK  Name = No_4181-gen_results/8p0m/2024-11-26-14-13-15/
REMARK  5 active torsions:
REMARK  status: ('A' for Active; 'I' for Inactive)
REMARK    1  A    between atoms: C_1  and  C_8
REMARK    2  A    between atoms: C_3  and  C_17
REMARK    3  A    between atoms: C_5  and  C_11
REMARK    4  A    between atoms: N_18  and  C_20
REMARK    5  A    between atoms: C_20  and  C_21
REMARK                            x       y       z     vdW  Elec       q    Type
REMARK                         _______ _______ _______ _____ _____    ______ ____
ROOT
ATOM      1  C   UNL A   1     -25.633  -1.097  29.223  0.00  0.00    -0.008 C 
ATOM      2  C   UNL A   1     -25.052  -0.382  28.439  0.00  0.00    -0.037 C 
ATOM      3  C   UNL A   1     -24.153   0.614  28.783  0.00  0.00    +0.085 C 
ATOM      4  C   UNL A   1     -23.509   1.533  27.876  0.00  0.00    +0.018 C 
ATOM      5  C   UNL A   1     -23.796   1.433  26.494  0.00  0.00    +0.068 C 
ATOM      6  C   UNL A   1     -24.708   0.431  26.074  0.00  0.00    +0.010 C 
ATOM      7  C   UNL A   1     -25.287  -0.370  27.009  0.00  0.00    +0.023 C 
ENDROOT
BRANCH   1   8
ATOM      8  C   UNL A   1     -25.293  -2.566  29.107  0.00  0.00    -0.001 A 
ATOM      9  C   UNL A   1     -24.312  -2.968  28.674  0.00  0.00    -0.000 A 
ATOM     10  C   UNL A   1     -23.983  -4.412  28.535  0.00  0.00    -0.000 A 
ATOM     11  C   UNL A   1     -24.922  -5.323  29.006  0.00  0.00    -0.000 A 
ATOM     12  C   UNL A   1     -26.078  -4.850  29.601  0.00  0.00    -0.000 A 
ATOM     13  C   UNL A   1     -26.278  -3.545  29.677  0.00  0.00    -0.000 A 
ENDBRANCH   1   8
BRANCH   5  14
ATOM     14  C   UNL A   1     -23.174   2.327  25.524  0.00  0.00    +0.318 C 
ATOM     15  F   UNL A   1     -23.649   3.467  25.578  0.00  0.00    -0.198 F 
ATOM     16  F   UNL A   1     -22.530   1.975  24.607  0.00  0.00    -0.198 F 
ENDBRANCH   5  14
BRANCH   3  17
ATOM     17  C   UNL A   1     -23.728   0.765  30.190  0.00  0.00    +0.195 C 
ATOM     18  N   UNL A   1     -24.185   0.162  31.120  0.00  0.00    -0.151 NA
ATOM     19  F   UNL A   1     -23.116   1.866  30.453  0.00  0.00    -0.191 F 
BRANCH  18  20
ATOM     20  C   UNL A   1     -23.806  -0.339  31.916  0.00  0.00    +0.271 C 
ATOM     21  O   UNL A   1     -22.741  -1.069  31.970  0.00  0.00    -0.268 OA
BRANCH  20  22
ATOM     22  C   UNL A   1     -24.463  -0.283  33.158  0.00  0.00    +0.055 A 
ATOM     23  C   UNL A   1     -25.678   0.532  33.333  0.00  0.00    +0.005 A 
ATOM     24  C   UNL A   1     -26.430   0.416  34.500  0.00  0.00    +0.000 A 
ATOM     25  C   UNL A   1     -26.051  -0.367  35.557  0.00  0.00    +0.000 A 
ATOM     26  C   UNL A   1     -24.832  -1.090  35.396  0.00  0.00    +0.000 A 
ATOM     27  C   UNL A   1     -24.183  -1.096  34.296  0.00  0.00    +0.005 A 
ENDBRANCH  20  22
ENDBRANCH  18  20
ENDBRANCH   3  17
TORSDOF 5
ENDMDL
ENDMDL
