MODEL 4182
MODEL 1
REMARK VINA RESULT:    -5.845      0.000      0.000
REMARK INTER + INTRA:          -6.137
REMARK INTER:                  -6.186
REMARK INTRA:                   0.050
REMARK UNBOUND:                 0.050
REMARK  Name = No_4182-gen_results/8p0m/2024-11-26-14-13-15/
REMARK  1 active torsions:
REMARK  status: ('A' for Active; 'I' for Inactive)
REMARK    1  A    between atoms: C_2  and  C_7
REMARK                            x       y       z     vdW  Elec       q    Type
REMARK                         _______ _______ _______ _____ _____    ______ ____
ROOT
ATOM      1  C   UNL A   1     -22.503  -0.548  29.242  0.00  0.00    +0.249 C 
ATOM      2  O   UNL A   1     -21.928  -1.463  29.134  0.00  0.00    -0.270 OA
ATOM      3  N   UNL A   1     -22.955  -0.085  30.482  0.00  0.00    -0.276 N 
ATOM      4  C   UNL A   1     -22.668  -0.858  31.639  0.00  0.00    +0.094 C 
ATOM      5  C   UNL A   1     -23.698   1.150  30.689  0.00  0.00    +0.094 C 
ATOM      6  C   UNL A   1     -24.848   1.012  31.194  0.00  0.00    +0.022 C 
ATOM      7  C   UNL A   1     -24.882   0.296  32.506  0.00  0.00    +0.004 C 
ATOM      8  C   UNL A   1     -23.991  -0.932  32.451  0.00  0.00    +0.022 C 
ENDROOT
BRANCH   1  10
ATOM      9  C   UNL A   1     -24.015   0.085  27.656  0.00  0.00    +0.004 A 
ATOM     10  C   UNL A   1     -23.081   0.366  28.054  0.00  0.00    +0.054 A 
ATOM     11  C   UNL A   1     -24.530   0.954  26.530  0.00  0.00    +0.000 A 
ATOM     12  C   UNL A   1     -23.698   1.961  25.999  0.00  0.00    +0.000 A 
ATOM     13  C   UNL A   1     -22.020   1.325  27.672  0.00  0.00    +0.004 A 
ATOM     14  C   UNL A   1     -22.455   2.138  26.635  0.00  0.00    +0.000 A 
ENDBRANCH   1  10
TORSDOF 1
ENDMDL
ENDMDL
