MODEL 4183
MODEL 1
REMARK VINA RESULT:    -6.983      0.000      0.000
REMARK INTER + INTRA:          -8.877
REMARK INTER:                  -8.207
REMARK INTRA:                  -0.670
REMARK UNBOUND:                -0.670
REMARK  Name = No_4183-gen_results/8p0m/2024-11-26-14-13-15/
REMARK  3 active torsions:
REMARK  status: ('A' for Active; 'I' for Inactive)
REMARK    1  A    between atoms: C_3  and  C_4
REMARK    2  A    between atoms: C_4  and  C_8
REMARK    3  A    between atoms: C_4  and  C_14
REMARK                            x       y       z     vdW  Elec       q    Type
REMARK                         _______ _______ _______ _____ _____    ______ ____
ROOT
ATOM      1  C   UNL A   1     -23.894  -1.149  29.198  0.00  0.00    +0.263 C 
ATOM      2  F   UNL A   1     -22.594  -1.785  28.921  0.00  0.00    -0.219 F 
ENDROOT
BRANCH   1   5
ATOM      3  C   UNL A   1     -25.342  -0.445  27.321  0.00  0.00    -0.001 A 
ATOM      4  C   UNL A   1     -25.175  -0.142  26.326  0.00  0.00    -0.000 A 
ATOM      5  C   UNL A   1     -24.169  -0.300  28.182  0.00  0.00    +0.021 A 
ATOM      6  C   UNL A   1     -24.492   1.006  25.837  0.00  0.00    -0.000 A 
ATOM      7  C   UNL A   1     -23.360   1.372  26.634  0.00  0.00    -0.000 A 
ATOM      8  C   UNL A   1     -23.193   0.685  27.819  0.00  0.00    -0.001 A 
ENDBRANCH   1   5
BRANCH   1   9
ATOM      9  C   UNL A   1     -24.524  -2.310  29.022  0.00  0.00    +0.021 A 
ATOM     10  C   UNL A   1     -23.790  -3.532  28.725  0.00  0.00    -0.001 A 
ATOM     11  C   UNL A   1     -24.443  -4.772  28.724  0.00  0.00    -0.000 A 
ATOM     12  C   UNL A   1     -25.671  -4.909  29.411  0.00  0.00    -0.000 A 
ATOM     13  C   UNL A   1     -26.319  -3.735  29.880  0.00  0.00    -0.000 A 
ATOM     14  C   UNL A   1     -25.785  -2.506  29.696  0.00  0.00    -0.001 A 
ENDBRANCH   1   9
BRANCH   1  15
ATOM     15  C   UNL A   1     -23.851  -0.560  30.478  0.00  0.00    +0.402 C 
ATOM     16  O   UNL A   1     -24.573   0.349  30.915  0.00  0.00    -0.242 OA
ATOM     17  O   UNL A   1     -22.727  -0.741  31.213  0.00  0.00    -0.242 OA
ENDBRANCH   1  15
TORSDOF 3
ENDMDL
ENDMDL
