MODEL 4184
MODEL 1
REMARK VINA RESULT:    -7.349      0.000      0.000
REMARK INTER + INTRA:         -10.648
REMARK INTER:                  -9.497
REMARK INTRA:                  -1.151
REMARK UNBOUND:                -1.151
REMARK  Name = No_4184-gen_results/8p0m/2024-11-26-14-13-15/
REMARK  5 active torsions:
REMARK  status: ('A' for Active; 'I' for Inactive)
REMARK    1  A    between atoms: C_2  and  C_7
REMARK    2  A    between atoms: C_3  and  C_17
REMARK    3  A    between atoms: N_9  and  C_11
REMARK    4  A    between atoms: C_14  and  C_24
REMARK    5  A    between atoms: C_17  and  C_18
REMARK                            x       y       z     vdW  Elec       q    Type
REMARK                         _______ _______ _______ _____ _____    ______ ____
ROOT
ATOM      1  C   UNL A   1     -11.461  -0.098  39.547  0.00  0.00    +0.001 A 
ATOM      2  C   UNL A   1     -11.886  -0.866  40.131  0.00  0.00    +0.054 A 
ATOM      3  C   UNL A   1     -11.023  -0.468  38.191  0.00  0.00    -0.018 A 
ATOM      4  C   UNL A   1     -11.299  -1.765  37.669  0.00  0.00    -0.004 A 
ATOM      5  C   UNL A   1     -12.328  -2.251  39.816  0.00  0.00    +0.004 A 
ATOM      6  C   UNL A   1     -11.931  -2.634  38.569  0.00  0.00    -0.000 A 
ENDROOT
BRANCH   2   7
ATOM      7  C   UNL A   1     -12.391  -0.501  41.599  0.00  0.00    +0.253 C 
ATOM      8  O   UNL A   1     -13.389  -0.078  41.862  0.00  0.00    -0.270 OA
ATOM      9  N   UNL A   1     -11.525  -1.026  42.562  0.00  0.00    -0.253 N 
ATOM     10  C   UNL A   1     -11.774  -0.700  43.923  0.00  0.00    +0.120 C 
BRANCH   9  11
ATOM     11  C   UNL A   1     -10.275  -1.697  42.267  0.00  0.00    +0.054 A 
ATOM     12  C   UNL A   1     -10.359  -3.084  42.582  0.00  0.00    +0.015 A 
ATOM     13  C   UNL A   1      -9.532  -3.754  42.712  0.00  0.00    +0.001 A 
ATOM     14  C   UNL A   1      -8.117  -3.273  42.345  0.00  0.00    -0.000 A 
ATOM     15  C   UNL A   1      -9.095  -1.114  41.985  0.00  0.00    +0.015 A 
ATOM     16  C   UNL A   1      -7.963  -1.954  41.986  0.00  0.00    +0.001 A 
BRANCH  14  17
ATOM     17  C   UNL A   1      -6.915  -4.177  42.337  0.00  0.00    -0.005 C 
ATOM     18  C   UNL A   1      -6.950  -5.342  42.368  0.00  0.00    -0.026 C 
ATOM     19  C   UNL A   1      -5.737  -6.204  42.318  0.00  0.00    +0.031 C 
ENDBRANCH  14  17
ENDBRANCH   9  11
ENDBRANCH   2   7
BRANCH   3  20
ATOM     20  C   UNL A   1     -10.299   0.441  37.238  0.00  0.00    +0.053 C 
BRANCH  20  21
ATOM     21  C   UNL A   1     -11.219   1.198  36.384  0.00  0.00    -0.018 A 
ATOM     22  C   UNL A   1     -11.050   1.084  35.040  0.00  0.00    -0.004 A 
ATOM     23  C   UNL A   1     -12.034   1.652  34.160  0.00  0.00    -0.000 A 
ATOM     24  C   UNL A   1     -12.238   1.988  36.847  0.00  0.00    -0.004 A 
ATOM     25  C   UNL A   1     -13.202   2.543  36.057  0.00  0.00    -0.000 A 
ATOM     26  C   UNL A   1     -13.063   2.439  34.642  0.00  0.00    -0.000 A 
ENDBRANCH  20  21
ENDBRANCH   3  20
TORSDOF 5
ENDMDL
ENDMDL
