REMARK  Name = No_4185-gen_results/8p0m/2024-11-26-14-13-15/
REMARK  4 active torsions:
REMARK  status: ('A' for Active; 'I' for Inactive)
REMARK    1  A    between atoms: C_4  and  N_7
REMARK    2  A    between atoms: N_7  and  C_8
REMARK    3  A    between atoms: C_9  and  N_13
REMARK    4  A    between atoms: C_10  and  C_11
REMARK                            x       y       z     vdW  Elec       q    Type
REMARK                         _______ _______ _______ _____ _____    ______ ____
ROOT
ATOM      1  C   UNL A   1     -25.070   2.218  28.502  0.00  0.00    +0.105 A 
ATOM      2  C   UNL A   1     -24.832   3.383  27.635  0.00  0.00    +0.163 A 
ATOM      3  C   UNL A   1     -24.067   1.162  28.172  0.00  0.00    +0.020 A 
ATOM      4  N   UNL A   1     -24.235   3.343  26.406  0.00  0.00    -0.225 NA
ATOM      5  C   UNL A   1     -23.366   2.335  26.118  0.00  0.00    +0.101 A 
ATOM      6  C   UNL A   1     -23.185   1.312  27.056  0.00  0.00    +0.022 A 
ENDROOT
BRANCH   3   7
ATOM      7  C   UNL A   1     -23.705   0.202  29.121  0.00  0.00    +0.001 A 
ATOM      8  C   UNL A   1     -22.970  -0.886  28.881  0.00  0.00    +0.000 A 
ATOM      9  C   UNL A   1     -24.056   0.352  30.553  0.00  0.00    +0.000 A 
ATOM     10  C   UNL A   1     -23.758  -0.667  31.490  0.00  0.00    +0.000 A 
ATOM     11  C   UNL A   1     -23.067  -1.767  31.116  0.00  0.00    +0.000 A 
ATOM     12  C   UNL A   1     -22.714  -1.944  29.779  0.00  0.00    +0.000 A 
ENDBRANCH   3   7
BRANCH   2  13
ATOM     13  N   UNL A   1     -25.474   4.507  27.906  0.00  0.00    -0.288 N 
ATOM     14  C   UNL A   1     -26.042   4.851  29.055  0.00  0.00    +0.082 A 
ATOM     15  C   UNL A   1     -26.907   6.111  28.939  0.00  0.00    +0.021 A 
ATOM     16  C   UNL A   1     -26.853   6.608  27.807  0.00  0.00    +0.021 A 
ATOM     17  C   UNL A   1     -25.877   5.579  26.985  0.00  0.00    +0.082 A 
ENDBRANCH   2  13
BRANCH   1  18
ATOM     18  N   UNL A   1     -25.819   2.100  29.248  0.00  0.00    -0.209 NA
BRANCH  18  22
ATOM     19  C   UNL A   1     -28.016  -0.814  28.878  0.00  0.00    +0.001 A 
ATOM     20  C   UNL A   1     -28.469  -0.785  29.829  0.00  0.00    +0.000 A 
ATOM     21  C   UNL A   1     -27.087   0.290  28.638  0.00  0.00    +0.017 A 
ATOM     22  C   UNL A   1     -26.768   1.027  29.472  0.00  0.00    +0.071 A 
ATOM     23  C   UNL A   1     -28.276   0.027  31.015  0.00  0.00    +0.001 A 
ATOM     24  C   UNL A   1     -27.329   1.054  30.753  0.00  0.00    +0.017 A 
ENDBRANCH  18  22
ENDBRANCH   1  18
TORSDOF 4
