REMARK  Name = No_4186-gen_results/8p0m/2024-11-26-14-13-15/
REMARK  9 active torsions:
REMARK  status: ('A' for Active; 'I' for Inactive)
REMARK    1  A    between atoms: C_2  and  C_3
REMARK    2  A    between atoms: C_3  and  C_5
REMARK    3  A    between atoms: N_4  and  C_13
REMARK    4  A    between atoms: N_4  and  C_15
REMARK    5  A    between atoms: C_6  and  C_7
REMARK    6  A    between atoms: C_9  and  O_19
REMARK    7  A    between atoms: O_19  and  C_20
REMARK    8  A    between atoms: C_20  and  C_21
REMARK    9  A    between atoms: C_25  and  C_27
REMARK                            x       y       z     vdW  Elec       q    Type
REMARK                         _______ _______ _______ _____ _____    ______ ____
ROOT
ATOM      1  C   UNL A   1     -27.784   1.282  27.987  0.00  0.00    -0.013 A 
ATOM      2  C   UNL A   1     -26.427   1.040  27.994  0.00  0.00    -0.003 A 
ATOM      3  C   UNL A   1     -26.041   0.444  26.635  0.00  0.00    -0.000 A 
ATOM      4  C   UNL A   1     -26.845   0.590  25.509  0.00  0.00    -0.000 A 
ATOM      5  C   UNL A   1     -28.393   2.244  27.182  0.00  0.00    -0.004 A 
ATOM      6  C   UNL A   1     -27.980   1.472  25.707  0.00  0.00    -0.000 A 
ENDROOT
BRANCH   2   7
ATOM      7  C   UNL A   1     -25.637   1.302  28.829  0.00  0.00    +0.003 A 
ATOM      8  C   UNL A   1     -25.666   2.362  29.590  0.00  0.00    +0.037 A 
ATOM      9  C   UNL A   1     -24.587   2.653  30.576  0.00  0.00    +0.139 A 
ATOM     10  C   UNL A   1     -23.594   1.740  30.699  0.00  0.00    +0.037 A 
ATOM     11  C   UNL A   1     -23.423   0.644  29.952  0.00  0.00    +0.003 A 
ATOM     12  C   UNL A   1     -24.444   0.358  28.989  0.00  0.00    +0.000 A 
BRANCH   9  13
ATOM     13  O   UNL A   1     -24.694   3.746  31.397  0.00  0.00    -0.471 OA
BRANCH  13  14
ATOM     14  C   UNL A   1     -25.153   3.734  32.634  0.00  0.00    +0.232 C 
BRANCH  14  15
ATOM     15  C   UNL A   1     -26.335   4.585  32.727  0.00  0.00    +0.021 A 
ATOM     16  C   UNL A   1     -27.165   4.256  33.656  0.00  0.00    -0.001 A 
ATOM     17  C   UNL A   1     -28.443   4.892  33.773  0.00  0.00    +0.000 A 
ATOM     18  C   UNL A   1     -28.712   5.975  32.915  0.00  0.00    +0.007 A 
ATOM     19  C   UNL A   1     -27.789   6.309  31.951  0.00  0.00    +0.080 A 
ATOM     20  C   UNL A   1     -26.597   5.624  31.857  0.00  0.00    +0.006 A 
BRANCH  19  21
ATOM     21  C   UNL A   1     -28.015   7.415  30.998  0.00  0.00    +0.388 C 
ATOM     22  O   UNL A   1     -27.693   7.443  29.969  0.00  0.00    -0.241 OA
ATOM     23  O   UNL A   1     -28.328   8.593  31.645  0.00  0.00    -0.241 OA
ENDBRANCH  19  21
ENDBRANCH  14  15
ENDBRANCH  13  14
ENDBRANCH   9  13
ENDBRANCH   2   7
BRANCH   1  24
ATOM     24  C   UNL A   1     -28.589   0.592  28.946  0.00  0.00    +0.112 C 
BRANCH  24  26
ATOM     25  O   UNL A   1     -28.123  -1.335  28.487  0.00  0.00    -0.274 OA
ATOM     26  C   UNL A   1     -28.521  -0.436  29.078  0.00  0.00    +0.234 C 
ATOM     27  N   UNL A   1     -28.787  -0.887  30.487  0.00  0.00    -0.258 N 
BRANCH  27  28
ATOM     28  C   UNL A   1     -29.265  -0.069  31.558  0.00  0.00    +0.054 A 
ATOM     29  C   UNL A   1     -30.484   0.446  31.473  0.00  0.00    +0.015 A 
ATOM     30  C   UNL A   1     -30.805   1.469  32.376  0.00  0.00    +0.001 A 
ATOM     31  C   UNL A   1     -30.075   1.586  33.576  0.00  0.00    +0.000 A 
ATOM     32  C   UNL A   1     -28.840   0.942  33.666  0.00  0.00    +0.001 A 
ATOM     33  C   UNL A   1     -28.378   0.144  32.673  0.00  0.00    +0.015 A 
ENDBRANCH  27  28
BRANCH  27  34
ATOM     34  C   UNL A   1     -28.568  -2.326  30.914  0.00  0.00    +0.098 C 
ATOM     35  C   UNL A   1     -27.435  -2.759  30.605  0.00  0.00    +0.024 C 
ENDBRANCH  27  34
ENDBRANCH  24  26
ENDBRANCH   1  24
TORSDOF 9
