MODEL 4187
MODEL 1
REMARK VINA RESULT:    -5.038      0.000      0.000
REMARK INTER + INTRA:          -5.476
REMARK INTER:                  -5.333
REMARK INTRA:                  -0.143
REMARK UNBOUND:                -0.143
REMARK  Name = No_4187-gen_results/8p0m/2024-11-26-14-13-15/
REMARK  1 active torsions:
REMARK  status: ('A' for Active; 'I' for Inactive)
REMARK    1  A    between atoms: C_4  and  C_8
REMARK                            x       y       z     vdW  Elec       q    Type
REMARK                         _______ _______ _______ _____ _____    ______ ____
ROOT
ATOM      1  C   UNL A   1     -23.095  -1.390  29.119  0.00  0.00    +0.007 A 
ATOM      2  C   UNL A   1     -24.007  -1.661  28.666  0.00  0.00    +0.035 A 
ATOM      3  C   UNL A   1     -22.466  -0.147  28.646  0.00  0.00    +0.004 A 
ATOM      4  C   UNL A   1     -23.145   0.703  27.724  0.00  0.00    +0.071 A 
ATOM      5  C   UNL A   1     -24.932  -0.943  27.748  0.00  0.00    +0.007 A 
ATOM      6  C   UNL A   1     -24.380   0.211  27.279  0.00  0.00    +0.004 A 
ATOM      7 BR   UNL A   1     -24.659  -3.376  29.337  0.00  0.00    -0.049 Br
ENDROOT
BRANCH   4   8
ATOM      8  C   UNL A   1     -22.586   1.953  27.262  0.00  0.00    +0.419 C 
ATOM      9  F   UNL A   1     -21.642   2.276  27.829  0.00  0.00    -0.166 F 
ATOM     10  F   UNL A   1     -23.542   2.961  27.463  0.00  0.00    -0.166 F 
ATOM     11  F   UNL A   1     -22.395   1.998  25.931  0.00  0.00    -0.166 F 
ENDBRANCH   4   8
TORSDOF 1
ENDMDL
ENDMDL
