MODEL 4188
MODEL 1
REMARK VINA RESULT:    -6.931      0.000      0.000
REMARK INTER + INTRA:          -7.703
REMARK INTER:                  -7.336
REMARK INTRA:                  -0.368
REMARK UNBOUND:                -0.368
REMARK  Name = No_4188-gen_results/8p0m/2024-11-26-14-13-15/
REMARK  1 active torsions:
REMARK  status: ('A' for Active; 'I' for Inactive)
REMARK    1  A    between atoms: C_7  and  C_8
REMARK                            x       y       z     vdW  Elec       q    Type
REMARK                         _______ _______ _______ _____ _____    ______ ____
ROOT
ATOM      1  C   UNL A   1     -21.649   0.056  28.738  0.00  0.00    +0.030 A 
ATOM      2  C   UNL A   1     -22.322   0.870  28.150  0.00  0.00    +0.140 A 
ATOM      3  F   UNL A   1     -21.839   1.972  27.772  0.00  0.00    -0.204 F 
ATOM      4  C   UNL A   1     -23.673   0.660  27.628  0.00  0.00    +0.030 A 
ATOM      5  C   UNL A   1     -22.340  -1.120  29.283  0.00  0.00    +0.002 A 
ATOM      6  C   UNL A   1     -24.289  -0.525  28.033  0.00  0.00    +0.002 A 
ATOM      7  C   UNL A   1     -23.596  -1.399  28.832  0.00  0.00    +0.000 A 
ENDROOT
BRANCH   7   8
ATOM      8  C   UNL A   1     -24.261  -2.644  29.246  0.00  0.00    +0.000 A 
ATOM      9  C   UNL A   1     -24.000  -3.729  28.680  0.00  0.00    +0.000 A 
ATOM     10  C   UNL A   1     -24.669  -4.976  29.044  0.00  0.00    +0.000 A 
ATOM     11  C   UNL A   1     -25.713  -2.482  29.444  0.00  0.00    +0.000 A 
ATOM     12  C   UNL A   1     -26.455  -3.621  29.926  0.00  0.00    +0.000 A 
ATOM     13  C   UNL A   1     -25.949  -4.852  29.529  0.00  0.00    +0.000 A 
ENDBRANCH   7   8
TORSDOF 1
ENDMDL
ENDMDL
