REMARK  Name = No_4189-gen_results/8p0m/2024-11-26-14-13-15/
REMARK  2 active torsions:
REMARK  status: ('A' for Active; 'I' for Inactive)
REMARK    1  A    between atoms: C_1  and  C_2
REMARK    2  A    between atoms: C_5  and  C_10
REMARK                            x       y       z     vdW  Elec       q    Type
REMARK                         _______ _______ _______ _____ _____    ______ ____
ROOT
ATOM      1  C   UNL A   1     -27.064  -0.119  28.608  0.00  0.00    +0.072 A 
ATOM      2  C   UNL A   1     -27.001   0.691  27.491  0.00  0.00    +0.004 A 
ATOM      3  C   UNL A   1     -25.855   1.482  27.083  0.00  0.00    +0.007 A 
ATOM      4  C   UNL A   1     -24.690   1.453  27.881  0.00  0.00    +0.090 A 
ATOM      5  C   UNL A   1     -24.738   0.601  29.042  0.00  0.00    +0.064 A 
ATOM      6  C   UNL A   1     -25.823  -0.169  29.389  0.00  0.00    +0.015 A 
ATOM      7 CL   UNL A   1     -23.325   0.474  30.039  0.00  0.00    -0.082 Cl
ENDROOT
BRANCH   1   8
ATOM      8  C   UNL A   1     -28.016  -0.814  28.878  0.00  0.00    +0.419 C 
ATOM      9  F   UNL A   1     -29.002  -0.556  28.241  0.00  0.00    -0.166 F 
ATOM     10  F   UNL A   1     -28.356  -0.684  30.269  0.00  0.00    -0.166 F 
ATOM     11  F   UNL A   1     -27.708  -2.122  28.881  0.00  0.00    -0.166 F 
ENDBRANCH   1   8
BRANCH   4  12
ATOM     12  C   UNL A   1     -23.514   2.214  27.578  0.00  0.00    +0.389 C 
ATOM     13  O   UNL A   1     -22.403   1.994  28.141  0.00  0.00    -0.240 OA
ATOM     14  O   UNL A   1     -23.419   2.768  26.331  0.00  0.00    -0.240 OA
ENDBRANCH   4  12
TORSDOF 2
