MODEL 4190
MODEL 1
REMARK VINA RESULT:    -3.458      0.000      0.000
REMARK INTER + INTRA:          -3.458
REMARK INTER:                  -3.458
REMARK INTRA:                   0.000
REMARK UNBOUND:                 0.000
REMARK  Name = No_4190-gen_results/8p0m/2024-11-26-14-13-15/
REMARK  0 active torsions:
REMARK  status: ('A' for Active; 'I' for Inactive)
REMARK                            x       y       z     vdW  Elec       q    Type
REMARK                         _______ _______ _______ _____ _____    ______ ____
ROOT
ATOM      1  P   UNL A   1      -9.844  -9.979  17.941  0.00  0.00    +0.559 P 
ATOM      2  O   UNL A   1      -9.202 -10.833  18.327  0.00  0.00    -0.220 OA
ATOM      3  O   UNL A   1      -8.785  -8.915  17.400  0.00  0.00    -0.113 OA
ATOM      4  O   UNL A   1     -10.823 -10.305  16.854  0.00  0.00    -0.113 OA
ATOM      5  O   UNL A   1     -10.569  -9.037  18.982  0.00  0.00    -0.113 OA
ENDROOT
TORSDOF 0
ENDMDL
ENDMDL
