REMARK  Name = No_4191-gen_results/8p0m/2024-11-26-14-13-15/
REMARK  4 active torsions:
REMARK  status: ('A' for Active; 'I' for Inactive)
REMARK    1  A    between atoms: C_2  and  C_3
REMARK    2  A    between atoms: C_3  and  C_5
REMARK    3  A    between atoms: N_4  and  C_11
REMARK    4  A    between atoms: C_13  and  C_18
REMARK                            x       y       z     vdW  Elec       q    Type
REMARK                         _______ _______ _______ _____ _____    ______ ____
ROOT
ATOM      1  O   UNL A   1     -28.123  -1.335  28.487  0.00  0.00    -0.274 OA
ATOM      2  C   UNL A   1     -27.481  -0.404  28.709  0.00  0.00    +0.234 C 
ATOM      3  N   UNL A   1     -27.666   0.447  29.899  0.00  0.00    -0.257 N 
ATOM      4  C   UNL A   1     -28.989   0.287  30.469  0.00  0.00    +0.120 C 
ENDROOT
BRANCH   3   5
ATOM      5  C   UNL A   1     -27.081   1.675  30.104  0.00  0.00    +0.054 A 
ATOM      6  C   UNL A   1     -27.125   2.540  29.126  0.00  0.00    +0.021 A 
ATOM      7  C   UNL A   1     -26.107   3.387  29.028  0.00  0.00    +0.081 A 
ATOM      8  C   UNL A   1     -25.231   3.649  30.187  0.00  0.00    +0.007 A 
ATOM      9  C   UNL A   1     -25.280   2.749  31.227  0.00  0.00    +0.002 A 
ATOM     10  C   UNL A   1     -26.199   1.655  31.184  0.00  0.00    +0.015 A 
BRANCH   7  11
ATOM     11  C   UNL A   1     -25.977   4.511  28.018  0.00  0.00    +0.388 C 
ATOM     12  O   UNL A   1     -25.008   4.294  27.239  0.00  0.00    -0.241 OA
ATOM     13  O   UNL A   1     -26.790   5.325  27.822  0.00  0.00    -0.241 OA
ENDBRANCH   7  11
ENDBRANCH   3   5
BRANCH   2  14
ATOM     14  C   UNL A   1     -26.380  -0.087  27.939  0.00  0.00    +0.112 C 
BRANCH  14  15
ATOM     15  C   UNL A   1     -25.177  -0.439  28.395  0.00  0.00    -0.013 A 
ATOM     16  C   UNL A   1     -23.928  -0.247  27.668  0.00  0.00    -0.004 A 
ATOM     17  C   UNL A   1     -22.698  -0.405  28.436  0.00  0.00    -0.000 A 
ATOM     18  C   UNL A   1     -22.780  -1.146  29.671  0.00  0.00    -0.000 A 
ATOM     19  C   UNL A   1     -23.969  -1.463  30.250  0.00  0.00    -0.000 A 
ATOM     20  C   UNL A   1     -25.152  -1.125  29.655  0.00  0.00    -0.004 A 
ENDBRANCH  14  15
ENDBRANCH   2  14
TORSDOF 4
