MODEL 4191
MODEL 1
REMARK VINA RESULT:    -7.588      0.000      0.000
REMARK INTER + INTRA:          -9.490
REMARK INTER:                  -9.362
REMARK INTRA:                  -0.128
REMARK UNBOUND:                -0.128
REMARK  Name = No_4191-gen_results/8p0m/2024-11-26-14-13-15/
REMARK  4 active torsions:
REMARK  status: ('A' for Active; 'I' for Inactive)
REMARK    1  A    between atoms: C_2  and  C_3
REMARK    2  A    between atoms: C_3  and  C_5
REMARK    3  A    between atoms: N_4  and  C_11
REMARK    4  A    between atoms: C_13  and  C_18
REMARK                            x       y       z     vdW  Elec       q    Type
REMARK                         _______ _______ _______ _____ _____    ______ ____
ROOT
ATOM      1  O   UNL A   1     -23.278  -1.198  31.143  0.00  0.00    -0.274 OA
ATOM      2  C   UNL A   1     -23.378  -0.823  30.058  0.00  0.00    +0.234 C 
ATOM      3  N   UNL A   1     -23.313   0.600  29.679  0.00  0.00    -0.257 N 
ATOM      4  C   UNL A   1     -23.594   1.466  30.807  0.00  0.00    +0.120 C 
ENDROOT
BRANCH   3   5
ATOM      5  C   UNL A   1     -23.637   1.116  28.446  0.00  0.00    +0.054 A 
ATOM      6  C   UNL A   1     -24.726   0.680  27.872  0.00  0.00    +0.021 A 
ATOM      7  C   UNL A   1     -24.729   0.637  26.544  0.00  0.00    +0.081 A 
ATOM      8  C   UNL A   1     -23.773   1.446  25.763  0.00  0.00    +0.007 A 
ATOM      9  C   UNL A   1     -22.681   1.949  26.433  0.00  0.00    +0.002 A 
ATOM     10  C   UNL A   1     -22.544   1.735  27.840  0.00  0.00    +0.015 A 
BRANCH   7  11
ATOM     11  C   UNL A   1     -25.898   0.231  25.668  0.00  0.00    +0.388 C 
ATOM     12  O   UNL A   1     -26.861   1.033  25.816  0.00  0.00    -0.241 OA
ATOM     13  O   UNL A   1     -25.839  -0.550  24.803  0.00  0.00    -0.241 OA
ENDBRANCH   7  11
ENDBRANCH   3   5
BRANCH   2  14
ATOM     14  C   UNL A   1     -23.429  -1.701  28.994  0.00  0.00    +0.112 C 
BRANCH  14  15
ATOM     15  C   UNL A   1     -24.251  -2.747  29.086  0.00  0.00    -0.013 A 
ATOM     16  C   UNL A   1     -23.941  -4.088  28.606  0.00  0.00    -0.004 A 
ATOM     17  C   UNL A   1     -24.819  -5.161  29.061  0.00  0.00    -0.000 A 
ATOM     18  C   UNL A   1     -26.124  -4.785  29.550  0.00  0.00    -0.000 A 
ATOM     19  C   UNL A   1     -26.449  -3.496  29.834  0.00  0.00    -0.000 A 
ATOM     20  C   UNL A   1     -25.555  -2.483  29.625  0.00  0.00    -0.004 A 
ENDBRANCH  14  15
ENDBRANCH   2  14
TORSDOF 4
ENDMDL
ENDMDL
