REMARK  Name = No_4192-gen_results/8p0m/2024-11-26-14-13-15/
REMARK  8 active torsions:
REMARK  status: ('A' for Active; 'I' for Inactive)
REMARK    1  A    between atoms: C_1  and  C_2
REMARK    2  A    between atoms: C_7  and  O_12
REMARK    3  A    between atoms: O_12  and  C_13
REMARK    4  A    between atoms: C_13  and  C_14
REMARK    5  A    between atoms: C_14  and  C_16
REMARK    6  A    between atoms: C_16  and  C_17
REMARK    7  A    between atoms: C_18  and  C_19
REMARK    8  A    between atoms: C_19  and  C_20
REMARK                            x       y       z     vdW  Elec       q    Type
REMARK                         _______ _______ _______ _____ _____    ______ ____
ROOT
ATOM      1  C   UNL A   1     -28.016  -0.814  28.878  0.00  0.00    +0.078 A 
ATOM      2  C   UNL A   1     -28.196   0.348  28.055  0.00  0.00    +0.016 A 
ATOM      3  C   UNL A   1     -27.442   0.510  26.795  0.00  0.00    +0.068 A 
ATOM      4  C   UNL A   1     -26.169  -0.079  26.679  0.00  0.00    +0.071 A 
ATOM      5  C   UNL A   1     -25.731  -0.961  27.688  0.00  0.00    +0.049 A 
ATOM      6  C   UNL A   1     -26.504  -1.222  28.758  0.00  0.00    +0.141 A 
ATOM      7 CL   UNL A   1     -25.134   0.240  25.375  0.00  0.00    -0.081 Cl
ATOM      8 CL   UNL A   1     -27.901   1.602  25.557  0.00  0.00    -0.081 Cl
ENDROOT
BRANCH   1   9
ATOM      9  C   UNL A   1     -28.469  -0.785  29.829  0.00  0.00    +0.344 C 
ATOM     10  F   UNL A   1     -29.673  -0.497  29.908  0.00  0.00    -0.193 F 
ATOM     11  F   UNL A   1     -28.188  -1.713  30.843  0.00  0.00    -0.193 F 
ENDBRANCH   1   9
BRANCH   6  12
ATOM     12  O   UNL A   1     -25.989  -2.179  29.605  0.00  0.00    -0.476 OA
BRANCH  12  13
ATOM     13  C   UNL A   1     -24.591  -2.206  29.739  0.00  0.00    +0.206 C 
BRANCH  13  14
ATOM     14  C   UNL A   1     -23.942  -1.291  30.606  0.00  0.00    +0.048 C 
ATOM     15  C   UNL A   1     -24.410  -0.989  31.809  0.00  0.00    +0.004 C 
BRANCH  14  16
ATOM     16  C   UNL A   1     -22.817  -0.561  30.026  0.00  0.00    +0.029 C 
BRANCH  16  17
ATOM     17  C   UNL A   1     -21.914  -0.925  29.256  0.00  0.00    -0.029 C 
ATOM     18  C   UNL A   1     -20.928  -0.095  28.681  0.00  0.00    -0.015 C 
BRANCH  18  19
ATOM     19  C   UNL A   1     -21.085   0.943  27.749  0.00  0.00    +0.131 C 
BRANCH  19  20
ATOM     20  C   UNL A   1     -22.318   1.774  27.769  0.00  0.00    +0.078 C 
ATOM     21  N   UNL A   1     -23.174   2.219  27.178  0.00  0.00    -0.196 NA
ENDBRANCH  19  20
ENDBRANCH  18  19
ENDBRANCH  16  17
ENDBRANCH  14  16
ENDBRANCH  13  14
ENDBRANCH  12  13
ENDBRANCH   6  12
TORSDOF 8
