MODEL 4192
MODEL 1
REMARK VINA RESULT:    -6.179      0.000      0.000
REMARK INTER + INTRA:          -9.996
REMARK INTER:                  -9.068
REMARK INTRA:                  -0.928
REMARK UNBOUND:                -0.928
REMARK  Name = No_4192-gen_results/8p0m/2024-11-26-14-13-15/
REMARK  8 active torsions:
REMARK  status: ('A' for Active; 'I' for Inactive)
REMARK    1  A    between atoms: C_1  and  C_2
REMARK    2  A    between atoms: C_7  and  O_12
REMARK    3  A    between atoms: O_12  and  C_13
REMARK    4  A    between atoms: C_13  and  C_14
REMARK    5  A    between atoms: C_14  and  C_16
REMARK    6  A    between atoms: C_16  and  C_17
REMARK    7  A    between atoms: C_18  and  C_19
REMARK    8  A    between atoms: C_19  and  C_20
REMARK                            x       y       z     vdW  Elec       q    Type
REMARK                         _______ _______ _______ _____ _____    ______ ____
ROOT
ATOM      1  C   UNL A   1     -25.215  -4.114  29.132  0.00  0.00    +0.078 A 
ATOM      2  C   UNL A   1     -26.416  -4.607  29.745  0.00  0.00    +0.016 A 
ATOM      3  C   UNL A   1     -27.459  -3.679  30.226  0.00  0.00    +0.068 A 
ATOM      4  C   UNL A   1     -27.084  -2.393  30.659  0.00  0.00    +0.071 A 
ATOM      5  C   UNL A   1     -25.759  -1.961  30.446  0.00  0.00    +0.049 A 
ATOM      6  C   UNL A   1     -24.857  -2.769  29.859  0.00  0.00    +0.141 A 
ATOM      7 CL   UNL A   1     -28.164  -1.345  31.439  0.00  0.00    -0.081 Cl
ATOM      8 CL   UNL A   1     -29.072  -4.160  30.547  0.00  0.00    -0.081 Cl
ENDROOT
BRANCH   1   9
ATOM      9  C   UNL A   1     -24.457  -4.825  28.958  0.00  0.00    +0.344 C 
ATOM     10  F   UNL A   1     -24.653  -6.002  29.295  0.00  0.00    -0.193 F 
ATOM     11  F   UNL A   1     -23.672  -4.842  27.795  0.00  0.00    -0.193 F 
ENDBRANCH   1   9
BRANCH   6  12
ATOM     12  O   UNL A   1     -23.637  -2.174  29.625  0.00  0.00    -0.476 OA
BRANCH  12  13
ATOM     13  C   UNL A   1     -23.657  -0.974  28.896  0.00  0.00    +0.206 C 
BRANCH  13  14
ATOM     14  C   UNL A   1     -23.138   0.215  29.468  0.00  0.00    +0.048 C 
ATOM     15  C   UNL A   1     -23.503   0.652  30.665  0.00  0.00    +0.004 C 
BRANCH  14  16
ATOM     16  C   UNL A   1     -22.306   1.030  28.586  0.00  0.00    +0.029 C 
BRANCH  16  17
ATOM     17  C   UNL A   1     -22.278   1.131  27.349  0.00  0.00    -0.029 C 
ATOM     18  C   UNL A   1     -23.185   1.865  26.555  0.00  0.00    -0.015 C 
BRANCH  18  19
ATOM     19  C   UNL A   1     -24.555   1.641  26.346  0.00  0.00    +0.131 C 
BRANCH  19  20
ATOM     20  C   UNL A   1     -25.006   0.390  25.680  0.00  0.00    +0.078 C 
ATOM     21  N   UNL A   1     -25.386  -0.099  24.733  0.00  0.00    -0.196 NA
ENDBRANCH  19  20
ENDBRANCH  18  19
ENDBRANCH  16  17
ENDBRANCH  14  16
ENDBRANCH  13  14
ENDBRANCH  12  13
ENDBRANCH   6  12
TORSDOF 8
ENDMDL
ENDMDL
