REMARK  Name = No_4193-gen_results/8p0m/2024-11-26-14-13-15/
REMARK  1 active torsions:
REMARK  status: ('A' for Active; 'I' for Inactive)
REMARK    1  A    between atoms: C_4  and  C_7
REMARK                            x       y       z     vdW  Elec       q    Type
REMARK                         _______ _______ _______ _____ _____    ______ ____
ROOT
ATOM      1  C   UNL A   1     -28.016  -0.814  28.878  0.00  0.00    -0.000 A 
ATOM      2  C   UNL A   1     -28.469  -0.785  29.829  0.00  0.00    -0.000 A 
ATOM      3  C   UNL A   1     -26.546  -0.876  28.850  0.00  0.00    -0.000 A 
ATOM      4  C   UNL A   1     -25.804  -1.032  30.057  0.00  0.00    -0.003 A 
ATOM      5  C   UNL A   1     -26.537  -1.039  31.217  0.00  0.00    -0.000 A 
ATOM      6  C   UNL A   1     -27.884  -0.953  31.186  0.00  0.00    -0.000 A 
ENDROOT
BRANCH   4   7
ATOM      7  C   UNL A   1     -24.366  -1.113  30.048  0.00  0.00    -0.008 C 
ATOM      8  C   UNL A   1     -23.625  -0.943  29.023  0.00  0.00    -0.012 C 
ATOM      9  C   UNL A   1     -22.163  -0.829  29.096  0.00  0.00    +0.095 C 
ATOM     10  C   UNL A   1     -23.619  -0.238  31.031  0.00  0.00    +0.115 C 
ATOM     11  N   UNL A   1     -22.304  -0.186  30.873  0.00  0.00    -0.210 NA
ATOM     12  C   UNL A   1     -21.559  -0.272  29.717  0.00  0.00    +0.024 C 
ENDBRANCH   4   7
TORSDOF 1
