MODEL 4193
MODEL 1
REMARK VINA RESULT:    -6.201      0.000      0.000
REMARK INTER + INTRA:          -6.767
REMARK INTER:                  -6.564
REMARK INTRA:                  -0.204
REMARK UNBOUND:                -0.204
REMARK  Name = No_4193-gen_results/8p0m/2024-11-26-14-13-15/
REMARK  1 active torsions:
REMARK  status: ('A' for Active; 'I' for Inactive)
REMARK    1  A    between atoms: C_4  and  C_7
REMARK                            x       y       z     vdW  Elec       q    Type
REMARK                         _______ _______ _______ _____ _____    ______ ____
ROOT
ATOM      1  C   UNL A   1     -24.573  -5.182  28.912  0.00  0.00    -0.000 A 
ATOM      2  C   UNL A   1     -25.571  -5.161  29.252  0.00  0.00    -0.000 A 
ATOM      3  C   UNL A   1     -23.890  -3.884  28.792  0.00  0.00    -0.000 A 
ATOM      4  C   UNL A   1     -24.517  -2.690  29.252  0.00  0.00    -0.003 A 
ATOM      5  C   UNL A   1     -25.797  -2.827  29.728  0.00  0.00    -0.000 A 
ATOM      6  C   UNL A   1     -26.386  -4.040  29.792  0.00  0.00    -0.000 A 
ENDROOT
BRANCH   4   7
ATOM      7  C   UNL A   1     -23.857  -1.413  29.160  0.00  0.00    -0.008 C 
ATOM      8  C   UNL A   1     -22.594  -1.238  29.120  0.00  0.00    -0.012 C 
ATOM      9  C   UNL A   1     -21.969   0.056  28.818  0.00  0.00    +0.095 C 
ATOM     10  C   UNL A   1     -24.260  -0.509  28.015  0.00  0.00    +0.115 C 
ATOM     11  N   UNL A   1     -23.508   0.569  27.839  0.00  0.00    -0.210 NA
ATOM     12  C   UNL A   1     -22.162   0.742  28.075  0.00  0.00    +0.024 C 
ENDBRANCH   4   7
TORSDOF 1
ENDMDL
ENDMDL
