MODEL 4194
MODEL 1
REMARK VINA RESULT:    -4.046      0.000      0.000
REMARK INTER + INTRA:          -4.686
REMARK INTER:                  -4.519
REMARK INTRA:                  -0.167
REMARK UNBOUND:                -0.167
REMARK  Name = No_4194-gen_results/8p0m/2024-11-26-14-13-15/
REMARK  2 active torsions:
REMARK  status: ('A' for Active; 'I' for Inactive)
REMARK    1  A    between atoms: C_2  and  C_3
REMARK    2  A    between atoms: C_3  and  C_4
REMARK                            x       y       z     vdW  Elec       q    Type
REMARK                         _______ _______ _______ _____ _____    ______ ____
ROOT
ATOM      1  C   UNL A   1     -24.417  -3.113  28.602  0.00  0.00    +0.053 C 
ENDROOT
BRANCH   1   3
ATOM      2  C   UNL A   1     -24.981  -5.230  29.140  0.00  0.00    -0.030 C 
ATOM      3  C   UNL A   1     -24.214  -4.393  28.722  0.00  0.00    -0.026 C 
ATOM      4  C   UNL A   1     -26.218  -4.814  29.668  0.00  0.00    +0.030 C 
ENDBRANCH   1   3
BRANCH   1   5
ATOM      5  C   UNL A   1     -23.504  -2.226  29.250  0.00  0.00    -0.009 C 
ATOM      6  C   UNL A   1     -23.913  -1.731  30.443  0.00  0.00    +0.064 C 
ATOM      7 CL   UNL A   1     -22.892  -0.720  31.332  0.00  0.00    -0.082 Cl
ENDBRANCH   1   5
TORSDOF 2
ENDMDL
ENDMDL
