REMARK  Name = No_4194-gen_results/8p0m/2024-11-26-14-13-15/
REMARK  2 active torsions:
REMARK  status: ('A' for Active; 'I' for Inactive)
REMARK    1  A    between atoms: C_2  and  C_3
REMARK    2  A    between atoms: C_3  and  C_4
REMARK                            x       y       z     vdW  Elec       q    Type
REMARK                         _______ _______ _______ _____ _____    ______ ____
ROOT
ATOM      1  C   UNL A   1     -26.876   1.133  28.913  0.00  0.00    +0.053 C 
ENDROOT
BRANCH   1   3
ATOM      2  C   UNL A   1     -28.016  -0.814  28.878  0.00  0.00    -0.030 C 
ATOM      3  C   UNL A   1     -27.064  -0.119  28.608  0.00  0.00    -0.026 C 
ATOM      4  C   UNL A   1     -29.027  -0.289  29.705  0.00  0.00    +0.030 C 
ENDBRANCH   1   3
BRANCH   1   5
ATOM      5  C   UNL A   1     -27.901   1.807  29.644  0.00  0.00    -0.009 C 
ATOM      6  C   UNL A   1     -28.945   1.039  30.036  0.00  0.00    +0.064 C 
ATOM      7 CL   UNL A   1     -30.189   1.712  30.960  0.00  0.00    -0.082 Cl
ENDBRANCH   1   5
TORSDOF 2
