MODEL 4196
MODEL 1
REMARK VINA RESULT:    -6.326      0.000      0.000
REMARK INTER + INTRA:          -6.772
REMARK INTER:                  -6.695
REMARK INTRA:                  -0.077
REMARK UNBOUND:                -0.077
REMARK  Name = No_4196-gen_results/8p0m/2024-11-26-14-13-15/
REMARK  1 active torsions:
REMARK  status: ('A' for Active; 'I' for Inactive)
REMARK    1  A    between atoms: C_9  and  C_11
REMARK                            x       y       z     vdW  Elec       q    Type
REMARK                         _______ _______ _______ _____ _____    ______ ____
ROOT
ATOM      1  C   UNL A   1     -30.718  -9.876  29.591  0.00  0.00    +0.000 A 
ATOM      2  C   UNL A   1     -30.628 -10.196  28.592  0.00  0.00    +0.000 A 
ATOM      3  C   UNL A   1     -29.975 -10.565  30.575  0.00  0.00    +0.000 A 
ATOM      4  C   UNL A   1     -29.904 -10.174  32.007  0.00  0.00    +0.000 A 
ATOM      5  C   UNL A   1     -29.845 -11.290  27.989  0.00  0.00    +0.000 A 
ATOM      6  C   UNL A   1     -29.086 -12.018  28.904  0.00  0.00    +0.000 A 
ATOM      7  C   UNL A   1     -29.091 -11.650  30.211  0.00  0.00    +0.000 A 
ATOM      8  C   UNL A   1     -29.155 -10.308  32.847  0.00  0.00    +0.007 A 
ATOM      9  C   UNL A   1     -28.026 -11.285  32.476  0.00  0.00    +0.080 A 
ATOM     10  C   UNL A   1     -28.030 -11.920  31.211  0.00  0.00    +0.007 A 
ENDROOT
BRANCH   9  11
ATOM     11  C   UNL A   1     -27.037 -11.685  33.553  0.00  0.00    +0.388 C 
ATOM     12  O   UNL A   1     -26.829 -12.887  33.843  0.00  0.00    -0.241 OA
ATOM     13  O   UNL A   1     -27.112 -11.031  34.645  0.00  0.00    -0.241 OA
ENDBRANCH   9  11
TORSDOF 1
ENDMDL
ENDMDL
