MODEL 4197
MODEL 1
REMARK VINA RESULT:    -4.895      0.000      0.000
REMARK INTER + INTRA:          -5.313
REMARK INTER:                  -5.182
REMARK INTRA:                  -0.132
REMARK UNBOUND:                -0.132
REMARK  Name = No_4197-gen_results/8p0m/2024-11-26-14-13-15/
REMARK  1 active torsions:
REMARK  status: ('A' for Active; 'I' for Inactive)
REMARK    1  A    between atoms: C_4  and  C_8
REMARK                            x       y       z     vdW  Elec       q    Type
REMARK                         _______ _______ _______ _____ _____    ______ ____
ROOT
ATOM      1  C   UNL A   1     -24.953  -3.835  29.158  0.00  0.00    +0.011 A 
ATOM      2  C   UNL A   1     -25.767  -3.460  29.713  0.00  0.00    +0.058 A 
ATOM      3  C   UNL A   1     -23.835  -2.909  28.921  0.00  0.00    +0.005 A 
ATOM      4  C   UNL A   1     -23.813  -1.625  29.540  0.00  0.00    +0.071 A 
ATOM      5  C   UNL A   1     -25.967  -2.213  30.500  0.00  0.00    +0.011 A 
ATOM      6  C   UNL A   1     -24.953  -1.324  30.297  0.00  0.00    +0.005 A 
ATOM      7 CL   UNL A   1     -27.149  -4.593  30.027  0.00  0.00    -0.082 Cl
ENDROOT
BRANCH   4   8
ATOM      8  C   UNL A   1     -22.726  -0.705  29.348  0.00  0.00    +0.419 C 
ATOM      9  F   UNL A   1     -21.659  -1.351  28.917  0.00  0.00    -0.166 F 
ATOM     10  F   UNL A   1     -22.280  -0.076  30.459  0.00  0.00    -0.166 F 
ATOM     11  F   UNL A   1     -22.980   0.242  28.382  0.00  0.00    -0.166 F 
ENDBRANCH   4   8
TORSDOF 1
ENDMDL
ENDMDL
