REMARK  Name = No_4198-gen_results/8p0m/2024-11-26-14-13-15/
REMARK  2 active torsions:
REMARK  status: ('A' for Active; 'I' for Inactive)
REMARK    1  A    between atoms: C_2  and  O_7
REMARK    2  A    between atoms: O_7  and  C_8
REMARK                            x       y       z     vdW  Elec       q    Type
REMARK                         _______ _______ _______ _____ _____    ______ ____
ROOT
ATOM      1  O   UNL A   1     -29.939  -0.819  29.836  0.00  0.00    -0.454 OA
ENDROOT
BRANCH   1   3
ATOM      2  C   UNL A   1     -28.016  -0.814  28.878  0.00  0.00    +0.037 A 
ATOM      3  C   UNL A   1     -28.469  -0.785  29.829  0.00  0.00    +0.145 A 
ATOM      4  C   UNL A   1     -26.504  -0.778  28.877  0.00  0.00    +0.003 A 
ATOM      5  C   UNL A   1     -25.810  -0.853  30.103  0.00  0.00    +0.000 A 
ATOM      6  C   UNL A   1     -27.991  -0.892  31.226  0.00  0.00    +0.037 A 
ATOM      7  C   UNL A   1     -26.604  -0.868  31.265  0.00  0.00    +0.003 A 
ENDBRANCH   1   3
BRANCH   1   8
ATOM      8  C   UNL A   1     -30.536  -0.112  28.945  0.00  0.00    +0.145 A 
ATOM      9  C   UNL A   1     -31.485   0.796  29.294  0.00  0.00    +0.037 A 
ATOM     10  C   UNL A   1     -32.162   1.544  28.319  0.00  0.00    +0.003 A 
ATOM     11  C   UNL A   1     -31.878   1.263  26.961  0.00  0.00    +0.000 A 
ATOM     12  C   UNL A   1     -30.963   0.332  26.596  0.00  0.00    +0.003 A 
ATOM     13  C   UNL A   1     -30.273  -0.374  27.566  0.00  0.00    +0.037 A 
ENDBRANCH   1   8
TORSDOF 2
