MODEL 4198
MODEL 1
REMARK VINA RESULT:    -6.081      0.000      0.000
REMARK INTER + INTRA:          -6.940
REMARK INTER:                  -6.792
REMARK INTRA:                  -0.148
REMARK UNBOUND:                -0.148
REMARK  Name = No_4198-gen_results/8p0m/2024-11-26-14-13-15/
REMARK  2 active torsions:
REMARK  status: ('A' for Active; 'I' for Inactive)
REMARK    1  A    between atoms: C_2  and  O_7
REMARK    2  A    between atoms: O_7  and  C_8
REMARK                            x       y       z     vdW  Elec       q    Type
REMARK                         _______ _______ _______ _____ _____    ______ ____
ROOT
ATOM      1  O   UNL A   1     -24.665  -1.237  29.542  0.00  0.00    -0.454 OA
ENDROOT
BRANCH   1   3
ATOM      2  C   UNL A   1     -23.912  -3.101  28.786  0.00  0.00    +0.037 A 
ATOM      3  C   UNL A   1     -24.716  -2.690  29.329  0.00  0.00    +0.145 A 
ATOM      4  C   UNL A   1     -23.970  -4.597  28.570  0.00  0.00    +0.003 A 
ATOM      5  C   UNL A   1     -25.123  -5.308  28.965  0.00  0.00    +0.000 A 
ATOM      6  C   UNL A   1     -26.025  -3.189  29.810  0.00  0.00    +0.037 A 
ATOM      7  C   UNL A   1     -26.117  -4.561  29.623  0.00  0.00    +0.003 A 
ENDBRANCH   1   3
BRANCH   1   8
ATOM      8  C   UNL A   1     -24.356  -0.516  28.524  0.00  0.00    +0.145 A 
ATOM      9  C   UNL A   1     -23.256   0.282  28.542  0.00  0.00    +0.037 A 
ATOM     10  C   UNL A   1     -22.937   1.096  27.444  0.00  0.00    +0.003 A 
ATOM     11  C   UNL A   1     -23.841   1.115  26.355  0.00  0.00    +0.000 A 
ATOM     12  C   UNL A   1     -24.963   0.355  26.340  0.00  0.00    +0.003 A 
ATOM     13  C   UNL A   1     -25.250  -0.473  27.411  0.00  0.00    +0.037 A 
ENDBRANCH   1   8
TORSDOF 2
ENDMDL
ENDMDL
