MODEL 419
MODEL 1
REMARK VINA RESULT:    -5.275      0.000      0.000
REMARK INTER + INTRA:          -6.753
REMARK INTER:                  -6.508
REMARK INTRA:                  -0.245
REMARK UNBOUND:                -0.245
REMARK  Name = No_419-gen_results/8p0m/2024-11-26-14-13-15/
REMARK  4 active torsions:
REMARK  status: ('A' for Active; 'I' for Inactive)
REMARK    1  A    between atoms: C_1  and  C_2
REMARK    2  A    between atoms: C_1  and  N_8
REMARK    3  A    between atoms: C_5  and  C_10
REMARK    4  A    between atoms: N_8  and  C_9
REMARK                            x       y       z     vdW  Elec       q    Type
REMARK                         _______ _______ _______ _____ _____    ______ ____
ROOT
ATOM      1  C   UNL A   1     -29.782 -10.658  30.307  0.00  0.00    -0.001 A 
ATOM      2  C   UNL A   1     -28.825 -11.616  30.210  0.00  0.00    -0.002 A 
ATOM      3  C   UNL A   1     -27.929 -12.025  31.315  0.00  0.00    +0.005 A 
ATOM      4  C   UNL A   1     -28.082 -11.337  32.563  0.00  0.00    +0.059 A 
ATOM      5  C   UNL A   1     -29.039 -10.298  32.602  0.00  0.00    +0.005 A 
ATOM      6  C   UNL A   1     -29.836  -9.973  31.535  0.00  0.00    -0.002 A 
ENDROOT
BRANCH   4   7
ATOM      7  C   UNL A   1     -27.246 -11.611  33.700  0.00  0.00    +0.297 C 
ATOM      8  N   UNL A   1     -27.044 -10.827  34.698  0.00  0.00    -0.102 NA
ATOM      9  O   UNL A   1     -26.806 -12.832  33.799  0.00  0.00    -0.264 OA
ENDBRANCH   4   7
BRANCH   1  10
ATOM     10  C   UNL A   1     -30.506 -10.332  29.396  0.00  0.00    +0.139 C 
BRANCH  10  11
ATOM     11  N   UNL A   1     -30.721 -11.130  28.429  0.00  0.00    -0.232 NA
BRANCH  11  12
ATOM     12  C   UNL A   1     -30.452 -10.756  27.108  0.00  0.00    +0.081 C 
ATOM     13  C   UNL A   1     -29.653 -11.529  26.276  0.00  0.00    +0.019 C 
ENDBRANCH  11  12
ENDBRANCH  10  11
ENDBRANCH   1  10
TORSDOF 4
ENDMDL
ENDMDL
