MODEL 41
MODEL 1
REMARK VINA RESULT:    -8.732      0.000      0.000
REMARK INTER + INTRA:         -12.725
REMARK INTER:                 -11.285
REMARK INTRA:                  -1.440
REMARK UNBOUND:                -1.440
REMARK  Name = No_41-gen_results/8p0m/2024-11-26-14-13-15/
REMARK  5 active torsions:
REMARK  status: ('A' for Active; 'I' for Inactive)
REMARK    1  A    between atoms: C_3  and  C_16
REMARK    2  A    between atoms: C_7  and  C_9
REMARK    3  A    between atoms: C_14  and  C_20
REMARK    4  A    between atoms: C_20  and  C_21
REMARK    5  A    between atoms: C_25  and  C_30
REMARK                            x       y       z     vdW  Elec       q    Type
REMARK                         _______ _______ _______ _____ _____    ______ ____
ROOT
ATOM      1  C   UNL A   1     -10.513  -0.929  37.813  0.00  0.00    -0.016 C 
ATOM      2  C   UNL A   1     -11.289  -1.817  37.641  0.00  0.00    -0.004 C 
ATOM      3  C   UNL A   1     -11.863  -2.600  37.964  0.00  0.00    -0.000 C 
ATOM      4  C   UNL A   1     -12.439  -2.991  39.088  0.00  0.00    -0.001 C 
ATOM      5  C   UNL A   1     -12.270  -2.066  40.147  0.00  0.00    -0.008 C 
ATOM      6  C   UNL A   1     -11.299  -1.062  40.318  0.00  0.00    -0.032 C 
ATOM      7  C   UNL A   1     -10.577  -0.345  39.224  0.00  0.00    +0.049 C 
ENDROOT
BRANCH   1  14
ATOM      8  F   UNL A   1     -12.125   1.155  36.822  0.00  0.00    -0.204 F 
ATOM      9  C   UNL A   1     -11.025   1.017  36.274  0.00  0.00    +0.144 A 
ATOM     10  C   UNL A   1     -10.627   1.786  35.443  0.00  0.00    +0.083 A 
ATOM     11  C   UNL A   1      -9.340   1.797  34.755  0.00  0.00    +0.018 A 
ATOM     12  C   UNL A   1      -8.459   0.710  35.183  0.00  0.00    +0.058 A 
ATOM     13  C   UNL A   1      -8.928  -0.131  36.184  0.00  0.00    +0.013 A 
ATOM     14  C   UNL A   1     -10.148  -0.017  36.740  0.00  0.00    +0.025 A 
ATOM     15 CL   UNL A   1      -6.950   0.555  34.456  0.00  0.00    -0.082 Cl
BRANCH  10  16
ATOM     16  C   UNL A   1     -11.453   2.964  34.852  0.00  0.00    +0.267 C 
ATOM     17  O   UNL A   1     -11.137   4.114  35.138  0.00  0.00    -0.268 OA
ATOM     18  N   UNL A   1     -12.479   2.725  34.087  0.00  0.00    -0.200 NA
ATOM     19  C   UNL A   1     -12.840   1.458  33.551  0.00  0.00    +0.139 C 
ENDBRANCH  10  16
ENDBRANCH   1  14
BRANCH   6  20
ATOM     20  C   UNL A   1     -11.114  -0.403  41.572  0.00  0.00    +0.095 C 
ATOM     21  C   UNL A   1     -11.768   0.957  41.755  0.00  0.00    +0.014 C 
BRANCH  20  22
ATOM     22  C   UNL A   1      -9.876  -0.721  42.136  0.00  0.00    +0.229 C 
ATOM     23  N   UNL A   1      -9.143  -1.559  41.883  0.00  0.00    -0.279 N 
ATOM     24  C   UNL A   1      -8.048  -1.804  41.775  0.00  0.00    +0.094 C 
ATOM     25  C   UNL A   1      -7.198  -2.539  42.084  0.00  0.00    +0.026 C 
ATOM     26  C   UNL A   1      -7.703  -3.725  42.811  0.00  0.00    +0.026 C 
ATOM     27  C   UNL A   1      -9.032  -4.052  42.644  0.00  0.00    +0.026 C 
ATOM     28  C   UNL A   1      -9.813  -3.011  42.408  0.00  0.00    +0.094 C 
ATOM     29  O   UNL A   1      -9.431   0.316  42.873  0.00  0.00    -0.275 OA
BRANCH  26  30
ATOM     30  C   UNL A   1      -6.742  -4.803  43.257  0.00  0.00    -0.022 A 
ATOM     31  C   UNL A   1      -6.098  -4.735  44.325  0.00  0.00    -0.004 A 
ATOM     32  C   UNL A   1      -4.899  -5.546  44.569  0.00  0.00    -0.000 A 
ATOM     33  C   UNL A   1      -4.653  -6.554  43.612  0.00  0.00    -0.000 A 
ATOM     34  C   UNL A   1      -6.278  -5.678  42.215  0.00  0.00    -0.004 A 
ATOM     35  C   UNL A   1      -5.260  -6.547  42.402  0.00  0.00    -0.000 A 
ENDBRANCH  26  30
ENDBRANCH  20  22
ENDBRANCH   6  20
TORSDOF 5
ENDMDL
ENDMDL
