REMARK  Name = No_42-gen_results/8p0m/2024-11-26-14-13-15/
REMARK  8 active torsions:
REMARK  status: ('A' for Active; 'I' for Inactive)
REMARK    1  A    between atoms: C_2  and  C_3
REMARK    2  A    between atoms: C_3  and  N_5
REMARK    3  A    between atoms: C_8  and  C_16
REMARK    4  A    between atoms: C_11  and  C_29
REMARK    5  A    between atoms: C_16  and  C_18
REMARK    6  A    between atoms: C_19  and  C_20
REMARK    7  A    between atoms: C_22  and  C_26
REMARK    8  A    between atoms: N_31  and  C_32
REMARK                            x       y       z     vdW  Elec       q    Type
REMARK                         _______ _______ _______ _____ _____    ______ ____
ROOT
ATOM      1  N   UNL A   1     -25.233  -0.588  28.250  0.00  0.00    -0.320 N 
ATOM      2  C   UNL A   1     -24.898  -1.692  28.730  0.00  0.00    +0.076 A 
ATOM      3  C   UNL A   1     -23.531  -2.056  29.094  0.00  0.00    +0.020 A 
ATOM      4  C   UNL A   1     -23.931   0.107  27.942  0.00  0.00    +0.060 A 
ATOM      5  C   UNL A   1     -22.890  -0.790  28.659  0.00  0.00    +0.019 A 
ENDROOT
BRANCH   1   6
ATOM      6  C   UNL A   1     -26.380  -0.087  27.939  0.00  0.00    +0.162 C 
ATOM      7  C   UNL A   1     -26.633   0.016  26.450  0.00  0.00    +0.034 C 
BRANCH   6   9
ATOM      8  O   UNL A   1     -28.123  -1.335  28.487  0.00  0.00    -0.273 OA
ATOM      9  C   UNL A   1     -27.481  -0.404  28.709  0.00  0.00    +0.246 C 
ATOM     10  N   UNL A   1     -27.899   0.646  29.632  0.00  0.00    -0.278 N 
ATOM     11  C   UNL A   1     -27.265   1.903  29.863  0.00  0.00    +0.102 C 
ATOM     12  C   UNL A   1     -27.585   2.431  30.855  0.00  0.00    +0.098 C 
ATOM     13  C   UNL A   1     -28.580   2.126  31.737  0.00  0.00    +0.013 C 
ATOM     14  C   UNL A   1     -29.184   0.899  31.546  0.00  0.00    +0.022 C 
ATOM     15  C   UNL A   1     -28.799   0.083  30.535  0.00  0.00    +0.093 C 
BRANCH  12  16
ATOM     16  C   UNL A   1     -27.011   3.915  31.015  0.00  0.00    +0.243 C 
ATOM     17  O   UNL A   1     -26.089   4.240  30.356  0.00  0.00    -0.273 OA
ATOM     18  N   UNL A   1     -27.229   4.587  32.172  0.00  0.00    -0.205 NA
BRANCH  18  19
ATOM     19  C   UNL A   1     -26.601   5.891  32.436  0.00  0.00    +0.115 C 
ATOM     20  C   UNL A   1     -25.942   6.456  31.527  0.00  0.00    +0.025 C 
ENDBRANCH  18  19
ENDBRANCH  12  16
ENDBRANCH   6   9
ENDBRANCH   1   6
BRANCH   4  21
ATOM     21  C   UNL A   1     -23.592   1.373  27.545  0.00  0.00    +0.016 C 
ATOM     22  C   UNL A   1     -22.329   1.815  27.357  0.00  0.00    +0.002 C 
BRANCH  21  23
ATOM     23  C   UNL A   1     -24.631   2.207  26.983  0.00  0.00    +0.001 C 
ATOM     24  C   UNL A   1     -24.390   3.515  26.536  0.00  0.00    +0.000 C 
BRANCH  24  25
ATOM     25  C   UNL A   1     -25.429   4.397  26.313  0.00  0.00    +0.000 A 
ATOM     26  C   UNL A   1     -26.734   3.838  26.447  0.00  0.00    +0.007 A 
ATOM     27  C   UNL A   1     -27.803   4.696  26.332  0.00  0.00    +0.080 A 
ATOM     28  C   UNL A   1     -27.605   6.075  26.437  0.00  0.00    +0.007 A 
ATOM     29  C   UNL A   1     -26.340   6.646  26.521  0.00  0.00    +0.000 A 
ATOM     30  C   UNL A   1     -25.241   5.827  26.525  0.00  0.00    +0.000 A 
BRANCH  27  31
ATOM     31  C   UNL A   1     -29.167   4.197  26.258  0.00  0.00    +0.388 C 
ATOM     32  O   UNL A   1     -29.425   3.434  25.491  0.00  0.00    -0.241 OA
ATOM     33  O   UNL A   1     -29.909   4.248  27.393  0.00  0.00    -0.241 OA
ENDBRANCH  27  31
ENDBRANCH  24  25
ENDBRANCH  21  23
ENDBRANCH   4  21
TORSDOF 8
