REMARK  Name = No_420-gen_results/8p0m/2024-11-26-14-13-15/
REMARK  5 active torsions:
REMARK  status: ('A' for Active; 'I' for Inactive)
REMARK    1  A    between atoms: C_3  and  C_12
REMARK    2  A    between atoms: C_12  and  O_15
REMARK    3  A    between atoms: O_15  and  C_16
REMARK    4  A    between atoms: C_18  and  O_22
REMARK    5  A    between atoms: O_22  and  C_23
REMARK                            x       y       z     vdW  Elec       q    Type
REMARK                         _______ _______ _______ _____ _____    ______ ____
ROOT
ATOM      1  C   UNL A   1     -28.083  -0.074  30.864  0.00  0.00    +0.330 C 
ATOM      2  O   UNL A   1     -27.678  -0.420  31.790  0.00  0.00    -0.249 OA
ENDROOT
BRANCH   1   5
ATOM      3  O   UNL A   1     -28.123  -1.335  28.487  0.00  0.00    -0.272 OA
ATOM      4  C   UNL A   1     -27.481  -0.404  28.709  0.00  0.00    +0.258 C 
ATOM      5  C   UNL A   1     -27.190   0.246  29.527  0.00  0.00    +0.182 C 
ATOM      6  N   UNL A   1     -26.602  -0.158  27.552  0.00  0.00    -0.160 NA
ATOM      7  C   UNL A   1     -25.642   0.903  27.582  0.00  0.00    +0.152 A 
ATOM      8  C   UNL A   1     -25.500   1.614  28.737  0.00  0.00    +0.012 A 
ATOM      9  C   UNL A   1     -26.255   1.316  29.813  0.00  0.00    +0.050 C 
ATOM     10  N   UNL A   1     -24.896   1.146  26.488  0.00  0.00    -0.211 NA
ATOM     11  C   UNL A   1     -23.881   2.123  26.639  0.00  0.00    +0.171 A 
ATOM     12  C   UNL A   1     -23.645   2.786  27.732  0.00  0.00    +0.037 A 
ATOM     13  C   UNL A   1     -24.409   2.590  28.781  0.00  0.00    +0.002 A 
ATOM     14  N   UNL A   1     -22.975   2.491  25.616  0.00  0.00    -0.107 NA
ENDBRANCH   1   5
BRANCH   1  15
ATOM     15  O   UNL A   1     -29.335   0.200  30.620  0.00  0.00    -0.424 OA
BRANCH  15  16
ATOM     16  C   UNL A   1     -30.317  -0.462  31.353  0.00  0.00    +0.151 A 
ATOM     17  C   UNL A   1     -31.253  -0.882  30.675  0.00  0.00    +0.075 A 
ATOM     18  C   UNL A   1     -32.308  -1.622  31.326  0.00  0.00    +0.148 A 
ATOM     19  C   UNL A   1     -32.278  -1.743  32.763  0.00  0.00    +0.038 A 
ATOM     20  C   UNL A   1     -31.173  -1.209  33.399  0.00  0.00    +0.006 A 
ATOM     21  C   UNL A   1     -30.180  -0.572  32.728  0.00  0.00    +0.038 A 
BRANCH  18  22
ATOM     22  O   UNL A   1     -33.413  -2.079  30.685  0.00  0.00    -0.453 OA
BRANCH  22  23
ATOM     23  C   UNL A   1     -33.445  -2.479  29.601  0.00  0.00    +0.145 A 
ATOM     24  C   UNL A   1     -33.819  -2.019  28.777  0.00  0.00    +0.037 A 
ATOM     25  C   UNL A   1     -32.790  -3.856  29.388  0.00  0.00    +0.037 A 
ATOM     26  C   UNL A   1     -32.669  -4.414  28.142  0.00  0.00    +0.003 A 
ATOM     27  C   UNL A   1     -33.785  -2.491  27.305  0.00  0.00    +0.003 A 
ATOM     28  C   UNL A   1     -33.195  -3.705  27.067  0.00  0.00    +0.000 A 
ENDBRANCH  22  23
ENDBRANCH  18  22
ENDBRANCH  15  16
ENDBRANCH   1  15
TORSDOF 5
