MODEL 4200
MODEL 1
REMARK VINA RESULT:    -4.002      0.000      0.000
REMARK INTER + INTRA:          -4.002
REMARK INTER:                  -4.002
REMARK INTRA:                   0.000
REMARK UNBOUND:                 0.000
REMARK  Name = No_4200-gen_results/8p0m/2024-11-26-14-13-15/
REMARK  0 active torsions:
REMARK  status: ('A' for Active; 'I' for Inactive)
REMARK                            x       y       z     vdW  Elec       q    Type
REMARK                         _______ _______ _______ _____ _____    ______ ____
ROOT
ATOM      1  C   UNL A   1     -25.169  -4.196  29.238  0.00  0.00    +0.012 A 
ATOM      2  C   UNL A   1     -25.933  -3.642  29.706  0.00  0.00    +0.058 A 
ATOM      3  C   UNL A   1     -23.904  -3.427  28.929  0.00  0.00    +0.012 A 
ATOM      4  C   UNL A   1     -23.767  -2.104  29.399  0.00  0.00    +0.058 A 
ATOM      5  C   UNL A   1     -26.034  -2.298  30.317  0.00  0.00    +0.012 A 
ATOM      6  C   UNL A   1     -24.886  -1.562  30.059  0.00  0.00    +0.012 A 
ATOM      7 CL   UNL A   1     -22.427  -1.203  29.073  0.00  0.00    -0.082 Cl
ATOM      8 CL   UNL A   1     -27.480  -4.593  30.093  0.00  0.00    -0.082 Cl
ENDROOT
TORSDOF 0
ENDMDL
ENDMDL
