REMARK  Name = No_4201-gen_results/8p0m/2024-11-26-14-13-15/
REMARK  4 active torsions:
REMARK  status: ('A' for Active; 'I' for Inactive)
REMARK    1  A    between atoms: C_3  and  O_9
REMARK    2  A    between atoms: C_5  and  C_15
REMARK    3  A    between atoms: O_9  and  C_10
REMARK    4  A    between atoms: C_10  and  C_12
REMARK                            x       y       z     vdW  Elec       q    Type
REMARK                         _______ _______ _______ _____ _____    ______ ____
ROOT
ATOM      1  F   UNL A   1     -28.073  -1.254  28.532  0.00  0.00    -0.225 F 
ATOM      2  C   UNL A   1     -27.061  -0.629  28.872  0.00  0.00    +0.260 C 
ATOM      3  C   UNL A   1     -26.153  -1.156  29.454  0.00  0.00    +0.206 C 
ATOM      4  C   UNL A   1     -24.878  -0.579  29.864  0.00  0.00    +0.061 C 
ATOM      5  C   UNL A   1     -24.743   0.827  29.481  0.00  0.00    +0.147 C 
ATOM      6  C   UNL A   1     -25.788   1.393  28.763  0.00  0.00    +0.231 C 
ATOM      7  C   UNL A   1     -26.915   0.731  28.443  0.00  0.00    +0.219 C 
ATOM      8  F   UNL A   1     -25.604   2.697  28.424  0.00  0.00    -0.229 F 
ATOM      9  O   UNL A   1     -27.888   1.323  27.732  0.00  0.00    -0.290 OA
ENDROOT
BRANCH   5  10
ATOM     10  C   UNL A   1     -23.503   1.522  29.884  0.00  0.00    +0.368 C 
ATOM     11  O   UNL A   1     -23.143   1.491  31.012  0.00  0.00    -0.246 OA
ATOM     12  O   UNL A   1     -22.843   2.115  28.965  0.00  0.00    -0.246 OA
ENDBRANCH   5  10
BRANCH   3  13
ATOM     13  O   UNL A   1     -26.190  -2.494  29.905  0.00  0.00    -0.470 OA
BRANCH  13  14
ATOM     14  C   UNL A   1     -25.394  -3.424  29.228  0.00  0.00    +0.218 C 
ATOM     15  C   UNL A   1     -24.226  -2.998  28.694  0.00  0.00    +0.047 C 
BRANCH  14  16
ATOM     16  C   UNL A   1     -25.856  -4.780  29.294  0.00  0.00    +0.421 C 
ATOM     17  O   UNL A   1     -26.966  -4.990  29.921  0.00  0.00    -0.237 OA
ATOM     18  O   UNL A   1     -25.245  -5.667  28.822  0.00  0.00    -0.237 OA
ENDBRANCH  14  16
ENDBRANCH  13  14
ENDBRANCH   3  13
TORSDOF 4
