MODEL 4201
MODEL 1
REMARK VINA RESULT:    -5.674      0.000      0.000
REMARK INTER + INTRA:          -7.181
REMARK INTER:                  -7.001
REMARK INTRA:                  -0.180
REMARK UNBOUND:                -0.180
REMARK  Name = No_4201-gen_results/8p0m/2024-11-26-14-13-15/
REMARK  4 active torsions:
REMARK  status: ('A' for Active; 'I' for Inactive)
REMARK    1  A    between atoms: C_3  and  O_9
REMARK    2  A    between atoms: C_5  and  C_15
REMARK    3  A    between atoms: O_9  and  C_10
REMARK    4  A    between atoms: C_10  and  C_12
REMARK                            x       y       z     vdW  Elec       q    Type
REMARK                         _______ _______ _______ _____ _____    ______ ____
ROOT
ATOM      1  F   UNL A   1      -9.007   3.410  12.949  0.00  0.00    -0.225 F 
ATOM      2  C   UNL A   1      -8.614   2.329  12.493  0.00  0.00    +0.260 C 
ATOM      3  C   UNL A   1      -9.182   1.773  11.594  0.00  0.00    +0.206 C 
ATOM      4  C   UNL A   1      -8.814   0.539  10.910  0.00  0.00    +0.061 C 
ATOM      5  C   UNL A   1      -7.576  -0.047  11.425  0.00  0.00    +0.147 C 
ATOM      6  C   UNL A   1      -6.914   0.647  12.429  0.00  0.00    +0.231 C 
ATOM      7  C   UNL A   1      -7.371   1.793  12.967  0.00  0.00    +0.219 C 
ATOM      8  F   UNL A   1      -5.765   0.063  12.862  0.00  0.00    -0.229 F 
ATOM      9  O   UNL A   1      -6.682   2.432  13.925  0.00  0.00    -0.290 OA
ENDROOT
BRANCH   5  10
ATOM     10  C   UNL A   1      -7.132  -1.324  10.828  0.00  0.00    +0.368 C 
ATOM     11  O   UNL A   1      -7.144  -2.318  11.472  0.00  0.00    -0.246 OA
ATOM     12  O   UNL A   1      -6.774  -1.299   9.602  0.00  0.00    -0.246 OA
ENDBRANCH   5  10
BRANCH   3  13
ATOM     13  O   UNL A   1     -10.402   2.227  11.046  0.00  0.00    -0.470 OA
BRANCH  13  14
ATOM     14  C   UNL A   1     -10.333   3.122   9.973  0.00  0.00    +0.218 C 
ATOM     15  C   UNL A   1      -9.960   4.398  10.227  0.00  0.00    +0.047 C 
BRANCH  14  16
ATOM     16  C   UNL A   1     -10.541   2.537   8.681  0.00  0.00    +0.421 C 
ATOM     17  O   UNL A   1     -11.763   2.296   8.338  0.00  0.00    -0.237 OA
ATOM     18  O   UNL A   1      -9.644   2.265   7.971  0.00  0.00    -0.237 OA
ENDBRANCH  14  16
ENDBRANCH  13  14
ENDBRANCH   3  13
TORSDOF 4
ENDMDL
ENDMDL
