MODEL 4202
MODEL 1
REMARK VINA RESULT:    -4.721      0.000      0.000
REMARK INTER + INTRA:          -5.148
REMARK INTER:                  -4.997
REMARK INTRA:                  -0.151
REMARK UNBOUND:                -0.151
REMARK  Name = No_4202-gen_results/8p0m/2024-11-26-14-13-15/
REMARK  1 active torsions:
REMARK  status: ('A' for Active; 'I' for Inactive)
REMARK    1  A    between atoms: C_3  and  C_4
REMARK                            x       y       z     vdW  Elec       q    Type
REMARK                         _______ _______ _______ _____ _____    ______ ____
ROOT
ATOM      1  O   UNL A   1     -28.965 -15.421  12.859  0.00  0.00    -0.273 OA
ATOM      2  C   UNL A   1     -29.835 -14.718  12.333  0.00  0.00    +0.245 C 
ATOM      3  C   UNL A   1     -30.577 -14.766  11.471  0.00  0.00    +0.100 C 
ATOM      4  N   UNL A   1     -29.871 -13.304  12.907  0.00  0.00    -0.205 NA
ATOM      5  C   UNL A   1     -30.828 -12.406  12.660  0.00  0.00    +0.115 C 
ATOM      6  C   UNL A   1     -31.665 -12.644  11.547  0.00  0.00    +0.024 C 
ATOM      7  C   UNL A   1     -31.554 -13.703  10.840  0.00  0.00    +0.015 C 
ENDROOT
BRANCH   3   8
ATOM      8  C   UNL A   1     -30.570 -15.683  10.435  0.00  0.00    -0.022 C 
ATOM      9  C   UNL A   1     -29.656 -15.825   9.315  0.00  0.00    -0.030 C 
ATOM     10  C   UNL A   1     -28.785 -14.884   8.935  0.00  0.00    +0.030 C 
ENDBRANCH   3   8
TORSDOF 1
ENDMDL
ENDMDL
