REMARK  Name = No_4202-gen_results/8p0m/2024-11-26-14-13-15/
REMARK  1 active torsions:
REMARK  status: ('A' for Active; 'I' for Inactive)
REMARK    1  A    between atoms: C_3  and  C_4
REMARK                            x       y       z     vdW  Elec       q    Type
REMARK                         _______ _______ _______ _____ _____    ______ ____
ROOT
ATOM      1  O   UNL A   1     -28.123  -1.335  28.487  0.00  0.00    -0.273 OA
ATOM      2  C   UNL A   1     -27.064  -0.824  28.869  0.00  0.00    +0.245 C 
ATOM      3  C   UNL A   1     -25.946  -1.040  28.849  0.00  0.00    +0.100 C 
ATOM      4  N   UNL A   1     -27.290   0.408  29.741  0.00  0.00    -0.205 NA
ATOM      5  C   UNL A   1     -26.332   1.256  30.124  0.00  0.00    +0.115 C 
ATOM      6  C   UNL A   1     -24.995   0.812  30.013  0.00  0.00    +0.024 C 
ATOM      7  C   UNL A   1     -24.707  -0.327  29.511  0.00  0.00    +0.015 C 
ENDROOT
BRANCH   3   8
ATOM      8  C   UNL A   1     -25.352  -2.252  28.547  0.00  0.00    -0.022 C 
ATOM      9  C   UNL A   1     -24.026  -2.752  28.867  0.00  0.00    -0.030 C 
ATOM     10  C   UNL A   1     -23.019  -1.982  29.296  0.00  0.00    +0.030 C 
ENDBRANCH   3   8
TORSDOF 1
