MODEL 4203
MODEL 1
REMARK VINA RESULT:    -7.233      0.000      0.000
REMARK INTER + INTRA:          -8.637
REMARK INTER:                  -8.079
REMARK INTRA:                  -0.558
REMARK UNBOUND:                -0.558
REMARK  Name = No_4203-gen_results/8p0m/2024-11-26-14-13-15/
REMARK  2 active torsions:
REMARK  status: ('A' for Active; 'I' for Inactive)
REMARK    1  A    between atoms: C_1  and  C_2
REMARK    2  A    between atoms: C_5  and  C_10
REMARK                            x       y       z     vdW  Elec       q    Type
REMARK                         _______ _______ _______ _____ _____    ______ ____
ROOT
ATOM      1  C   UNL A   1     -24.122  -1.523  29.147  0.00  0.00    +0.003 A 
ATOM      2  C   UNL A   1     -22.916  -1.127  29.440  0.00  0.00    +0.000 A 
ATOM      3  C   UNL A   1     -22.198   0.022  28.836  0.00  0.00    +0.004 A 
ATOM      4  C   UNL A   1     -22.885   0.725  27.806  0.00  0.00    +0.071 A 
ATOM      5  C   UNL A   1     -24.131   0.275  27.452  0.00  0.00    +0.004 A 
ATOM      6  C   UNL A   1     -24.746  -0.789  28.019  0.00  0.00    +0.000 A 
ENDROOT
BRANCH   1   7
ATOM      7  C   UNL A   1     -24.732  -2.455  29.617  0.00  0.00    +0.039 A 
ATOM      8  C   UNL A   1     -26.260  -2.368  29.650  0.00  0.00    +0.003 A 
ATOM      9  C   UNL A   1     -27.068  -3.438  30.192  0.00  0.00    +0.000 A 
ATOM     10  C   UNL A   1     -26.599  -4.657  29.974  0.00  0.00    +0.003 A 
ATOM     11  C   UNL A   1     -25.873  -4.882  29.317  0.00  0.00    +0.042 A 
ATOM     12  C   UNL A   1     -24.751  -3.827  28.646  0.00  0.00    +0.196 A 
ATOM     13  O   UNL A   1     -23.460  -4.325  28.552  0.00  0.00    -0.287 OA
ENDBRANCH   1   7
BRANCH   4  14
ATOM     14  C   UNL A   1     -22.274   1.870  27.171  0.00  0.00    +0.419 C 
ATOM     15  F   UNL A   1     -21.206   2.184  27.491  0.00  0.00    -0.166 F 
ATOM     16  F   UNL A   1     -22.362   1.794  25.778  0.00  0.00    -0.166 F 
ATOM     17  F   UNL A   1     -23.106   3.020  27.346  0.00  0.00    -0.166 F 
ENDBRANCH   4  14
TORSDOF 2
ENDMDL
ENDMDL
