REMARK  Name = No_4203-gen_results/8p0m/2024-11-26-14-13-15/
REMARK  2 active torsions:
REMARK  status: ('A' for Active; 'I' for Inactive)
REMARK    1  A    between atoms: C_1  and  C_2
REMARK    2  A    between atoms: C_5  and  C_10
REMARK                            x       y       z     vdW  Elec       q    Type
REMARK                         _______ _______ _______ _____ _____    ______ ____
ROOT
ATOM      1  C   UNL A   1     -27.064  -0.119  28.608  0.00  0.00    +0.003 A 
ATOM      2  C   UNL A   1     -26.876   1.133  28.913  0.00  0.00    +0.000 A 
ATOM      3  C   UNL A   1     -25.688   1.952  28.567  0.00  0.00    +0.004 A 
ATOM      4  C   UNL A   1     -24.639   1.283  27.875  0.00  0.00    +0.071 A 
ATOM      5  C   UNL A   1     -24.807  -0.051  27.604  0.00  0.00    +0.004 A 
ATOM      6  C   UNL A   1     -25.902  -0.767  27.951  0.00  0.00    +0.000 A 
ENDROOT
BRANCH   1   7
ATOM      7  C   UNL A   1     -28.016  -0.814  28.878  0.00  0.00    +0.039 A 
ATOM      8  C   UNL A   1     -28.068  -1.448  30.271  0.00  0.00    +0.003 A 
ATOM      9  C   UNL A   1     -29.171  -2.291  30.678  0.00  0.00    +0.000 A 
ATOM     10  C   UNL A   1     -30.353  -1.934  30.200  0.00  0.00    +0.003 A 
ATOM     11  C   UNL A   1     -30.552  -1.049  29.768  0.00  0.00    +0.042 A 
ATOM     12  C   UNL A   1     -29.444   0.037  29.123  0.00  0.00    +0.196 A 
ATOM     13  O   UNL A   1     -29.826   0.622  27.925  0.00  0.00    -0.287 OA
ENDBRANCH   1   7
BRANCH   4  14
ATOM     14  C   UNL A   1     -23.451   2.002  27.479  0.00  0.00    +0.419 C 
ATOM     15  F   UNL A   1     -23.429   2.521  26.443  0.00  0.00    -0.166 F 
ATOM     16  F   UNL A   1     -23.029   2.888  28.475  0.00  0.00    -0.166 F 
ATOM     17  F   UNL A   1     -22.320   1.127  27.519  0.00  0.00    -0.166 F 
ENDBRANCH   4  14
TORSDOF 2
