MODEL 4204
MODEL 1
REMARK VINA RESULT:    -3.538      0.000      0.000
REMARK INTER + INTRA:          -3.815
REMARK INTER:                  -3.745
REMARK INTRA:                  -0.070
REMARK UNBOUND:                -0.070
REMARK  Name = No_4204-gen_results/8p0m/2024-11-26-14-13-15/
REMARK  1 active torsions:
REMARK  status: ('A' for Active; 'I' for Inactive)
REMARK    1  A    between atoms: C_3  and  C_4
REMARK                            x       y       z     vdW  Elec       q    Type
REMARK                         _______ _______ _______ _____ _____    ______ ____
ROOT
ATOM      1  F   UNL A   1     -10.142  -9.077  20.925  0.00  0.00    -0.202 F 
ATOM      2  C   UNL A   1     -10.023  -9.325  19.719  0.00  0.00    +0.167 C 
ATOM      3  C   UNL A   1      -8.950  -9.468  19.202  0.00  0.00    +0.032 C 
ENDROOT
BRANCH   3   4
ATOM      4  C   UNL A   1      -7.616  -9.259  19.980  0.00  0.00    +0.002 C 
ATOM      5  C   UNL A   1      -7.014  -8.080  19.732  0.00  0.00    +0.000 C 
ENDBRANCH   3   4
TORSDOF 1
ENDMDL
ENDMDL
