REMARK  Name = No_4204-gen_results/8p0m/2024-11-26-14-13-15/
REMARK  1 active torsions:
REMARK  status: ('A' for Active; 'I' for Inactive)
REMARK    1  A    between atoms: C_3  and  C_4
REMARK                            x       y       z     vdW  Elec       q    Type
REMARK                         _______ _______ _______ _____ _____    ______ ____
ROOT
ATOM      1  F   UNL A   1     -28.073  -1.254  28.532  0.00  0.00    -0.202 F 
ATOM      2  C   UNL A   1     -27.061  -0.629  28.872  0.00  0.00    +0.167 C 
ATOM      3  C   UNL A   1     -26.153  -1.156  29.454  0.00  0.00    +0.032 C 
ENDROOT
BRANCH   3   4
ATOM      4  C   UNL A   1     -26.212  -2.643  29.916  0.00  0.00    +0.002 C 
ATOM      5  C   UNL A   1     -27.460  -3.113  30.098  0.00  0.00    +0.000 C 
ENDBRANCH   3   4
TORSDOF 1
