MODEL 4205
MODEL 1
REMARK VINA RESULT:    -6.362      0.000      0.000
REMARK INTER + INTRA:          -8.627
REMARK INTER:                  -7.850
REMARK INTRA:                  -0.777
REMARK UNBOUND:                -0.777
REMARK  Name = No_4205-gen_results/8p0m/2024-11-26-14-13-15/
REMARK  4 active torsions:
REMARK  status: ('A' for Active; 'I' for Inactive)
REMARK    1  A    between atoms: C_1  and  C_2
REMARK    2  A    between atoms: C_5  and  C_10
REMARK    3  A    between atoms: C_10  and  C_11
REMARK    4  A    between atoms: C_11  and  C_13
REMARK                            x       y       z     vdW  Elec       q    Type
REMARK                         _______ _______ _______ _____ _____    ______ ____
ROOT
ATOM      1  C   UNL A   1     -23.200   1.569  26.677  0.00  0.00    +0.046 A 
ATOM      2  C   UNL A   1     -22.210   1.304  27.567  0.00  0.00    +0.030 A 
ATOM      3  C   UNL A   1     -22.258   0.228  28.583  0.00  0.00    +0.136 A 
ATOM      4  C   UNL A   1     -23.450  -0.567  28.630  0.00  0.00    +0.005 A 
ATOM      5  C   UNL A   1     -24.486  -0.213  27.736  0.00  0.00    -0.002 A 
ATOM      6  C   UNL A   1     -24.370   0.800  26.819  0.00  0.00    +0.001 A 
ATOM      7  F   UNL A   1     -21.283  -0.029  29.330  0.00  0.00    -0.204 F 
ENDROOT
BRANCH   1   8
ATOM      8  C   UNL A   1     -23.149   2.452  25.853  0.00  0.00    +0.341 C 
ATOM      9  F   UNL A   1     -22.194   2.366  25.068  0.00  0.00    -0.193 F 
ATOM     10  F   UNL A   1     -24.017   3.388  25.709  0.00  0.00    -0.193 F 
ENDBRANCH   1   8
BRANCH   4  11
ATOM     11  C   UNL A   1     -23.639  -1.605  29.568  0.00  0.00    +0.030 C 
ATOM     12  C   UNL A   1     -23.776  -2.928  28.923  0.00  0.00    +0.005 C 
BRANCH  11  13
ATOM     13  C   UNL A   1     -24.054  -1.512  30.876  0.00  0.00    +0.077 C 
BRANCH  13  14
ATOM     14  C   UNL A   1     -23.290  -0.722  31.774  0.00  0.00    +0.319 C 
ATOM     15  F   UNL A   1     -22.355  -1.125  32.325  0.00  0.00    -0.198 F 
ATOM     16  F   UNL A   1     -23.538   0.540  31.796  0.00  0.00    -0.198 F 
ENDBRANCH  13  14
ENDBRANCH  11  13
ENDBRANCH   4  11
TORSDOF 4
ENDMDL
ENDMDL
