REMARK  Name = No_4205-gen_results/8p0m/2024-11-26-14-13-15/
REMARK  4 active torsions:
REMARK  status: ('A' for Active; 'I' for Inactive)
REMARK    1  A    between atoms: C_1  and  C_2
REMARK    2  A    between atoms: C_5  and  C_10
REMARK    3  A    between atoms: C_10  and  C_11
REMARK    4  A    between atoms: C_11  and  C_13
REMARK                            x       y       z     vdW  Elec       q    Type
REMARK                         _______ _______ _______ _____ _____    ______ ____
ROOT
ATOM      1  C   UNL A   1     -27.064  -0.119  28.608  0.00  0.00    +0.046 A 
ATOM      2  C   UNL A   1     -26.929   1.171  29.008  0.00  0.00    +0.030 A 
ATOM      3  C   UNL A   1     -25.770   2.034  28.688  0.00  0.00    +0.136 A 
ATOM      4  C   UNL A   1     -24.714   1.443  27.919  0.00  0.00    +0.005 A 
ATOM      5  C   UNL A   1     -24.859   0.078  27.584  0.00  0.00    -0.002 A 
ATOM      6  C   UNL A   1     -25.965  -0.661  27.916  0.00  0.00    +0.001 A 
ATOM      7  F   UNL A   1     -25.729   3.246  29.013  0.00  0.00    -0.204 F 
ENDROOT
BRANCH   1   8
ATOM      8  C   UNL A   1     -28.016  -0.814  28.878  0.00  0.00    +0.341 C 
ATOM      9  F   UNL A   1     -29.059  -0.509  28.282  0.00  0.00    -0.193 F 
ATOM     10  F   UNL A   1     -27.995  -1.837  29.655  0.00  0.00    -0.193 F 
ENDBRANCH   1   8
BRANCH   4  11
ATOM     11  C   UNL A   1     -23.540   2.144  27.569  0.00  0.00    +0.030 C 
ATOM     12  C   UNL A   1     -23.826   3.371  26.795  0.00  0.00    +0.005 C 
BRANCH  11  13
ATOM     13  C   UNL A   1     -22.245   1.681  27.532  0.00  0.00    +0.077 C 
BRANCH  13  14
ATOM     14  C   UNL A   1     -21.771   0.909  28.624  0.00  0.00    +0.319 C 
ATOM     15  F   UNL A   1     -22.213   0.993  29.691  0.00  0.00    -0.198 F 
ATOM     16  F   UNL A   1     -20.969  -0.059  28.349  0.00  0.00    -0.198 F 
ENDBRANCH  13  14
ENDBRANCH  11  13
ENDBRANCH   4  11
TORSDOF 4
