REMARK  Name = No_4206-gen_results/8p0m/2024-11-26-14-13-15/
REMARK  0 active torsions:
REMARK  status: ('A' for Active; 'I' for Inactive)
REMARK                            x       y       z     vdW  Elec       q    Type
REMARK                         _______ _______ _______ _____ _____    ______ ____
ROOT
ATOM      1  F   UNL A   1     -28.073  -1.254  28.532  0.00  0.00    -0.204 F 
ATOM      2  C   UNL A   1     -27.061  -0.629  28.872  0.00  0.00    +0.140 A 
ATOM      3  C   UNL A   1     -26.358  -0.071  28.012  0.00  0.00    +0.031 A 
ATOM      4  C   UNL A   1     -25.072   0.553  28.256  0.00  0.00    +0.018 A 
ATOM      5  C   UNL A   1     -24.577   0.480  29.570  0.00  0.00    +0.071 A 
ATOM      6  C   UNL A   1     -25.332  -0.203  30.506  0.00  0.00    +0.019 A 
ATOM      7  C   UNL A   1     -26.496  -0.736  30.161  0.00  0.00    +0.031 A 
ATOM      8  C   UNL A   1     -24.257   1.252  27.262  0.00  0.00    +0.001 C 
ATOM      9  C   UNL A   1     -23.986   2.315  27.225  0.00  0.00    +0.001 C 
ATOM     10  C   UNL A   1     -24.417   3.232  28.339  0.00  0.00    +0.015 A 
ATOM     11  C   UNL A   1     -25.015   4.570  27.956  0.00  0.00    +0.001 A 
ATOM     12  C   UNL A   1     -25.540   5.382  28.961  0.00  0.00    +0.000 A 
ATOM     13  C   UNL A   1     -25.705   4.867  30.259  0.00  0.00    +0.001 A 
ATOM     14  C   UNL A   1     -25.255   3.611  30.573  0.00  0.00    +0.017 A 
ATOM     15  C   UNL A   1     -24.655   2.808  29.629  0.00  0.00    +0.070 A 
ATOM     16  N   UNL A   1     -24.551   1.513  29.948  0.00  0.00    -0.212 NA
ENDROOT
TORSDOF 0
