MODEL 4207
MODEL 1
REMARK VINA RESULT:    -6.048      0.000      0.000
REMARK INTER + INTRA:         -11.522
REMARK INTER:                  -8.877
REMARK INTRA:                  -2.645
REMARK UNBOUND:                -2.645
REMARK  Name = No_4207-gen_results/8p0m/2024-11-26-14-13-15/
REMARK  8 active torsions:
REMARK  status: ('A' for Active; 'I' for Inactive)
REMARK    1  A    between atoms: C_2  and  C_7
REMARK    2  A    between atoms: C_3  and  C_10
REMARK    3  A    between atoms: C_7  and  O_9
REMARK    4  A    between atoms: O_9  and  C_12
REMARK    5  A    between atoms: C_12  and  C_13
REMARK    6  A    between atoms: C_13  and  O_14
REMARK    7  A    between atoms: O_14  and  C_17
REMARK    8  A    between atoms: C_17  and  C_18
REMARK                            x       y       z     vdW  Elec       q    Type
REMARK                         _______ _______ _______ _____ _____    ______ ____
ROOT
ATOM      1  C   UNL A   1     -23.807   1.876  26.825  0.00  0.00    +0.387 C 
ATOM      2  O   UNL A   1     -24.485   2.780  26.512  0.00  0.00    -0.244 OA
ENDROOT
BRANCH   1   3
ATOM      3  C   UNL A   1     -22.676   1.857  27.682  0.00  0.00    +0.379 C 
ATOM      4  F   UNL A   1     -21.544   2.031  27.113  0.00  0.00    -0.191 F 
BRANCH   3   5
ATOM      5  O   UNL A   1     -22.707   1.658  28.825  0.00  0.00    -0.314 OA
BRANCH   5   6
ATOM      6  C   UNL A   1     -22.383   0.535  29.493  0.00  0.00    +0.172 C 
BRANCH   6   7
ATOM      7  C   UNL A   1     -23.071   0.226  30.564  0.00  0.00    +0.007 A 
ATOM      8  C   UNL A   1     -22.934  -0.872  31.337  0.00  0.00    -0.002 A 
ATOM      9  C   UNL A   1     -23.582  -1.090  32.615  0.00  0.00    -0.000 A 
ATOM     10  C   UNL A   1     -24.620  -0.165  32.936  0.00  0.00    -0.000 A 
ATOM     11  C   UNL A   1     -24.916   0.883  32.163  0.00  0.00    -0.000 A 
ATOM     12  C   UNL A   1     -24.148   1.107  31.028  0.00  0.00    -0.002 A 
ENDBRANCH   6   7
ENDBRANCH   5   6
ENDBRANCH   3   5
ENDBRANCH   1   3
BRANCH   1  13
ATOM     13  O   UNL A   1     -24.055   0.653  26.359  0.00  0.00    -0.386 OA
BRANCH  13  14
ATOM     14  C   UNL A   1     -25.257   0.063  26.392  0.00  0.00    +0.348 C 
ATOM     15  O   UNL A   1     -25.953   0.130  25.560  0.00  0.00    -0.244 OA
BRANCH  14  17
ATOM     16  C   UNL A   1     -24.847  -1.689  27.793  0.00  0.00    +0.003 A 
ATOM     17  C   UNL A   1     -25.437  -0.819  27.722  0.00  0.00    +0.076 A 
ATOM     18  C   UNL A   1     -25.045  -2.508  29.049  0.00  0.00    -0.011 A 
ATOM     19  C   UNL A   1     -26.073  -2.156  29.949  0.00  0.00    -0.003 A 
ATOM     20  C   UNL A   1     -26.577  -0.256  28.480  0.00  0.00    +0.006 A 
ATOM     21  C   UNL A   1     -26.794  -0.987  29.640  0.00  0.00    -0.000 A 
BRANCH  18  22
ATOM     22  C   UNL A   1     -24.276  -3.702  29.418  0.00  0.00    +0.094 C 
ATOM     23 BR   UNL A   1     -24.965  -5.130  29.067  0.00  0.00    -0.076 Br
ENDBRANCH  18  22
ENDBRANCH  14  17
ENDBRANCH  13  14
ENDBRANCH   1  13
TORSDOF 8
ENDMDL
ENDMDL
