REMARK  Name = No_4207-gen_results/8p0m/2024-11-26-14-13-15/
REMARK  8 active torsions:
REMARK  status: ('A' for Active; 'I' for Inactive)
REMARK    1  A    between atoms: C_2  and  C_7
REMARK    2  A    between atoms: C_3  and  C_10
REMARK    3  A    between atoms: C_7  and  O_9
REMARK    4  A    between atoms: O_9  and  C_12
REMARK    5  A    between atoms: C_12  and  C_13
REMARK    6  A    between atoms: C_13  and  O_14
REMARK    7  A    between atoms: O_14  and  C_17
REMARK    8  A    between atoms: C_17  and  C_18
REMARK                            x       y       z     vdW  Elec       q    Type
REMARK                         _______ _______ _______ _____ _____    ______ ____
ROOT
ATOM      1  C   UNL A   1     -31.782   0.246  28.641  0.00  0.00    +0.387 C 
ATOM      2  O   UNL A   1     -32.462  -0.709  28.644  0.00  0.00    -0.244 OA
ENDROOT
BRANCH   1   3
ATOM      3  C   UNL A   1     -32.011   1.509  28.035  0.00  0.00    +0.379 C 
ATOM      4  F   UNL A   1     -32.785   1.506  27.017  0.00  0.00    -0.191 F 
BRANCH   3   5
ATOM      5  O   UNL A   1     -31.523   2.508  28.369  0.00  0.00    -0.314 OA
BRANCH   5   6
ATOM      6  C   UNL A   1     -30.724   3.331  27.664  0.00  0.00    +0.172 C 
BRANCH   6   7
ATOM      7  C   UNL A   1     -29.464   3.424  28.009  0.00  0.00    +0.007 A 
ATOM      8  C   UNL A   1     -28.968   3.744  29.223  0.00  0.00    -0.002 A 
ATOM      9  C   UNL A   1     -27.576   3.655  29.615  0.00  0.00    -0.000 A 
ATOM     10  C   UNL A   1     -26.655   3.442  28.546  0.00  0.00    -0.000 A 
ATOM     11  C   UNL A   1     -27.048   3.245  27.285  0.00  0.00    -0.000 A 
ATOM     12  C   UNL A   1     -28.410   3.196  27.015  0.00  0.00    -0.002 A 
ENDBRANCH   6   7
ENDBRANCH   5   6
ENDBRANCH   3   5
ENDBRANCH   1   3
BRANCH   1  13
ATOM     13  O   UNL A   1     -30.606   0.240  29.267  0.00  0.00    -0.386 OA
BRANCH  13  14
ATOM     14  C   UNL A   1     -30.074  -0.836  29.861  0.00  0.00    +0.348 C 
ATOM     15  O   UNL A   1     -30.689  -1.655  30.223  0.00  0.00    -0.244 OA
BRANCH  14  17
ATOM     16  C   UNL A   1     -28.016  -0.814  28.878  0.00  0.00    +0.003 A 
ATOM     17  C   UNL A   1     -28.469  -0.785  29.829  0.00  0.00    +0.076 A 
ATOM     18  C   UNL A   1     -26.504  -0.778  28.877  0.00  0.00    -0.011 A 
ATOM     19  C   UNL A   1     -25.810  -0.853  30.103  0.00  0.00    -0.003 A 
ATOM     20  C   UNL A   1     -27.991  -0.892  31.226  0.00  0.00    +0.006 A 
ATOM     21  C   UNL A   1     -26.604  -0.868  31.265  0.00  0.00    -0.000 A 
BRANCH  18  22
ATOM     22  C   UNL A   1     -25.654  -0.714  27.683  0.00  0.00    +0.094 C 
ATOM     23 BR   UNL A   1     -24.654   0.562  27.587  0.00  0.00    -0.076 Br
ENDBRANCH  18  22
ENDBRANCH  14  17
ENDBRANCH  13  14
ENDBRANCH   1  13
TORSDOF 8
