REMARK  Name = No_4208-gen_results/8p0m/2024-11-26-14-13-15/
REMARK  3 active torsions:
REMARK  status: ('A' for Active; 'I' for Inactive)
REMARK    1  A    between atoms: C_4  and  C_8
REMARK    2  A    between atoms: C_8  and  C_9
REMARK    3  A    between atoms: C_9  and  C_10
REMARK                            x       y       z     vdW  Elec       q    Type
REMARK                         _______ _______ _______ _____ _____    ______ ____
ROOT
ATOM      1  C   UNL A   1     -28.016  -0.814  28.878  0.00  0.00    +0.011 A 
ATOM      2  C   UNL A   1     -28.469  -0.785  29.829  0.00  0.00    +0.058 A 
ATOM      3  C   UNL A   1     -26.504  -0.778  28.877  0.00  0.00    -0.003 A 
ATOM      4  C   UNL A   1     -25.950   0.116  29.405  0.00  0.00    -0.022 A 
ATOM      5  C   UNL A   1     -28.102  -0.196  30.891  0.00  0.00    +0.011 A 
ATOM      6  C   UNL A   1     -26.692   0.324  30.878  0.00  0.00    -0.003 A 
ATOM      7 CL   UNL A   1     -30.191  -1.278  29.985  0.00  0.00    -0.082 Cl
ENDROOT
BRANCH   4   8
ATOM      8  C   UNL A   1     -24.563   0.434  29.524  0.00  0.00    +0.033 C 
BRANCH   8   9
ATOM      9  C   UNL A   1     -24.092   1.256  28.436  0.00  0.00    +0.054 C 
BRANCH   9  10
ATOM     10  C   UNL A   1     -24.500   2.498  28.349  0.00  0.00    +0.096 C 
ATOM     11  N   UNL A   1     -24.318   3.125  27.126  0.00  0.00    -0.151 NA
ENDBRANCH   9  10
ENDBRANCH   8   9
ENDBRANCH   4   8
TORSDOF 3
