MODEL 4208
MODEL 1
REMARK VINA RESULT:    -4.924      0.000      0.000
REMARK INTER + INTRA:          -5.971
REMARK INTER:                  -5.787
REMARK INTRA:                  -0.183
REMARK UNBOUND:                -0.183
REMARK  Name = No_4208-gen_results/8p0m/2024-11-26-14-13-15/
REMARK  3 active torsions:
REMARK  status: ('A' for Active; 'I' for Inactive)
REMARK    1  A    between atoms: C_4  and  C_8
REMARK    2  A    between atoms: C_8  and  C_9
REMARK    3  A    between atoms: C_9  and  C_10
REMARK                            x       y       z     vdW  Elec       q    Type
REMARK                         _______ _______ _______ _____ _____    ______ ____
ROOT
ATOM      1  C   UNL A   1     -30.814 -10.374  29.149  0.00  0.00    +0.011 A 
ATOM      2  C   UNL A   1     -30.247 -10.796  28.367  0.00  0.00    +0.058 A 
ATOM      3  C   UNL A   1     -30.054 -10.100  30.428  0.00  0.00    -0.003 A 
ATOM      4  C   UNL A   1     -29.488 -10.984  30.961  0.00  0.00    -0.022 A 
ATOM      5  C   UNL A   1     -29.272 -11.606  28.411  0.00  0.00    +0.011 A 
ATOM      6  C   UNL A   1     -28.660 -11.797  29.770  0.00  0.00    -0.003 A 
ATOM      7 CL   UNL A   1     -30.901 -10.739  26.693  0.00  0.00    -0.082 Cl
ENDROOT
BRANCH   4   8
ATOM      8  C   UNL A   1     -28.741 -11.035  32.177  0.00  0.00    +0.033 C 
BRANCH   8   9
ATOM      9  C   UNL A   1     -27.775 -12.106  32.184  0.00  0.00    +0.054 C 
BRANCH   9  10
ATOM     10  C   UNL A   1     -26.910 -12.181  33.165  0.00  0.00    +0.096 C 
ATOM     11  N   UNL A   1     -27.431 -12.335  34.440  0.00  0.00    -0.151 NA
ENDBRANCH   9  10
ENDBRANCH   8   9
ENDBRANCH   4   8
TORSDOF 3
ENDMDL
ENDMDL
