REMARK  Name = No_4209-gen_results/8p0m/2024-11-26-14-13-15/
REMARK  1 active torsions:
REMARK  status: ('A' for Active; 'I' for Inactive)
REMARK    1  A    between atoms: C_5  and  C_17
REMARK                            x       y       z     vdW  Elec       q    Type
REMARK                         _______ _______ _______ _____ _____    ______ ____
ROOT
ATOM      1  C   UNL A   1     -28.016  -0.814  28.878  0.00  0.00    +0.003 A 
ATOM      2  C   UNL A   1     -27.064  -0.119  28.608  0.00  0.00    +0.035 A 
ATOM      3  C   UNL A   1     -26.972   0.714  27.506  0.00  0.00    +0.003 A 
ATOM      4  C   UNL A   1     -28.105   0.774  26.642  0.00  0.00    +0.007 A 
ATOM      5  C   UNL A   1     -29.204   0.118  27.048  0.00  0.00    +0.080 A 
ATOM      6  C   UNL A   1     -29.213  -0.609  28.128  0.00  0.00    +0.007 A 
ATOM      7  C   UNL A   1     -25.711   1.452  27.138  0.00  0.00    -0.001 A 
ATOM      8  C   UNL A   1     -24.605   0.925  27.690  0.00  0.00    -0.002 A 
ATOM      9  C   UNL A   1     -24.623   0.060  28.823  0.00  0.00    +0.085 C 
ATOM     10  C   UNL A   1     -25.727  -0.473  29.241  0.00  0.00    +0.177 C 
ATOM     11  C   UNL A   1     -23.273   1.679  27.428  0.00  0.00    +0.055 A 
ATOM     12  N   UNL A   1     -23.212   2.762  26.704  0.00  0.00    -0.248 NA
ATOM     13  C   UNL A   1     -21.980   1.068  27.636  0.00  0.00    +0.045 C 
ATOM     14  C   UNL A   1     -21.754   0.097  28.620  0.00  0.00    +0.007 C 
ATOM     15  C   UNL A   1     -23.101  -0.540  29.110  0.00  0.00    +0.013 C 
ATOM     16  O   UNL A   1     -25.662  -1.504  30.019  0.00  0.00    -0.291 OA
ATOM     17  C   UNL A   1     -25.811   2.522  26.169  0.00  0.00    +0.020 A 
ATOM     18  C   UNL A   1     -24.462   3.193  26.025  0.00  0.00    +0.098 A 
ENDROOT
BRANCH   5  19
ATOM     19  C   UNL A   1     -30.448   0.300  26.243  0.00  0.00    +0.388 C 
ATOM     20  O   UNL A   1     -31.477   0.247  26.652  0.00  0.00    -0.241 OA
ATOM     21  O   UNL A   1     -30.238   0.254  24.867  0.00  0.00    -0.241 OA
ENDBRANCH   5  19
TORSDOF 1
