MODEL 4209
MODEL 1
REMARK VINA RESULT:    -7.337      0.000      0.000
REMARK INTER + INTRA:          -7.869
REMARK INTER:                  -7.766
REMARK INTRA:                  -0.103
REMARK UNBOUND:                -0.103
REMARK  Name = No_4209-gen_results/8p0m/2024-11-26-14-13-15/
REMARK  1 active torsions:
REMARK  status: ('A' for Active; 'I' for Inactive)
REMARK    1  A    between atoms: C_5  and  C_17
REMARK                            x       y       z     vdW  Elec       q    Type
REMARK                         _______ _______ _______ _____ _____    ______ ____
ROOT
ATOM      1  C   UNL A   1     -29.809  -9.746  32.777  0.00  0.00    +0.003 A 
ATOM      2  C   UNL A   1     -30.152  -9.926  31.632  0.00  0.00    +0.035 A 
ATOM      3  C   UNL A   1     -29.518 -10.767  30.733  0.00  0.00    +0.003 A 
ATOM      4  C   UNL A   1     -28.389 -11.496  31.211  0.00  0.00    +0.007 A 
ATOM      5  C   UNL A   1     -28.126 -11.399  32.525  0.00  0.00    +0.080 A 
ATOM      6  C   UNL A   1     -28.808 -10.613  33.308  0.00  0.00    +0.007 A 
ATOM      7  C   UNL A   1     -29.899 -10.850  29.277  0.00  0.00    -0.001 A 
ATOM      8  C   UNL A   1     -30.584  -9.778  28.844  0.00  0.00    -0.002 A 
ATOM      9  C   UNL A   1     -31.260  -8.870  29.710  0.00  0.00    +0.085 C 
ATOM     10  C   UNL A   1     -31.049  -8.880  30.988  0.00  0.00    +0.177 C 
ATOM     11  C   UNL A   1     -31.089  -9.826  27.376  0.00  0.00    +0.055 A 
ATOM     12  N   UNL A   1     -30.859 -10.840  26.589  0.00  0.00    -0.248 NA
ATOM     13  C   UNL A   1     -31.511  -8.643  26.661  0.00  0.00    +0.045 C 
ATOM     14  C   UNL A   1     -32.107  -7.548  27.300  0.00  0.00    +0.007 C 
ATOM     15  C   UNL A   1     -31.836  -7.574  28.845  0.00  0.00    +0.013 C 
ATOM     16  O   UNL A   1     -31.388  -7.842  31.680  0.00  0.00    -0.291 OA
ATOM     17  C   UNL A   1     -29.396 -11.968  28.508  0.00  0.00    +0.020 A 
ATOM     18  C   UNL A   1     -29.980 -11.917  27.113  0.00  0.00    +0.098 A 
ENDROOT
BRANCH   5  19
ATOM     19  C   UNL A   1     -27.053 -12.278  33.076  0.00  0.00    +0.388 C 
ATOM     20  O   UNL A   1     -26.387 -12.920  32.464  0.00  0.00    -0.241 OA
ATOM     21  O   UNL A   1     -27.131 -12.463  34.454  0.00  0.00    -0.241 OA
ENDBRANCH   5  19
TORSDOF 1
ENDMDL
ENDMDL
