MODEL 420
MODEL 1
REMARK VINA RESULT:    -8.701      0.000      0.000
REMARK INTER + INTRA:         -11.706
REMARK INTER:                 -11.245
REMARK INTRA:                  -0.462
REMARK UNBOUND:                -0.462
REMARK  Name = No_420-gen_results/8p0m/2024-11-26-14-13-15/
REMARK  5 active torsions:
REMARK  status: ('A' for Active; 'I' for Inactive)
REMARK    1  A    between atoms: C_3  and  C_12
REMARK    2  A    between atoms: C_12  and  O_15
REMARK    3  A    between atoms: O_15  and  C_16
REMARK    4  A    between atoms: C_18  and  O_22
REMARK    5  A    between atoms: O_22  and  C_23
REMARK                            x       y       z     vdW  Elec       q    Type
REMARK                         _______ _______ _______ _____ _____    ______ ____
ROOT
ATOM      1  C   UNL A   1     -25.291   0.855  25.126  0.00  0.00    +0.330 C 
ATOM      2  O   UNL A   1     -24.554   0.364  24.529  0.00  0.00    -0.249 OA
ENDROOT
BRANCH   1   5
ATOM      3  O   UNL A   1     -26.902   3.008  25.252  0.00  0.00    -0.272 OA
ATOM      4  C   UNL A   1     -27.229   1.984  24.835  0.00  0.00    +0.258 C 
ATOM      5  C   UNL A   1     -26.878   0.964  24.729  0.00  0.00    +0.182 C 
ATOM      6  N   UNL A   1     -28.676   2.035  24.561  0.00  0.00    -0.160 NA
ATOM      7  C   UNL A   1     -29.369   0.871  24.097  0.00  0.00    +0.152 A 
ATOM      8  C   UNL A   1     -28.676  -0.300  24.007  0.00  0.00    +0.012 A 
ATOM      9  C   UNL A   1     -27.372  -0.344  24.344  0.00  0.00    +0.050 C 
ATOM     10  N   UNL A   1     -30.678   0.962  23.795  0.00  0.00    -0.211 NA
ATOM     11  C   UNL A   1     -31.320  -0.258  23.469  0.00  0.00    +0.171 A 
ATOM     12  C   UNL A   1     -30.737  -1.419  23.434  0.00  0.00    +0.037 A 
ATOM     13  C   UNL A   1     -29.449  -1.499  23.673  0.00  0.00    +0.002 A 
ATOM     14  N   UNL A   1     -32.696  -0.371  23.157  0.00  0.00    -0.107 NA
ENDBRANCH   1   5
BRANCH   1  15
ATOM     15  O   UNL A   1     -25.084   1.491  26.246  0.00  0.00    -0.424 OA
BRANCH  15  16
ATOM     16  C   UNL A   1     -24.178   0.956  27.159  0.00  0.00    +0.151 A 
ATOM     17  C   UNL A   1     -24.638   0.049  27.851  0.00  0.00    +0.075 A 
ATOM     18  C   UNL A   1     -23.773  -0.608  28.802  0.00  0.00    +0.148 A 
ATOM     19  C   UNL A   1     -22.435  -0.100  28.981  0.00  0.00    +0.038 A 
ATOM     20  C   UNL A   1     -22.057   0.934  28.146  0.00  0.00    +0.006 A 
ATOM     21  C   UNL A   1     -22.896   1.477  27.228  0.00  0.00    +0.038 A 
BRANCH  18  22
ATOM     22  O   UNL A   1     -24.191  -1.578  29.654  0.00  0.00    -0.453 OA
BRANCH  22  23
ATOM     23  C   UNL A   1     -24.422  -2.673  29.365  0.00  0.00    +0.145 A 
ATOM     24  C   UNL A   1     -23.826  -3.326  28.867  0.00  0.00    +0.037 A 
ATOM     25  C   UNL A   1     -25.783  -3.208  29.848  0.00  0.00    +0.037 A 
ATOM     26  C   UNL A   1     -26.153  -4.514  29.663  0.00  0.00    +0.003 A 
ATOM     27  C   UNL A   1     -24.073  -4.820  28.557  0.00  0.00    +0.003 A 
ATOM     28  C   UNL A   1     -25.266  -5.343  28.984  0.00  0.00    +0.000 A 
ENDBRANCH  22  23
ENDBRANCH  18  22
ENDBRANCH  15  16
ENDBRANCH   1  15
TORSDOF 5
ENDMDL
ENDMDL
