REMARK  Name = No_421-gen_results/8p0m/2024-11-26-14-13-15/
REMARK  3 active torsions:
REMARK  status: ('A' for Active; 'I' for Inactive)
REMARK    1  A    between atoms: C_3  and  C_7
REMARK    2  A    between atoms: C_7  and  C_8
REMARK    3  A    between atoms: C_11  and  C_14
REMARK                            x       y       z     vdW  Elec       q    Type
REMARK                         _______ _______ _______ _____ _____    ______ ____
ROOT
ATOM      1  C   UNL A   1     -26.016   0.424  26.824  0.00  0.00    -0.018 A 
ATOM      2  C   UNL A   1     -25.254   1.168  25.967  0.00  0.00    -0.004 A 
ATOM      3  C   UNL A   1     -23.875   1.312  26.128  0.00  0.00    +0.001 A 
ATOM      4  C   UNL A   1     -23.213   0.885  27.284  0.00  0.00    +0.021 A 
ATOM      5  C   UNL A   1     -24.002   0.168  28.229  0.00  0.00    +0.001 A 
ATOM      6  C   UNL A   1     -25.344  -0.004  28.034  0.00  0.00    -0.004 A 
ENDROOT
BRANCH   4   7
ATOM      7  C   UNL A   1     -21.851   1.208  27.600  0.00  0.00    +0.122 C 
ATOM      8  N   UNL A   1     -21.209   0.533  28.539  0.00  0.00    -0.146 NA
ENDBRANCH   4   7
BRANCH   1   9
ATOM      9  C   UNL A   1     -27.455   0.382  26.710  0.00  0.00    +0.053 C 
BRANCH   9  12
ATOM     10  C   UNL A   1     -28.016  -0.814  28.878  0.00  0.00    -0.004 A 
ATOM     11  C   UNL A   1     -28.469  -0.785  29.829  0.00  0.00    -0.000 A 
ATOM     12  C   UNL A   1     -28.196   0.348  28.055  0.00  0.00    -0.018 A 
ATOM     13  C   UNL A   1     -29.019   1.350  28.378  0.00  0.00    -0.004 A 
ATOM     14  C   UNL A   1     -29.625   1.268  29.601  0.00  0.00    -0.000 A 
ATOM     15  C   UNL A   1     -29.379   0.147  30.392  0.00  0.00    -0.000 A 
ENDBRANCH   9  12
ENDBRANCH   1   9
TORSDOF 3
