REMARK  Name = No_4210-gen_results/8p0m/2024-11-26-14-13-15/
REMARK  6 active torsions:
REMARK  status: ('A' for Active; 'I' for Inactive)
REMARK    1  A    between atoms: C_2  and  C_19
REMARK    2  A    between atoms: C_3  and  C_7
REMARK    3  A    between atoms: C_6  and  C_22
REMARK    4  A    between atoms: N_8  and  C_10
REMARK    5  A    between atoms: C_10  and  C_11
REMARK    6  A    between atoms: C_11  and  C_12
REMARK                            x       y       z     vdW  Elec       q    Type
REMARK                         _______ _______ _______ _____ _____    ______ ____
ROOT
ATOM      1  C   UNL A   1     -28.016  -0.814  28.878  0.00  0.00    +0.011 A 
ATOM      2  C   UNL A   1     -28.469  -0.785  29.829  0.00  0.00    +0.080 A 
ATOM      3  C   UNL A   1     -27.136   0.236  28.535  0.00  0.00    +0.055 A 
ATOM      4  C   UNL A   1     -26.875   1.282  29.398  0.00  0.00    +0.005 A 
ATOM      5  C   UNL A   1     -28.361   0.199  30.924  0.00  0.00    +0.007 A 
ATOM      6  C   UNL A   1     -27.528   1.223  30.636  0.00  0.00    +0.000 A 
ENDROOT
BRANCH   6   7
ATOM      7  C   UNL A   1     -27.308   2.345  31.608  0.00  0.00    +0.000 A 
ATOM      8  C   UNL A   1     -27.569   3.535  31.465  0.00  0.00    +0.000 A 
ATOM      9  C   UNL A   1     -27.234   4.565  32.350  0.00  0.00    +0.000 A 
ATOM     10  C   UNL A   1     -26.559   4.223  33.564  0.00  0.00    +0.000 A 
ATOM     11  C   UNL A   1     -26.194   2.918  33.765  0.00  0.00    +0.000 A 
ATOM     12  C   UNL A   1     -26.491   1.935  32.807  0.00  0.00    +0.000 A 
ENDBRANCH   6   7
BRANCH   3  13
ATOM     13  C   UNL A   1     -26.399   0.295  27.228  0.00  0.00    +0.265 C 
ATOM     14  N   UNL A   1     -25.148   0.129  27.379  0.00  0.00    -0.201 NA
ATOM     15  O   UNL A   1     -26.968   0.387  26.143  0.00  0.00    -0.268 OA
BRANCH  14  16
ATOM     16  C   UNL A   1     -24.259   0.255  26.173  0.00  0.00    +0.120 C 
BRANCH  16  17
ATOM     17  C   UNL A   1     -23.376   1.382  26.516  0.00  0.00    +0.044 C 
ATOM     18  C   UNL A   1     -23.950   2.764  26.401  0.00  0.00    +0.006 C 
BRANCH  17  19
ATOM     19  C   UNL A   1     -22.397   1.226  27.481  0.00  0.00    -0.021 A 
ATOM     20  C   UNL A   1     -21.470   2.278  27.662  0.00  0.00    -0.004 A 
ATOM     21  C   UNL A   1     -22.515   0.187  28.419  0.00  0.00    -0.004 A 
ATOM     22  C   UNL A   1     -21.436  -0.056  29.323  0.00  0.00    -0.000 A 
ATOM     23  C   UNL A   1     -20.351   1.825  28.509  0.00  0.00    -0.000 A 
ATOM     24  C   UNL A   1     -20.419   0.788  29.366  0.00  0.00    -0.000 A 
ENDBRANCH  17  19
ENDBRANCH  16  17
ENDBRANCH  14  16
ENDBRANCH   3  13
BRANCH   2  25
ATOM     25  C   UNL A   1     -29.419  -1.979  30.343  0.00  0.00    +0.388 C 
ATOM     26  O   UNL A   1     -29.997  -1.847  31.386  0.00  0.00    -0.241 OA
ATOM     27  O   UNL A   1     -29.366  -3.022  29.709  0.00  0.00    -0.241 OA
ENDBRANCH   2  25
TORSDOF 6
