MODEL 4211
MODEL 1
REMARK VINA RESULT:    -6.683      0.000      0.000
REMARK INTER + INTRA:          -7.383
REMARK INTER:                  -7.073
REMARK INTRA:                  -0.310
REMARK UNBOUND:                -0.310
REMARK  Name = No_4211-gen_results/8p0m/2024-11-26-14-13-15/
REMARK  1 active torsions:
REMARK  status: ('A' for Active; 'I' for Inactive)
REMARK    1  A    between atoms: C_3  and  C_7
REMARK                            x       y       z     vdW  Elec       q    Type
REMARK                         _______ _______ _______ _____ _____    ______ ____
ROOT
ATOM      1  C   UNL A   1     -21.522  -0.082  28.885  0.00  0.00    +0.000 A 
ATOM      2  C   UNL A   1     -22.123  -1.080  29.208  0.00  0.00    +0.000 A 
ATOM      3  C   UNL A   1     -23.442  -1.340  28.839  0.00  0.00    +0.000 A 
ATOM      4  C   UNL A   1     -24.170  -0.346  28.075  0.00  0.00    +0.000 A 
ATOM      5  C   UNL A   1     -23.446   0.798  27.741  0.00  0.00    +0.000 A 
ATOM      6  C   UNL A   1     -22.201   0.967  28.143  0.00  0.00    +0.000 A 
ENDROOT
BRANCH   3   7
ATOM      7  C   UNL A   1     -24.243  -2.548  29.191  0.00  0.00    +0.000 A 
ATOM      8  C   UNL A   1     -25.525  -2.530  29.474  0.00  0.00    +0.000 A 
ATOM      9  C   UNL A   1     -26.238  -3.713  29.777  0.00  0.00    +0.000 A 
ATOM     10  C   UNL A   1     -25.654  -4.956  29.401  0.00  0.00    +0.000 A 
ATOM     11  C   UNL A   1     -23.952  -3.943  28.800  0.00  0.00    +0.000 A 
ATOM     12  C   UNL A   1     -24.515  -5.020  28.985  0.00  0.00    +0.000 A 
ENDBRANCH   3   7
TORSDOF 1
ENDMDL
ENDMDL
