MODEL 4212
MODEL 1
REMARK VINA RESULT:    -5.204      0.000      0.000
REMARK INTER + INTRA:          -5.552
REMARK INTER:                  -5.508
REMARK INTRA:                  -0.044
REMARK UNBOUND:                -0.044
REMARK  Name = No_4212-gen_results/8p0m/2024-11-26-14-13-15/
REMARK  1 active torsions:
REMARK  status: ('A' for Active; 'I' for Inactive)
REMARK    1  A    between atoms: C_6  and  C_8
REMARK                            x       y       z     vdW  Elec       q    Type
REMARK                         _______ _______ _______ _____ _____    ______ ____
ROOT
ATOM      1  C   UNL A   1     -29.179 -10.334  32.679  0.00  0.00    +0.007 A 
ATOM      2  C   UNL A   1     -29.771 -10.032  31.668  0.00  0.00    +0.012 A 
ATOM      3  C   UNL A   1     -29.599 -10.686  30.449  0.00  0.00    +0.058 A 
ATOM      4  C   UNL A   1     -28.620 -11.752  30.352  0.00  0.00    +0.012 A 
ATOM      5  C   UNL A   1     -27.947 -12.053  31.535  0.00  0.00    +0.007 A 
ATOM      6  C   UNL A   1     -28.164 -11.374  32.644  0.00  0.00    +0.080 A 
ATOM      7 CL   UNL A   1     -30.417 -10.478  28.943  0.00  0.00    -0.082 Cl
ENDROOT
BRANCH   6   8
ATOM      8  C   UNL A   1     -27.344 -11.737  33.849  0.00  0.00    +0.388 C 
ATOM      9  O   UNL A   1     -26.757 -12.791  33.896  0.00  0.00    -0.241 OA
ATOM     10  O   UNL A   1     -26.920 -10.785  34.598  0.00  0.00    -0.241 OA
ENDBRANCH   6   8
TORSDOF 1
ENDMDL
ENDMDL
