MODEL 4213
MODEL 1
REMARK VINA RESULT:    -7.550      0.000      0.000
REMARK INTER + INTRA:         -14.632
REMARK INTER:                 -11.522
REMARK INTRA:                  -3.110
REMARK UNBOUND:                -3.110
REMARK  Name = No_4213-gen_results/8p0m/2024-11-26-14-13-15/
REMARK  9 active torsions:
REMARK  status: ('A' for Active; 'I' for Inactive)
REMARK    1  A    between atoms: C_2  and  C_23
REMARK    2  A    between atoms: C_3  and  C_7
REMARK    3  A    between atoms: C_6  and  C_26
REMARK    4  A    between atoms: C_12  and  C_13
REMARK    5  A    between atoms: C_14  and  C_19
REMARK    6  A    between atoms: C_23  and  O_25
REMARK    7  A    between atoms: O_25  and  C_29
REMARK    8  A    between atoms: C_29  and  C_30
REMARK    9  A    between atoms: N_32  and  C_33
REMARK                            x       y       z     vdW  Elec       q    Type
REMARK                         _______ _______ _______ _____ _____    ______ ____
ROOT
ATOM      1  C   UNL A   1     -25.288  -0.686  29.148  0.00  0.00    +0.006 A 
ATOM      2  C   UNL A   1     -26.037  -1.389  29.383  0.00  0.00    +0.076 A 
ATOM      3  C   UNL A   1     -24.073  -1.216  28.597  0.00  0.00    +0.000 A 
ATOM      4  C   UNL A   1     -23.813  -2.525  28.531  0.00  0.00    +0.007 A 
ATOM      5  C   UNL A   1     -25.969  -2.843  29.410  0.00  0.00    +0.013 A 
ATOM      6  C   UNL A   1     -24.843  -3.349  28.926  0.00  0.00    +0.080 A 
ENDROOT
BRANCH   3   7
ATOM      7  C   UNL A   1     -23.006  -0.211  28.145  0.00  0.00    -0.000 A 
ATOM      8  C   UNL A   1     -21.973  -0.052  28.624  0.00  0.00    -0.000 A 
ATOM      9  C   UNL A   1     -21.271   0.741  28.570  0.00  0.00    -0.000 A 
ATOM     10  C   UNL A   1     -21.541   1.886  27.568  0.00  0.00    -0.000 A 
ATOM     11  C   UNL A   1     -22.690   1.741  26.860  0.00  0.00    -0.000 A 
ATOM     12  C   UNL A   1     -23.521   0.737  27.160  0.00  0.00    -0.000 A 
BRANCH  12  13
ATOM     13  C   UNL A   1     -24.781   0.671  26.428  0.00  0.00    +0.004 A 
ATOM     14  C   UNL A   1     -25.846   1.543  26.816  0.00  0.00    +0.071 A 
ATOM     15  C   UNL A   1     -27.044   1.497  26.158  0.00  0.00    +0.004 A 
ATOM     16  C   UNL A   1     -27.325   0.499  25.218  0.00  0.00    -0.000 A 
ATOM     17  C   UNL A   1     -25.123  -0.275  25.483  0.00  0.00    -0.000 A 
ATOM     18  C   UNL A   1     -26.347  -0.397  24.885  0.00  0.00    -0.000 A 
BRANCH  14  19
ATOM     19  C   UNL A   1     -25.665   2.706  27.771  0.00  0.00    +0.419 C 
ATOM     20  F   UNL A   1     -26.892   3.269  27.936  0.00  0.00    -0.166 F 
ATOM     21  F   UNL A   1     -25.339   2.307  29.010  0.00  0.00    -0.166 F 
ATOM     22  F   UNL A   1     -24.881   3.673  27.291  0.00  0.00    -0.166 F 
ENDBRANCH  14  19
ENDBRANCH  12  13
ENDBRANCH   3   7
BRANCH   6  23
ATOM     23  C   UNL A   1     -24.612  -4.857  28.813  0.00  0.00    +0.388 C 
ATOM     24  O   UNL A   1     -23.879  -5.389  28.199  0.00  0.00    -0.241 OA
ATOM     25  O   UNL A   1     -25.383  -5.538  29.638  0.00  0.00    -0.241 OA
ENDBRANCH   6  23
BRANCH   2  26
ATOM     26  C   UNL A   1     -27.501  -0.928  29.937  0.00  0.00    +0.342 C 
ATOM     27  O   UNL A   1     -28.260  -0.529  29.223  0.00  0.00    -0.245 OA
BRANCH  26  28
ATOM     28  O   UNL A   1     -27.569  -0.995  31.239  0.00  0.00    -0.435 OA
BRANCH  28  29
ATOM     29  C   UNL A   1     -27.002   0.032  31.991  0.00  0.00    +0.293 C 
BRANCH  29  30
ATOM     30  C   UNL A   1     -26.478  -0.449  33.283  0.00  0.00    +0.270 C 
ATOM     31  O   UNL A   1     -27.124  -0.565  34.169  0.00  0.00    -0.271 OA
ATOM     32  N   UNL A   1     -25.164  -0.458  33.383  0.00  0.00    -0.275 N 
ATOM     33  C   UNL A   1     -24.611  -0.883  34.712  0.00  0.00    +0.115 C 
BRANCH  32  34
ATOM     34  C   UNL A   1     -24.141  -0.244  32.316  0.00  0.00    +0.094 C 
ATOM     35  C   UNL A   1     -23.280  -1.131  32.341  0.00  0.00    +0.023 C 
ENDBRANCH  32  34
ENDBRANCH  29  30
ENDBRANCH  28  29
ENDBRANCH  26  28
ENDBRANCH   2  26
TORSDOF 9
ENDMDL
ENDMDL
