REMARK  Name = No_4213-gen_results/8p0m/2024-11-26-14-13-15/
REMARK  9 active torsions:
REMARK  status: ('A' for Active; 'I' for Inactive)
REMARK    1  A    between atoms: C_2  and  C_23
REMARK    2  A    between atoms: C_3  and  C_7
REMARK    3  A    between atoms: C_6  and  C_26
REMARK    4  A    between atoms: C_12  and  C_13
REMARK    5  A    between atoms: C_14  and  C_19
REMARK    6  A    between atoms: C_23  and  O_25
REMARK    7  A    between atoms: O_25  and  C_29
REMARK    8  A    between atoms: C_29  and  C_30
REMARK    9  A    between atoms: N_32  and  C_33
REMARK                            x       y       z     vdW  Elec       q    Type
REMARK                         _______ _______ _______ _____ _____    ______ ____
ROOT
ATOM      1  C   UNL A   1     -28.016  -0.814  28.878  0.00  0.00    +0.006 A 
ATOM      2  C   UNL A   1     -28.469  -0.785  29.829  0.00  0.00    +0.076 A 
ATOM      3  C   UNL A   1     -28.196   0.348  28.055  0.00  0.00    +0.000 A 
ATOM      4  C   UNL A   1     -29.019   1.350  28.378  0.00  0.00    +0.007 A 
ATOM      5  C   UNL A   1     -29.411   0.180  30.378  0.00  0.00    +0.013 A 
ATOM      6  C   UNL A   1     -29.606   1.250  29.619  0.00  0.00    +0.080 A 
ENDROOT
BRANCH   3   7
ATOM      7  C   UNL A   1     -27.460   0.380  26.709  0.00  0.00    -0.000 A 
ATOM      8  C   UNL A   1     -27.930   0.584  25.680  0.00  0.00    -0.000 A 
ATOM      9  C   UNL A   1     -27.599   0.399  24.690  0.00  0.00    -0.000 A 
ATOM     10  C   UNL A   1     -26.155  -0.115  24.489  0.00  0.00    -0.000 A 
ATOM     11  C   UNL A   1     -25.464  -0.285  25.644  0.00  0.00    -0.000 A 
ATOM     12  C   UNL A   1     -26.094  -0.126  26.813  0.00  0.00    -0.000 A 
BRANCH  12  13
ATOM     13  C   UNL A   1     -25.331  -0.400  28.026  0.00  0.00    +0.004 A 
ATOM     14  C   UNL A   1     -24.805   0.703  28.769  0.00  0.00    +0.071 A 
ATOM     15  C   UNL A   1     -24.074   0.479  29.904  0.00  0.00    +0.004 A 
ATOM     16  C   UNL A   1     -23.676  -0.810  30.276  0.00  0.00    -0.000 A 
ATOM     17  C   UNL A   1     -24.913  -1.642  28.460  0.00  0.00    -0.000 A 
ATOM     18  C   UNL A   1     -24.102  -1.878  29.536  0.00  0.00    -0.000 A 
BRANCH  14  19
ATOM     19  C   UNL A   1     -25.203   2.143  28.518  0.00  0.00    +0.419 C 
ATOM     20  F   UNL A   1     -24.125   2.754  27.958  0.00  0.00    -0.166 F 
ATOM     21  F   UNL A   1     -26.148   2.257  27.572  0.00  0.00    -0.166 F 
ATOM     22  F   UNL A   1     -25.471   2.824  29.634  0.00  0.00    -0.166 F 
ENDBRANCH  14  19
ENDBRANCH  12  13
ENDBRANCH   3   7
BRANCH   6  23
ATOM     23  C   UNL A   1     -30.512   2.403  30.057  0.00  0.00    +0.388 C 
ATOM     24  O   UNL A   1     -31.047   2.525  31.004  0.00  0.00    -0.241 OA
ATOM     25  O   UNL A   1     -30.553   3.367  29.159  0.00  0.00    -0.241 OA
ENDBRANCH   6  23
BRANCH   2  26
ATOM     26  C   UNL A   1     -28.281  -1.996  30.905  0.00  0.00    +0.342 C 
ATOM     27  O   UNL A   1     -28.247  -1.764  31.996  0.00  0.00    -0.245 OA
BRANCH  26  28
ATOM     28  O   UNL A   1     -28.083  -3.143  30.314  0.00  0.00    -0.435 OA
BRANCH  28  29
ATOM     29  C   UNL A   1     -28.609  -4.294  30.898  0.00  0.00    +0.293 C 
BRANCH  29  30
ATOM     30  C   UNL A   1     -29.997  -4.551  30.469  0.00  0.00    +0.270 C 
ATOM     31  O   UNL A   1     -30.325  -4.393  29.429  0.00  0.00    -0.271 OA
ATOM     32  N   UNL A   1     -30.864  -4.704  31.450  0.00  0.00    -0.275 N 
ATOM     33  C   UNL A   1     -32.293  -4.902  31.035  0.00  0.00    +0.115 C 
BRANCH  32  34
ATOM     34  C   UNL A   1     -30.608  -4.852  32.913  0.00  0.00    +0.094 C 
ATOM     35  C   UNL A   1     -30.468  -6.041  33.222  0.00  0.00    +0.023 C 
ENDBRANCH  32  34
ENDBRANCH  29  30
ENDBRANCH  28  29
ENDBRANCH  26  28
ENDBRANCH   2  26
TORSDOF 9
