MODEL 4214
MODEL 1
REMARK VINA RESULT:    -8.078      0.000      0.000
REMARK INTER + INTRA:          -9.942
REMARK INTER:                  -9.022
REMARK INTRA:                  -0.920
REMARK UNBOUND:                -0.920
REMARK  Name = No_4214-gen_results/8p0m/2024-11-26-14-13-15/
REMARK  2 active torsions:
REMARK  status: ('A' for Active; 'I' for Inactive)
REMARK    1  A    between atoms: C_1  and  C_2
REMARK    2  A    between atoms: C_4  and  C_11
REMARK                            x       y       z     vdW  Elec       q    Type
REMARK                         _______ _______ _______ _____ _____    ______ ____
ROOT
ATOM      1  C   UNL A   1     -24.130   0.718  26.823  0.00  0.00    +0.071 A 
ATOM      2  C   UNL A   1     -24.550  -0.520  27.298  0.00  0.00    +0.005 A 
ATOM      3  C   UNL A   1     -24.202  -1.121  28.617  0.00  0.00    +0.011 A 
ATOM      4  C   UNL A   1     -23.225  -0.420  29.384  0.00  0.00    +0.058 A 
ATOM      5  C   UNL A   1     -22.768   0.804  28.856  0.00  0.00    +0.011 A 
ATOM      6  C   UNL A   1     -23.161   1.321  27.683  0.00  0.00    +0.005 A 
ATOM      7 CL   UNL A   1     -22.779  -1.098  30.849  0.00  0.00    -0.082 Cl
ENDROOT
BRANCH   3   8
ATOM      8  C   UNL A   1     -24.723  -2.426  29.036  0.00  0.00    +0.003 A 
ATOM      9  C   UNL A   1     -24.276  -3.545  28.580  0.00  0.00    +0.030 A 
ATOM     10  C   UNL A   1     -25.888  -2.282  29.911  0.00  0.00    +0.000 A 
ATOM     11  C   UNL A   1     -24.949  -4.783  29.007  0.00  0.00    +0.140 A 
ATOM     12  C   UNL A   1     -26.361  -1.093  30.438  0.00  0.00    +0.000 A 
ATOM     13  F   UNL A   1     -24.303  -5.824  28.561  0.00  0.00    -0.204 F 
ATOM     14  C   UNL A   1     -27.711  -0.831  30.599  0.00  0.00    +0.000 A 
ATOM     15  C   UNL A   1     -28.363  -2.087  30.897  0.00  0.00    +0.000 A 
ATOM     16  C   UNL A   1     -27.954  -3.321  30.469  0.00  0.00    +0.000 A 
ATOM     17  C   UNL A   1     -26.672  -3.442  29.972  0.00  0.00    +0.002 A 
ATOM     18  C   UNL A   1     -26.094  -4.705  29.645  0.00  0.00    +0.030 A 
ENDBRANCH   3   8
BRANCH   1  19
ATOM     19  C   UNL A   1     -24.478   1.121  25.737  0.00  0.00    +0.419 C 
ATOM     20  F   UNL A   1     -24.717   0.227  24.934  0.00  0.00    -0.166 F 
ATOM     21  F   UNL A   1     -23.465   1.960  25.165  0.00  0.00    -0.166 F 
ATOM     22  F   UNL A   1     -25.487   1.997  25.779  0.00  0.00    -0.166 F 
ENDBRANCH   1  19
TORSDOF 2
ENDMDL
ENDMDL
