REMARK  Name = No_4214-gen_results/8p0m/2024-11-26-14-13-15/
REMARK  2 active torsions:
REMARK  status: ('A' for Active; 'I' for Inactive)
REMARK    1  A    between atoms: C_1  and  C_2
REMARK    2  A    between atoms: C_4  and  C_11
REMARK                            x       y       z     vdW  Elec       q    Type
REMARK                         _______ _______ _______ _____ _____    ______ ____
ROOT
ATOM      1  C   UNL A   1     -27.064  -0.119  28.608  0.00  0.00    +0.071 A 
ATOM      2  C   UNL A   1     -25.792  -0.430  29.076  0.00  0.00    +0.005 A 
ATOM      3  C   UNL A   1     -24.546   0.349  28.823  0.00  0.00    +0.011 A 
ATOM      4  C   UNL A   1     -24.659   1.420  27.888  0.00  0.00    +0.058 A 
ATOM      5  C   UNL A   1     -25.947   1.681  27.379  0.00  0.00    +0.011 A 
ATOM      6  C   UNL A   1     -27.044   0.974  27.687  0.00  0.00    +0.005 A 
ATOM      7 CL   UNL A   1     -23.263   2.282  27.548  0.00  0.00    -0.082 Cl
ENDROOT
BRANCH   3   8
ATOM      8  C   UNL A   1     -23.254  -0.050  29.390  0.00  0.00    +0.003 A 
ATOM      9  C   UNL A   1     -22.198  -0.240  28.677  0.00  0.00    +0.030 A 
ATOM     10  C   UNL A   1     -23.363  -0.336  30.822  0.00  0.00    +0.000 A 
ATOM     11  C   UNL A   1     -20.987  -0.733  29.354  0.00  0.00    +0.140 A 
ATOM     12  C   UNL A   1     -24.476  -0.105  31.610  0.00  0.00    +0.000 A 
ATOM     13  F   UNL A   1     -19.983  -0.752  28.523  0.00  0.00    -0.204 F 
ATOM     14  C   UNL A   1     -24.856  -0.955  32.635  0.00  0.00    +0.000 A 
ATOM     15  C   UNL A   1     -23.650  -1.518  33.200  0.00  0.00    +0.000 A 
ATOM     16  C   UNL A   1     -22.481  -1.743  32.525  0.00  0.00    +0.000 A 
ATOM     17  C   UNL A   1     -22.310  -1.126  31.302  0.00  0.00    +0.002 A 
ATOM     18  C   UNL A   1     -21.074  -1.168  30.590  0.00  0.00    +0.030 A 
ENDBRANCH   3   8
BRANCH   1  19
ATOM     19  C   UNL A   1     -28.016  -0.814  28.878  0.00  0.00    +0.419 C 
ATOM     20  F   UNL A   1     -28.995  -0.603  28.173  0.00  0.00    -0.166 F 
ATOM     21  F   UNL A   1     -28.412  -0.616  30.243  0.00  0.00    -0.166 F 
ATOM     22  F   UNL A   1     -27.740  -2.122  28.920  0.00  0.00    -0.166 F 
ENDBRANCH   1  19
TORSDOF 2
