REMARK  Name = No_4215-gen_results/8p0m/2024-11-26-14-13-15/
REMARK  4 active torsions:
REMARK  status: ('A' for Active; 'I' for Inactive)
REMARK    1  A    between atoms: C_3  and  C_7
REMARK    2  A    between atoms: C_7  and  C_8
REMARK    3  A    between atoms: C_8  and  C_9
REMARK    4  A    between atoms: C_10  and  C_11
REMARK                            x       y       z     vdW  Elec       q    Type
REMARK                         _______ _______ _______ _____ _____    ______ ____
ROOT
ATOM      1  C   UNL A   1     -26.399   0.295  27.228  0.00  0.00    +0.031 C 
ENDROOT
BRANCH   1   4
ATOM      2  C   UNL A   1     -28.016  -0.814  28.878  0.00  0.00    -0.004 A 
ATOM      3  C   UNL A   1     -28.469  -0.785  29.829  0.00  0.00    -0.000 A 
ATOM      4  C   UNL A   1     -27.136   0.236  28.535  0.00  0.00    -0.022 A 
ATOM      5  C   UNL A   1     -26.875   1.282  29.398  0.00  0.00    -0.004 A 
ATOM      6  C   UNL A   1     -28.361   0.199  30.924  0.00  0.00    -0.000 A 
ATOM      7  C   UNL A   1     -27.528   1.223  30.636  0.00  0.00    -0.000 A 
ENDBRANCH   1   4
BRANCH   1   8
ATOM      8  C   UNL A   1     -26.902   0.728  26.213  0.00  0.00    +0.031 C 
BRANCH   8   9
ATOM      9  C   UNL A   1     -28.175   1.265  26.176  0.00  0.00    -0.026 C 
ATOM     10  C   UNL A   1     -29.082   0.971  25.813  0.00  0.00    -0.005 C 
BRANCH  10  11
ATOM     11  C   UNL A   1     -29.264  -0.432  25.329  0.00  0.00    -0.005 C 
ATOM     12  C   UNL A   1     -29.987  -0.573  24.122  0.00  0.00    -0.026 C 
ATOM     13  C   UNL A   1     -31.014   0.326  23.789  0.00  0.00    +0.031 C 
ENDBRANCH  10  11
ENDBRANCH   8   9
ENDBRANCH   1   8
TORSDOF 4
