MODEL 4215
MODEL 1
REMARK VINA RESULT:    -6.153      0.000      0.000
REMARK INTER + INTRA:          -8.154
REMARK INTER:                  -7.592
REMARK INTRA:                  -0.561
REMARK UNBOUND:                -0.561
REMARK  Name = No_4215-gen_results/8p0m/2024-11-26-14-13-15/
REMARK  4 active torsions:
REMARK  status: ('A' for Active; 'I' for Inactive)
REMARK    1  A    between atoms: C_3  and  C_7
REMARK    2  A    between atoms: C_7  and  C_8
REMARK    3  A    between atoms: C_8  and  C_9
REMARK    4  A    between atoms: C_10  and  C_11
REMARK                            x       y       z     vdW  Elec       q    Type
REMARK                         _______ _______ _______ _____ _____    ______ ____
ROOT
ATOM      1  C   UNL A   1     -23.245  -1.666  29.043  0.00  0.00    +0.031 C 
ENDROOT
BRANCH   1   4
ATOM      2  C   UNL A   1     -25.560  -2.411  29.850  0.00  0.00    -0.004 A 
ATOM      3  C   UNL A   1     -26.251  -3.200  29.951  0.00  0.00    -0.000 A 
ATOM      4  C   UNL A   1     -24.304  -2.705  29.276  0.00  0.00    -0.022 A 
ATOM      5  C   UNL A   1     -23.968  -3.980  28.867  0.00  0.00    -0.004 A 
ATOM      6  C   UNL A   1     -26.148  -4.629  29.597  0.00  0.00    -0.000 A 
ATOM      7  C   UNL A   1     -24.959  -4.954  29.045  0.00  0.00    -0.000 A 
ENDBRANCH   1   4
BRANCH   1   8
ATOM      8  C   UNL A   1     -23.487  -0.584  28.551  0.00  0.00    +0.031 C 
BRANCH   8   9
ATOM      9  C   UNL A   1     -22.520   0.382  28.348  0.00  0.00    -0.026 C 
ATOM     10  C   UNL A   1     -22.479   1.289  27.883  0.00  0.00    -0.005 C 
BRANCH  10  11
ATOM     11  C   UNL A   1     -23.743   1.932  27.407  0.00  0.00    -0.005 C 
ATOM     12  C   UNL A   1     -23.851   2.104  26.008  0.00  0.00    -0.026 C 
ATOM     13  C   UNL A   1     -22.711   2.341  25.221  0.00  0.00    +0.031 C 
ENDBRANCH  10  11
ENDBRANCH   8   9
ENDBRANCH   1   8
TORSDOF 4
ENDMDL
ENDMDL
