REMARK  Name = No_4216-gen_results/8p0m/2024-11-26-14-13-15/
REMARK  4 active torsions:
REMARK  status: ('A' for Active; 'I' for Inactive)
REMARK    1  A    between atoms: C_3  and  C_4
REMARK    2  A    between atoms: C_4  and  C_13
REMARK    3  A    between atoms: C_5  and  C_6
REMARK    4  A    between atoms: C_7  and  C_9
REMARK                            x       y       z     vdW  Elec       q    Type
REMARK                         _______ _______ _______ _____ _____    ______ ____
ROOT
ATOM      1  C   UNL A   1     -27.450   0.643  26.850  0.00  0.00    -0.026 C 
ATOM      2  C   UNL A   1     -26.453   0.994  26.668  0.00  0.00    -0.025 C 
ATOM      3  C   UNL A   1     -26.519   2.607  26.370  0.00  0.00    +0.031 C 
ENDROOT
BRANCH   1   6
ATOM      4  C   UNL A   1     -28.016  -0.814  28.878  0.00  0.00    -0.000 A 
ATOM      5  C   UNL A   1     -28.469  -0.785  29.829  0.00  0.00    -0.000 A 
ATOM      6  C   UNL A   1     -28.182   0.428  28.113  0.00  0.00    -0.004 A 
ATOM      7  C   UNL A   1     -29.437   0.078  30.444  0.00  0.00    -0.000 A 
ATOM      8  C   UNL A   1     -29.677   1.188  29.734  0.00  0.00    -0.000 A 
ATOM      9  C   UNL A   1     -29.058   1.397  28.551  0.00  0.00    -0.000 A 
ENDBRANCH   1   6
BRANCH   2  10
ATOM     10  C   UNL A   1     -25.181   0.862  26.817  0.00  0.00    +0.004 C 
ATOM     11  C   UNL A   1     -24.204   1.046  27.487  0.00  0.00    +0.051 C 
BRANCH  11  12
ATOM     12  C   UNL A   1     -23.207   1.172  27.898  0.00  0.00    -0.029 C 
ATOM     13  C   UNL A   1     -22.202   1.126  28.242  0.00  0.00    +0.111 C 
ATOM     14  F   UNL A   1     -21.179   1.465  27.793  0.00  0.00    -0.143 F 
ENDBRANCH  11  12
ENDBRANCH   2  10
BRANCH   1  15
ATOM     15  C   UNL A   1     -28.361   0.166  25.714  0.00  0.00    +0.026 C 
ATOM     16  C   UNL A   1     -29.424   1.113  25.381  0.00  0.00    +0.005 C 
ENDBRANCH   1  15
TORSDOF 4
