MODEL 4216
MODEL 1
REMARK VINA RESULT:    -6.761      0.000      0.000
REMARK INTER + INTRA:          -9.318
REMARK INTER:                  -8.342
REMARK INTRA:                  -0.977
REMARK UNBOUND:                -0.977
REMARK  Name = No_4216-gen_results/8p0m/2024-11-26-14-13-15/
REMARK  4 active torsions:
REMARK  status: ('A' for Active; 'I' for Inactive)
REMARK    1  A    between atoms: C_3  and  C_4
REMARK    2  A    between atoms: C_4  and  C_13
REMARK    3  A    between atoms: C_5  and  C_6
REMARK    4  A    between atoms: C_7  and  C_9
REMARK                            x       y       z     vdW  Elec       q    Type
REMARK                         _______ _______ _______ _____ _____    ______ ____
ROOT
ATOM      1  C   UNL A   1     -24.297  -1.311  29.579  0.00  0.00    -0.026 C 
ATOM      2  C   UNL A   1     -23.920  -0.591  28.879  0.00  0.00    -0.025 C 
ATOM      3  C   UNL A   1     -22.280  -0.603  28.959  0.00  0.00    +0.031 C 
ENDROOT
BRANCH   1   6
ATOM      4  C   UNL A   1     -23.858  -3.659  28.657  0.00  0.00    -0.000 A 
ATOM      5  C   UNL A   1     -24.186  -4.658  28.721  0.00  0.00    -0.000 A 
ATOM      6  C   UNL A   1     -24.710  -2.715  29.390  0.00  0.00    -0.004 A 
ATOM      7  C   UNL A   1     -25.416  -5.277  29.127  0.00  0.00    -0.000 A 
ATOM      8  C   UNL A   1     -26.258  -4.427  29.729  0.00  0.00    -0.000 A 
ATOM      9  C   UNL A   1     -25.931  -3.124  29.880  0.00  0.00    -0.000 A 
ENDBRANCH   1   6
BRANCH   2  10
ATOM     10  C   UNL A   1     -24.071   0.107  27.808  0.00  0.00    +0.004 C 
ATOM     11  C   UNL A   1     -23.629   0.918  27.043  0.00  0.00    +0.051 C 
BRANCH  11  12
ATOM     12  C   UNL A   1     -23.447   1.672  26.283  0.00  0.00    -0.029 C 
ATOM     13  C   UNL A   1     -23.143   2.473  25.654  0.00  0.00    +0.111 C 
ATOM     14  F   UNL A   1     -22.393   2.559  24.764  0.00  0.00    -0.143 F 
ENDBRANCH  11  12
ENDBRANCH   2  10
BRANCH   1  15
ATOM     15  C   UNL A   1     -24.592  -0.947  31.038  0.00  0.00    +0.026 C 
ATOM     16  C   UNL A   1     -25.206   0.370  31.198  0.00  0.00    +0.005 C 
ENDBRANCH   1  15
TORSDOF 4
ENDMDL
ENDMDL
