MODEL 4217
MODEL 1
REMARK VINA RESULT:    -6.541      0.000      0.000
REMARK INTER + INTRA:          -7.276
REMARK INTER:                  -6.923
REMARK INTRA:                  -0.353
REMARK UNBOUND:                -0.353
REMARK  Name = No_4217-gen_results/8p0m/2024-11-26-14-13-15/
REMARK  1 active torsions:
REMARK  status: ('A' for Active; 'I' for Inactive)
REMARK    1  A    between atoms: C_2  and  C_7
REMARK                            x       y       z     vdW  Elec       q    Type
REMARK                         _______ _______ _______ _____ _____    ______ ____
ROOT
ATOM      1  C   UNL A   1     -24.029  -3.800  28.824  0.00  0.00    +0.000 A 
ATOM      2  C   UNL A   1     -24.395  -2.677  29.084  0.00  0.00    +0.000 A 
ATOM      3  C   UNL A   1     -25.639  -2.442  29.658  0.00  0.00    +0.000 A 
ATOM      4  C   UNL A   1     -26.551  -3.526  29.920  0.00  0.00    +0.000 A 
ATOM      5  C   UNL A   1     -26.057  -4.789  29.567  0.00  0.00    +0.000 A 
ATOM      6  C   UNL A   1     -24.879  -4.956  29.011  0.00  0.00    +0.000 A 
ENDROOT
BRANCH   2   7
ATOM      7  C   UNL A   1     -23.599  -1.441  28.857  0.00  0.00    +0.000 A 
ATOM      8  C   UNL A   1     -22.454  -1.174  29.186  0.00  0.00    +0.000 A 
ATOM      9  C   UNL A   1     -21.716   0.037  28.803  0.00  0.00    +0.000 A 
ATOM     10  C   UNL A   1     -22.411   0.978  28.015  0.00  0.00    +0.000 A 
ATOM     11  C   UNL A   1     -24.248  -0.423  27.997  0.00  0.00    +0.000 A 
ATOM     12  C   UNL A   1     -23.656   0.697  27.635  0.00  0.00    +0.000 A 
ENDBRANCH   2   7
TORSDOF 1
ENDMDL
ENDMDL
