MODEL 4218
MODEL 1
REMARK VINA RESULT:    -6.510      0.000      0.000
REMARK INTER + INTRA:          -6.510
REMARK INTER:                  -6.510
REMARK INTRA:                   0.000
REMARK UNBOUND:                 0.000
REMARK  Name = No_4218-gen_results/8p0m/2024-11-26-14-13-15/
REMARK  0 active torsions:
REMARK  status: ('A' for Active; 'I' for Inactive)
REMARK                            x       y       z     vdW  Elec       q    Type
REMARK                         _______ _______ _______ _____ _____    ______ ____
ROOT
ATOM      1  C   UNL A   1     -26.569  -3.406  29.940  0.00  0.00    +0.003 A 
ATOM      2  C   UNL A   1     -25.752  -2.617  29.524  0.00  0.00    +0.035 A 
ATOM      3  C   UNL A   1     -25.969  -1.241  29.465  0.00  0.00    +0.195 C 
ATOM      4  C   UNL A   1     -25.037  -0.212  28.963  0.00  0.00    +0.035 A 
ATOM      5  C   UNL A   1     -23.705  -0.655  28.701  0.00  0.00    -0.015 A 
ATOM      6  C   UNL A   1     -22.758   0.270  28.262  0.00  0.00    -0.004 A 
ATOM      7  C   UNL A   1     -23.104   1.628  28.241  0.00  0.00    -0.000 A 
ATOM      8  C   UNL A   1     -24.379   2.063  28.512  0.00  0.00    +0.000 A 
ATOM      9  C   UNL A   1     -25.344   1.116  28.919  0.00  0.00    +0.003 A 
ATOM     10  C   UNL A   1     -26.438  -4.799  29.661  0.00  0.00    +0.000 A 
ATOM     11  C   UNL A   1     -25.182  -5.252  29.284  0.00  0.00    -0.000 A 
ATOM     12  C   UNL A   1     -24.185  -4.371  28.996  0.00  0.00    -0.004 A 
ATOM     13  C   UNL A   1     -24.402  -3.005  29.019  0.00  0.00    -0.015 A 
ATOM     14  C   UNL A   1     -23.434  -2.048  28.670  0.00  0.00    +0.053 C 
ATOM     15  O   UNL A   1     -27.100  -0.751  29.934  0.00  0.00    -0.287 OA
ENDROOT
TORSDOF 0
ENDMDL
ENDMDL
