MODEL 4219
MODEL 1
REMARK VINA RESULT:    -5.380      0.000      0.000
REMARK INTER + INTRA:          -5.948
REMARK INTER:                  -6.009
REMARK INTRA:                   0.061
REMARK UNBOUND:                 0.061
REMARK  Name = No_4219-gen_results/8p0m/2024-11-26-14-13-15/
REMARK  2 active torsions:
REMARK  status: ('A' for Active; 'I' for Inactive)
REMARK    1  A    between atoms: C_1  and  C_2
REMARK    2  A    between atoms: C_1  and  C_8
REMARK                            x       y       z     vdW  Elec       q    Type
REMARK                         _______ _______ _______ _____ _____    ______ ____
ROOT
ATOM      1  C   UNL A   1     -24.744  -2.560  29.446  0.00  0.00    -0.013 A 
ATOM      2  C   UNL A   1     -25.973  -3.067  29.821  0.00  0.00    -0.004 A 
ATOM      3  C   UNL A   1     -26.245  -4.430  29.728  0.00  0.00    -0.000 A 
ATOM      4  C   UNL A   1     -25.360  -5.350  29.028  0.00  0.00    -0.000 A 
ATOM      5  C   UNL A   1     -24.139  -4.806  28.597  0.00  0.00    -0.000 A 
ATOM      6  C   UNL A   1     -23.858  -3.503  28.874  0.00  0.00    -0.004 A 
ENDROOT
BRANCH   1   7
ATOM      7  C   UNL A   1     -24.267  -1.549  29.908  0.00  0.00    +0.113 C 
BRANCH   7   8
ATOM      8  C   UNL A   1     -23.232  -0.955  28.977  0.00  0.00    +0.246 C 
ATOM      9  N   UNL A   1     -22.167  -0.744  29.301  0.00  0.00    -0.203 NA
ATOM     10  C   UNL A   1     -21.331   0.077  28.611  0.00  0.00    +0.139 C 
ATOM     11  O   UNL A   1     -23.736  -0.314  27.921  0.00  0.00    -0.273 OA
ENDBRANCH   7   8
ENDBRANCH   1   7
TORSDOF 2
ENDMDL
ENDMDL
