REMARK  Name = No_4219-gen_results/8p0m/2024-11-26-14-13-15/
REMARK  2 active torsions:
REMARK  status: ('A' for Active; 'I' for Inactive)
REMARK    1  A    between atoms: C_1  and  C_2
REMARK    2  A    between atoms: C_1  and  C_8
REMARK                            x       y       z     vdW  Elec       q    Type
REMARK                         _______ _______ _______ _____ _____    ______ ____
ROOT
ATOM      1  C   UNL A   1     -27.064  -0.119  28.608  0.00  0.00    -0.013 A 
ATOM      2  C   UNL A   1     -27.001   0.691  27.491  0.00  0.00    -0.004 A 
ATOM      3  C   UNL A   1     -25.777   1.021  26.913  0.00  0.00    -0.000 A 
ATOM      4  C   UNL A   1     -24.509   0.736  27.569  0.00  0.00    -0.000 A 
ATOM      5  C   UNL A   1     -24.593  -0.036  28.739  0.00  0.00    -0.000 A 
ATOM      6  C   UNL A   1     -25.811  -0.477  29.158  0.00  0.00    -0.004 A 
ENDROOT
BRANCH   1   7
ATOM      7  C   UNL A   1     -28.016  -0.814  28.878  0.00  0.00    +0.113 C 
BRANCH   7   8
ATOM      8  C   UNL A   1     -28.641  -0.402  30.194  0.00  0.00    +0.246 C 
ATOM      9  N   UNL A   1     -28.503   0.629  30.641  0.00  0.00    -0.203 NA
ATOM     10  C   UNL A   1     -28.763   0.913  31.945  0.00  0.00    +0.139 C 
ATOM     11  O   UNL A   1     -28.995  -1.418  30.984  0.00  0.00    -0.273 OA
ENDBRANCH   7   8
ENDBRANCH   1   7
TORSDOF 2
