MODEL 421
MODEL 1
REMARK VINA RESULT:    -6.397      0.000      0.000
REMARK INTER + INTRA:          -7.987
REMARK INTER:                  -7.519
REMARK INTRA:                  -0.468
REMARK UNBOUND:                -0.468
REMARK  Name = No_421-gen_results/8p0m/2024-11-26-14-13-15/
REMARK  3 active torsions:
REMARK  status: ('A' for Active; 'I' for Inactive)
REMARK    1  A    between atoms: C_3  and  C_7
REMARK    2  A    between atoms: C_7  and  C_8
REMARK    3  A    between atoms: C_11  and  C_14
REMARK                            x       y       z     vdW  Elec       q    Type
REMARK                         _______ _______ _______ _____ _____    ______ ____
ROOT
ATOM      1  C   UNL A   1     -23.904  -1.792  29.421  0.00  0.00    -0.018 A 
ATOM      2  C   UNL A   1     -23.900  -3.048  28.882  0.00  0.00    -0.004 A 
ATOM      3  C   UNL A   1     -25.013  -3.889  28.941  0.00  0.00    +0.001 A 
ATOM      4  C   UNL A   1     -26.128  -3.592  29.731  0.00  0.00    +0.021 A 
ATOM      5  C   UNL A   1     -26.126  -2.315  30.363  0.00  0.00    +0.001 A 
ATOM      6  C   UNL A   1     -25.046  -1.483  30.258  0.00  0.00    -0.004 A 
ENDROOT
BRANCH   4   7
ATOM      7  C   UNL A   1     -27.191  -4.515  30.007  0.00  0.00    +0.122 C 
ATOM      8  N   UNL A   1     -28.441  -4.089  30.074  0.00  0.00    -0.146 NA
ENDBRANCH   4   7
BRANCH   1   9
ATOM      9  C   UNL A   1     -22.709  -0.982  29.454  0.00  0.00    +0.053 C 
BRANCH   9  12
ATOM     10  C   UNL A   1     -23.856   0.357  27.627  0.00  0.00    -0.004 A 
ATOM     11  C   UNL A   1     -23.826   1.165  26.951  0.00  0.00    -0.000 A 
ATOM     12  C   UNL A   1     -22.659   0.117  28.382  0.00  0.00    -0.018 A 
ATOM     13  C   UNL A   1     -21.509   0.755  28.147  0.00  0.00    -0.004 A 
ATOM     14  C   UNL A   1     -21.543   1.739  27.198  0.00  0.00    -0.000 A 
ATOM     15  C   UNL A   1     -22.741   1.976  26.527  0.00  0.00    -0.000 A 
ENDBRANCH   9  12
ENDBRANCH   1   9
TORSDOF 3
ENDMDL
ENDMDL
