MODEL 4220
MODEL 1
REMARK VINA RESULT:    -7.353      0.000      0.000
REMARK INTER + INTRA:          -8.803
REMARK INTER:                  -8.213
REMARK INTRA:                  -0.590
REMARK UNBOUND:                -0.590
REMARK  Name = No_4220-gen_results/8p0m/2024-11-26-14-13-15/
REMARK  2 active torsions:
REMARK  status: ('A' for Active; 'I' for Inactive)
REMARK    1  A    between atoms: C_3  and  C_11
REMARK    2  A    between atoms: C_5  and  C_7
REMARK                            x       y       z     vdW  Elec       q    Type
REMARK                         _______ _______ _______ _____ _____    ______ ____
ROOT
ATOM      1  C   UNL A   1     -21.935  -0.047  29.146  0.00  0.00    -0.000 A 
ATOM      2  C   UNL A   1     -22.556  -1.076  29.279  0.00  0.00    -0.000 A 
ATOM      3  C   UNL A   1     -23.746  -1.377  28.639  0.00  0.00    -0.000 A 
ATOM      4  C   UNL A   1     -24.258  -0.403  27.731  0.00  0.00    +0.004 A 
ATOM      5  C   UNL A   1     -23.466   0.662  27.494  0.00  0.00    +0.071 A 
ATOM      6  C   UNL A   1     -22.289   0.813  28.104  0.00  0.00    +0.004 A 
ENDROOT
BRANCH   3   7
ATOM      7  C   UNL A   1     -24.570  -2.599  29.002  0.00  0.00    -0.000 A 
ATOM      8  C   UNL A   1     -25.781  -2.363  29.534  0.00  0.00    -0.000 A 
ATOM      9  C   UNL A   1     -26.565  -3.594  29.948  0.00  0.00    -0.000 A 
ATOM     10  C   UNL A   1     -26.122  -4.850  29.586  0.00  0.00    +0.000 A 
ATOM     11  C   UNL A   1     -24.142  -3.897  28.753  0.00  0.00    -0.000 A 
ATOM     12  C   UNL A   1     -24.866  -5.012  29.123  0.00  0.00    -0.000 A 
ENDBRANCH   3   7
BRANCH   5  13
ATOM     13  C   UNL A   1     -24.005   1.626  26.514  0.00  0.00    +0.419 C 
ATOM     14  F   UNL A   1     -25.069   1.999  26.764  0.00  0.00    -0.166 F 
ATOM     15  F   UNL A   1     -23.115   2.626  26.390  0.00  0.00    -0.166 F 
ATOM     16  F   UNL A   1     -24.057   1.032  25.271  0.00  0.00    -0.166 F 
ENDBRANCH   5  13
TORSDOF 2
ENDMDL
ENDMDL
