REMARK  Name = No_4220-gen_results/8p0m/2024-11-26-14-13-15/
REMARK  2 active torsions:
REMARK  status: ('A' for Active; 'I' for Inactive)
REMARK    1  A    between atoms: C_3  and  C_11
REMARK    2  A    between atoms: C_5  and  C_7
REMARK                            x       y       z     vdW  Elec       q    Type
REMARK                         _______ _______ _______ _____ _____    ______ ____
ROOT
ATOM      1  C   UNL A   1     -28.016  -0.814  28.878  0.00  0.00    -0.000 A 
ATOM      2  C   UNL A   1     -27.064  -0.119  28.608  0.00  0.00    -0.000 A 
ATOM      3  C   UNL A   1     -26.972   0.714  27.506  0.00  0.00    -0.000 A 
ATOM      4  C   UNL A   1     -28.105   0.774  26.642  0.00  0.00    +0.004 A 
ATOM      5  C   UNL A   1     -29.201   0.104  27.053  0.00  0.00    +0.071 A 
ATOM      6  C   UNL A   1     -29.210  -0.603  28.185  0.00  0.00    +0.004 A 
ENDROOT
BRANCH   3   7
ATOM      7  C   UNL A   1     -25.675   1.405  27.124  0.00  0.00    -0.000 A 
ATOM      8  C   UNL A   1     -24.579   1.027  27.803  0.00  0.00    -0.000 A 
ATOM      9  C   UNL A   1     -23.304   1.771  27.453  0.00  0.00    -0.000 A 
ATOM     10  C   UNL A   1     -23.272   2.612  26.359  0.00  0.00    +0.000 A 
ATOM     11  C   UNL A   1     -25.591   2.334  26.095  0.00  0.00    -0.000 A 
ATOM     12  C   UNL A   1     -24.425   2.999  25.775  0.00  0.00    -0.000 A 
ENDBRANCH   3   7
BRANCH   5  13
ATOM     13  C   UNL A   1     -30.370   0.226  26.160  0.00  0.00    +0.419 C 
ATOM     14  F   UNL A   1     -31.174  -0.586  26.331  0.00  0.00    -0.166 F 
ATOM     15  F   UNL A   1     -30.853   1.474  26.284  0.00  0.00    -0.166 F 
ATOM     16  F   UNL A   1     -29.956   0.127  24.849  0.00  0.00    -0.166 F 
ENDBRANCH   5  13
TORSDOF 2
