REMARK  Name = No_4221-gen_results/8p0m/2024-11-26-14-13-15/
REMARK  7 active torsions:
REMARK  status: ('A' for Active; 'I' for Inactive)
REMARK    1  A    between atoms: C_2  and  C_5
REMARK    2  A    between atoms: C_9  and  C_16
REMARK    3  A    between atoms: C_10  and  C_19
REMARK    4  A    between atoms: C_19  and  C_20
REMARK    5  A    between atoms: C_21  and  C_22
REMARK    6  A    between atoms: C_23  and  C_24
REMARK    7  A    between atoms: C_25  and  C_26
REMARK                            x       y       z     vdW  Elec       q    Type
REMARK                         _______ _______ _______ _____ _____    ______ ____
ROOT
ATOM      1  C   UNL A   1     -27.163   0.705  29.514  0.00  0.00    +0.132 A 
ATOM      2  N   UNL A   1     -27.358   1.518  28.914  0.00  0.00    -0.223 NA
ATOM      3  C   UNL A   1     -27.338   2.699  29.101  0.00  0.00    +0.170 A 
ATOM      4  C   UNL A   1     -27.161   3.140  30.328  0.00  0.00    +0.033 A 
ATOM      5  C   UNL A   1     -26.802   0.690  30.949  0.00  0.00    -0.004 A 
ATOM      6  C   UNL A   1     -26.696   2.117  31.395  0.00  0.00    -0.017 A 
ATOM      7  N   UNL A   1     -27.626   3.659  28.187  0.00  0.00    -0.107 NA
ENDROOT
BRANCH   1   9
ATOM      8  O   UNL A   1     -28.123  -1.335  28.487  0.00  0.00    -0.268 OA
ATOM      9  C   UNL A   1     -27.064  -0.824  28.869  0.00  0.00    +0.267 C 
ATOM     10  N   UNL A   1     -25.977  -1.138  28.814  0.00  0.00    -0.275 N 
ATOM     11  C   UNL A   1     -25.537  -2.364  28.423  0.00  0.00    +0.094 C 
ATOM     12  C   UNL A   1     -24.050  -2.647  29.131  0.00  0.00    +0.022 C 
ATOM     13  C   UNL A   1     -23.262  -1.493  29.133  0.00  0.00    +0.004 C 
ATOM     14  C   UNL A   1     -23.745  -0.167  29.107  0.00  0.00    +0.022 C 
ATOM     15  C   UNL A   1     -25.040  -0.047  29.044  0.00  0.00    +0.094 C 
ENDBRANCH   1   9
BRANCH   5  16
ATOM     16  C   UNL A   1     -26.827  -0.357  31.865  0.00  0.00    +0.024 C 
ATOM     17  C   UNL A   1     -25.633  -0.510  32.640  0.00  0.00    +0.005 C 
ATOM     18  C   UNL A   1     -27.948  -1.136  31.984  0.00  0.00    +0.005 C 
ENDBRANCH   5  16
BRANCH   6  19
ATOM     19  C   UNL A   1     -26.337   2.525  32.743  0.00  0.00    +0.052 C 
BRANCH  19  20
ATOM     20  C   UNL A   1     -27.165   3.370  33.427  0.00  0.00    -0.021 C 
ATOM     21  C   UNL A   1     -28.085   3.210  33.810  0.00  0.00    -0.004 C 
BRANCH  21  22
ATOM     22  C   UNL A   1     -28.757   1.930  33.843  0.00  0.00    -0.000 C 
ATOM     23  C   UNL A   1     -29.815   1.726  33.980  0.00  0.00    -0.000 C 
BRANCH  23  24
ATOM     24  C   UNL A   1     -30.392   0.386  33.895  0.00  0.00    -0.000 C 
ATOM     25  C   UNL A   1     -31.123  -0.097  34.417  0.00  0.00    -0.000 C 
BRANCH  25  26
ATOM     26  C   UNL A   1     -31.509  -1.508  34.274  0.00  0.00    -0.005 C 
ATOM     27  C   UNL A   1     -30.896  -2.188  33.279  0.00  0.00    -0.026 C 
ATOM     28  C   UNL A   1     -30.044  -1.581  32.449  0.00  0.00    +0.031 C 
ENDBRANCH  25  26
ENDBRANCH  23  24
ENDBRANCH  21  22
ENDBRANCH  19  20
ENDBRANCH   6  19
TORSDOF 7
