MODEL 4221
MODEL 1
REMARK VINA RESULT:    -6.697      0.000      0.000
REMARK INTER + INTRA:         -10.727
REMARK INTER:                  -9.437
REMARK INTRA:                  -1.290
REMARK UNBOUND:                -1.290
REMARK  Name = No_4221-gen_results/8p0m/2024-11-26-14-13-15/
REMARK  7 active torsions:
REMARK  status: ('A' for Active; 'I' for Inactive)
REMARK    1  A    between atoms: C_2  and  C_5
REMARK    2  A    between atoms: C_9  and  C_16
REMARK    3  A    between atoms: C_10  and  C_19
REMARK    4  A    between atoms: C_19  and  C_20
REMARK    5  A    between atoms: C_21  and  C_22
REMARK    6  A    between atoms: C_23  and  C_24
REMARK    7  A    between atoms: C_25  and  C_26
REMARK                            x       y       z     vdW  Elec       q    Type
REMARK                         _______ _______ _______ _____ _____    ______ ____
ROOT
ATOM      1  C   UNL A   1     -23.948   1.265  28.312  0.00  0.00    +0.132 A 
ATOM      2  N   UNL A   1     -22.953   1.377  28.076  0.00  0.00    -0.223 NA
ATOM      3  C   UNL A   1     -21.996   0.671  28.204  0.00  0.00    +0.170 A 
ATOM      4  C   UNL A   1     -22.123  -0.446  28.887  0.00  0.00    +0.033 A 
ATOM      5  C   UNL A   1     -24.609   0.126  28.987  0.00  0.00    -0.004 A 
ATOM      6  C   UNL A   1     -23.560  -0.918  29.225  0.00  0.00    -0.017 A 
ATOM      7  N   UNL A   1     -20.726   0.971  27.833  0.00  0.00    -0.107 NA
ENDROOT
BRANCH   1   9
ATOM      8  O   UNL A   1     -25.193   3.403  28.455  0.00  0.00    -0.268 OA
ATOM      9  C   UNL A   1     -25.076   2.369  27.787  0.00  0.00    +0.267 C 
ATOM     10  N   UNL A   1     -25.526   2.010  26.812  0.00  0.00    -0.275 N 
ATOM     11  C   UNL A   1     -26.544   2.621  26.150  0.00  0.00    +0.094 C 
ATOM     12  C   UNL A   1     -27.346   1.477  25.233  0.00  0.00    +0.022 C 
ATOM     13  C   UNL A   1     -26.450   0.582  24.642  0.00  0.00    +0.004 C 
ATOM     14  C   UNL A   1     -25.166   0.262  25.131  0.00  0.00    +0.022 C 
ATOM     15  C   UNL A   1     -24.805   0.897  26.209  0.00  0.00    +0.094 C 
ENDBRANCH   1   9
BRANCH   5  16
ATOM     16  C   UNL A   1     -25.859   0.050  29.593  0.00  0.00    +0.024 C 
ATOM     17  C   UNL A   1     -26.880  -0.560  28.796  0.00  0.00    +0.005 C 
ATOM     18  C   UNL A   1     -26.032   0.523  30.867  0.00  0.00    +0.005 C 
ENDBRANCH   5  16
BRANCH   6  19
ATOM     19  C   UNL A   1     -23.817  -2.204  29.851  0.00  0.00    +0.052 C 
BRANCH  19  20
ATOM     20  C   UNL A   1     -23.880  -3.325  29.071  0.00  0.00    -0.021 C 
ATOM     21  C   UNL A   1     -24.626  -3.993  28.953  0.00  0.00    -0.004 C 
BRANCH  21  22
ATOM     22  C   UNL A   1     -25.951  -3.864  29.518  0.00  0.00    -0.000 C 
ATOM     23  C   UNL A   1     -26.660  -4.649  29.763  0.00  0.00    -0.000 C 
BRANCH  23  24
ATOM     24  C   UNL A   1     -27.938  -4.399  30.427  0.00  0.00    -0.000 C 
ATOM     25  C   UNL A   1     -28.340  -3.583  30.888  0.00  0.00    -0.000 C 
BRANCH  25  26
ATOM     26  C   UNL A   1     -29.616  -3.535  31.617  0.00  0.00    -0.005 C 
ATOM     27  C   UNL A   1     -29.948  -2.334  32.143  0.00  0.00    -0.026 C 
ATOM     28  C   UNL A   1     -29.125  -1.287  32.050  0.00  0.00    +0.031 C 
ENDBRANCH  25  26
ENDBRANCH  23  24
ENDBRANCH  21  22
ENDBRANCH  19  20
ENDBRANCH   6  19
TORSDOF 7
ENDMDL
ENDMDL
