MODEL 4222
MODEL 1
REMARK VINA RESULT:    -7.621      0.000      0.000
REMARK INTER + INTRA:         -13.651
REMARK INTER:                 -11.631
REMARK INTRA:                  -2.020
REMARK UNBOUND:                -2.020
REMARK  Name = No_4222-gen_results/8p0m/2024-11-26-14-13-15/
REMARK  9 active torsions:
REMARK  status: ('A' for Active; 'I' for Inactive)
REMARK    1  A    between atoms: C_3  and  C_7
REMARK    2  A    between atoms: C_6  and  C_11
REMARK    3  A    between atoms: C_7  and  C_8
REMARK    4  A    between atoms: C_7  and  C_23
REMARK    5  A    between atoms: N_12  and  C_13
REMARK    6  A    between atoms: C_18  and  C_20
REMARK    7  A    between atoms: C_23  and  C_24
REMARK    8  A    between atoms: C_24  and  C_26
REMARK    9  A    between atoms: C_27  and  C_28
REMARK                            x       y       z     vdW  Elec       q    Type
REMARK                         _______ _______ _______ _____ _____    ______ ____
ROOT
ATOM      1  C   UNL A   1     -27.496   0.395  26.553  0.00  0.00    +0.004 A 
ATOM      2  C   UNL A   1     -26.514   0.573  27.236  0.00  0.00    -0.004 A 
ATOM      3  C   UNL A   1     -25.210   0.476  26.752  0.00  0.00    -0.014 A 
ATOM      4  C   UNL A   1     -24.996   0.084  25.372  0.00  0.00    -0.004 A 
ATOM      5  C   UNL A   1     -26.187  -0.116  24.639  0.00  0.00    +0.004 A 
ATOM      6  C   UNL A   1     -27.373  -0.007  25.184  0.00  0.00    +0.055 A 
ENDROOT
BRANCH   6   7
ATOM      7  C   UNL A   1     -28.572  -0.314  24.335  0.00  0.00    +0.269 C 
ATOM      8  N   UNL A   1     -29.713   0.203  24.667  0.00  0.00    -0.175 NA
ATOM      9  O   UNL A   1     -28.588  -1.125  23.546  0.00  0.00    -0.268 OA
BRANCH   8  10
ATOM     10  C   UNL A   1     -30.391   0.891  23.788  0.00  0.00    +0.074 A 
ATOM     11  C   UNL A   1     -30.144   2.011  23.455  0.00  0.00    +0.017 A 
ATOM     12  C   UNL A   1     -31.620   0.162  23.211  0.00  0.00    +0.017 A 
ATOM     13  C   UNL A   1     -30.898   2.816  22.445  0.00  0.00    +0.008 A 
ATOM     14  C   UNL A   1     -32.375   0.894  22.266  0.00  0.00    +0.008 A 
ATOM     15  C   UNL A   1     -32.023   2.174  21.925  0.00  0.00    +0.080 A 
BRANCH  15  16
ATOM     16  C   UNL A   1     -32.821   2.938  20.938  0.00  0.00    +0.388 C 
ATOM     17  O   UNL A   1     -33.774   3.249  20.906  0.00  0.00    -0.241 OA
ATOM     18  O   UNL A   1     -31.931   3.306  19.889  0.00  0.00    -0.241 OA
ENDBRANCH  15  16
ENDBRANCH   8  10
ENDBRANCH   6   7
BRANCH   3  19
ATOM     19  C   UNL A   1     -23.960   0.692  27.528  0.00  0.00    +0.096 C 
BRANCH  19  20
ATOM     20  C   UNL A   1     -23.239   1.843  27.430  0.00  0.00    +0.234 C 
ATOM     21 CL   UNL A   1     -21.616   1.820  27.095  0.00  0.00    -0.043 Cl
ATOM     22  O   UNL A   1     -23.725   3.006  27.732  0.00  0.00    -0.279 OA
ENDBRANCH  19  20
BRANCH  19  23
ATOM     23  C   UNL A   1     -23.440  -0.386  28.339  0.00  0.00    +0.017 C 
BRANCH  23  24
ATOM     24  C   UNL A   1     -23.951  -0.513  29.664  0.00  0.00    +0.023 C 
ATOM     25  C   UNL A   1     -23.562   0.478  30.569  0.00  0.00    +0.005 C 
BRANCH  24  26
ATOM     26  C   UNL A   1     -24.868  -1.493  29.998  0.00  0.00    -0.026 C 
ATOM     27  C   UNL A   1     -25.303  -2.384  29.237  0.00  0.00    -0.005 C 
BRANCH  27  28
ATOM     28  C   UNL A   1     -25.986  -3.590  29.644  0.00  0.00    -0.005 C 
ATOM     29  C   UNL A   1     -25.330  -4.807  29.195  0.00  0.00    -0.026 C 
ATOM     30  C   UNL A   1     -24.074  -4.770  28.534  0.00  0.00    +0.031 C 
ENDBRANCH  27  28
ENDBRANCH  24  26
ENDBRANCH  23  24
ENDBRANCH  19  23
ENDBRANCH   3  19
TORSDOF 9
ENDMDL
ENDMDL
