REMARK  Name = No_4222-gen_results/8p0m/2024-11-26-14-13-15/
REMARK  9 active torsions:
REMARK  status: ('A' for Active; 'I' for Inactive)
REMARK    1  A    between atoms: C_3  and  C_7
REMARK    2  A    between atoms: C_6  and  C_11
REMARK    3  A    between atoms: C_7  and  C_8
REMARK    4  A    between atoms: C_7  and  C_23
REMARK    5  A    between atoms: N_12  and  C_13
REMARK    6  A    between atoms: C_18  and  C_20
REMARK    7  A    between atoms: C_23  and  C_24
REMARK    8  A    between atoms: C_24  and  C_26
REMARK    9  A    between atoms: C_27  and  C_28
REMARK                            x       y       z     vdW  Elec       q    Type
REMARK                         _______ _______ _______ _____ _____    ______ ____
ROOT
ATOM      1  C   UNL A   1     -28.016  -0.814  28.878  0.00  0.00    +0.004 A 
ATOM      2  C   UNL A   1     -27.064  -0.119  28.608  0.00  0.00    -0.004 A 
ATOM      3  C   UNL A   1     -25.765  -0.390  29.036  0.00  0.00    -0.014 A 
ATOM      4  C   UNL A   1     -25.530  -1.530  29.901  0.00  0.00    -0.004 A 
ATOM      5  C   UNL A   1     -26.689  -2.289  30.181  0.00  0.00    +0.004 A 
ATOM      6  C   UNL A   1     -27.873  -1.951  29.737  0.00  0.00    +0.055 A 
ENDROOT
BRANCH   6   7
ATOM      7  C   UNL A   1     -29.050  -2.784  30.155  0.00  0.00    +0.269 C 
ATOM      8  N   UNL A   1     -29.346  -2.848  31.415  0.00  0.00    -0.175 NA
ATOM      9  O   UNL A   1     -29.570  -3.518  29.469  0.00  0.00    -0.268 OA
BRANCH   8  10
ATOM     10  C   UNL A   1     -30.556  -2.558  31.810  0.00  0.00    +0.074 A 
ATOM     11  C   UNL A   1     -31.425  -2.137  31.107  0.00  0.00    +0.017 A 
ATOM     12  C   UNL A   1     -30.802  -2.749  33.319  0.00  0.00    +0.017 A 
ATOM     13  C   UNL A   1     -32.820  -1.807  31.532  0.00  0.00    +0.008 A 
ATOM     14  C   UNL A   1     -32.103  -2.429  33.770  0.00  0.00    +0.008 A 
ATOM     15  C   UNL A   1     -33.053  -1.960  32.900  0.00  0.00    +0.080 A 
BRANCH  15  16
ATOM     16  C   UNL A   1     -34.413  -1.622  33.379  0.00  0.00    +0.388 C 
ATOM     17  O   UNL A   1     -35.337  -1.900  33.103  0.00  0.00    -0.241 OA
ATOM     18  O   UNL A   1     -34.250  -0.767  34.506  0.00  0.00    -0.241 OA
ENDBRANCH  15  16
ENDBRANCH   8  10
ENDBRANCH   6   7
BRANCH   3  19
ATOM     19  C   UNL A   1     -24.549   0.410  28.734  0.00  0.00    +0.096 C 
BRANCH  19  20
ATOM     20  C   UNL A   1     -24.093   1.378  29.576  0.00  0.00    +0.234 C 
ATOM     21 CL   UNL A   1     -24.955   1.835  30.916  0.00  0.00    -0.043 Cl
ATOM     22  O   UNL A   1     -23.048   2.101  29.318  0.00  0.00    -0.279 OA
ENDBRANCH  19  20
BRANCH  19  23
ATOM     23  C   UNL A   1     -23.882   0.224  27.465  0.00  0.00    +0.017 C 
BRANCH  23  24
ATOM     24  C   UNL A   1     -24.023   1.259  26.494  0.00  0.00    +0.023 C 
ATOM     25  C   UNL A   1     -23.013   2.225  26.476  0.00  0.00    +0.005 C 
BRANCH  24  26
ATOM     26  C   UNL A   1     -25.037   1.240  25.554  0.00  0.00    -0.026 C 
ATOM     27  C   UNL A   1     -25.386   0.255  24.868  0.00  0.00    -0.005 C 
BRANCH  27  28
ATOM     28  C   UNL A   1     -26.628   0.123  24.142  0.00  0.00    -0.005 C 
ATOM     29  C   UNL A   1     -27.570   1.199  24.405  0.00  0.00    -0.026 C 
ATOM     30  C   UNL A   1     -27.212   2.317  25.205  0.00  0.00    +0.031 C 
ENDBRANCH  27  28
ENDBRANCH  24  26
ENDBRANCH  23  24
ENDBRANCH  19  23
ENDBRANCH   3  19
TORSDOF 9
