REMARK  Name = No_4223-gen_results/8p0m/2024-11-26-14-13-15/
REMARK  3 active torsions:
REMARK  status: ('A' for Active; 'I' for Inactive)
REMARK    1  A    between atoms: C_3  and  C_7
REMARK    2  A    between atoms: C_7  and  C_8
REMARK    3  A    between atoms: C_7  and  C_9
REMARK                            x       y       z     vdW  Elec       q    Type
REMARK                         _______ _______ _______ _____ _____    ______ ____
ROOT
ATOM      1  C   UNL A   1     -28.016  -0.814  28.878  0.00  0.00    -0.004 A 
ATOM      2  C   UNL A   1     -28.469  -0.785  29.829  0.00  0.00    -0.000 A 
ATOM      3  C   UNL A   1     -27.136   0.236  28.535  0.00  0.00    -0.017 A 
ATOM      4  C   UNL A   1     -26.875   1.282  29.398  0.00  0.00    -0.004 A 
ATOM      5  C   UNL A   1     -27.507   1.238  30.630  0.00  0.00    -0.000 A 
ATOM      6  C   UNL A   1     -28.329   0.174  30.935  0.00  0.00    -0.000 A 
ENDROOT
BRANCH   3   7
ATOM      7  C   UNL A   1     -26.408   0.307  27.226  0.00  0.00    +0.066 C 
BRANCH   7   8
ATOM      8  C   UNL A   1     -26.875   0.839  26.213  0.00  0.00    +0.100 C 
ATOM      9  N   UNL A   1     -26.255   0.644  25.003  0.00  0.00    -0.151 NA
ENDBRANCH   7   8
BRANCH   7  10
ATOM     10  C   UNL A   1     -25.081  -0.288  27.183  0.00  0.00    +0.010 C 
ATOM     11  C   UNL A   1     -24.514  -0.858  28.474  0.00  0.00    +0.001 C 
ENDBRANCH   7  10
ENDBRANCH   3   7
TORSDOF 3
