MODEL 4223
MODEL 1
REMARK VINA RESULT:    -5.189      0.000      0.000
REMARK INTER + INTRA:          -6.432
REMARK INTER:                  -6.099
REMARK INTRA:                  -0.334
REMARK UNBOUND:                -0.334
REMARK  Name = No_4223-gen_results/8p0m/2024-11-26-14-13-15/
REMARK  3 active torsions:
REMARK  status: ('A' for Active; 'I' for Inactive)
REMARK    1  A    between atoms: C_3  and  C_7
REMARK    2  A    between atoms: C_7  and  C_8
REMARK    3  A    between atoms: C_7  and  C_9
REMARK                            x       y       z     vdW  Elec       q    Type
REMARK                         _______ _______ _______ _____ _____    ______ ____
ROOT
ATOM      1  C   UNL A   1     -23.844  -3.765  28.932  0.00  0.00    -0.004 A 
ATOM      2  C   UNL A   1     -24.444  -4.626  28.839  0.00  0.00    -0.000 A 
ATOM      3  C   UNL A   1     -24.399  -2.643  29.585  0.00  0.00    -0.017 A 
ATOM      4  C   UNL A   1     -25.688  -2.649  30.080  0.00  0.00    -0.004 A 
ATOM      5  C   UNL A   1     -26.405  -3.823  29.920  0.00  0.00    -0.000 A 
ATOM      6  C   UNL A   1     -25.809  -4.906  29.309  0.00  0.00    -0.000 A 
ENDROOT
BRANCH   3   7
ATOM      7  C   UNL A   1     -23.649  -1.363  29.806  0.00  0.00    +0.066 C 
BRANCH   7   8
ATOM      8  C   UNL A   1     -22.916  -0.846  28.955  0.00  0.00    +0.100 C 
ATOM      9  N   UNL A   1     -21.555  -1.002  29.053  0.00  0.00    -0.151 NA
ENDBRANCH   7   8
BRANCH   7  10
ATOM     10  C   UNL A   1     -23.818  -0.721  31.100  0.00  0.00    +0.010 C 
ATOM     11  C   UNL A   1     -23.010  -1.256  32.272  0.00  0.00    +0.001 C 
ENDBRANCH   7  10
ENDBRANCH   3   7
TORSDOF 3
ENDMDL
ENDMDL
