MODEL 4224
MODEL 1
REMARK VINA RESULT:    -6.810      0.000      0.000
REMARK INTER + INTRA:         -13.007
REMARK INTER:                 -11.189
REMARK INTRA:                  -1.818
REMARK UNBOUND:                -1.818
REMARK  Name = No_4224-gen_results/8p0m/2024-11-26-14-13-15/
REMARK  11 active torsions:
REMARK  status: ('A' for Active; 'I' for Inactive)
REMARK    1  A    between atoms: C_2  and  C_7
REMARK    2  A    between atoms: C_4  and  C_18
REMARK    3  A    between atoms: C_7  and  P_8
REMARK    4  A    between atoms: P_8  and  O_11
REMARK    5  A    between atoms: O_11  and  C_12
REMARK    6  A    between atoms: C_12  and  C_13
REMARK    7  A    between atoms: C_12  and  O_17
REMARK    8  A    between atoms: C_13  and  C_14
REMARK    9  A    between atoms: O_17  and  C_32
REMARK   10  A    between atoms: C_18  and  C_19
REMARK   11  A    between atoms: C_19  and  C_20
REMARK                            x       y       z     vdW  Elec       q    Type
REMARK                         _______ _______ _______ _____ _____    ______ ____
ROOT
ATOM      1  C   UNL A   1     -25.254   0.323  25.714  0.00  0.00    -0.004 A 
ATOM      2  C   UNL A   1     -24.827   1.102  26.280  0.00  0.00    -0.010 A 
ATOM      3  C   UNL A   1     -26.514   0.682  24.960  0.00  0.00    -0.004 A 
ATOM      4  C   UNL A   1     -26.948   2.025  24.939  0.00  0.00    -0.015 A 
ATOM      5  C   UNL A   1     -25.052   2.560  26.401  0.00  0.00    -0.004 A 
ATOM      6  C   UNL A   1     -26.200   2.930  25.715  0.00  0.00    -0.004 A 
ENDROOT
BRANCH   2   7
ATOM      7  C   UNL A   1     -23.479   0.752  27.081  0.00  0.00    +0.144 C 
BRANCH   7   8
ATOM      8  P   UNL A   1     -23.729   0.639  28.821  0.00  0.00    +0.377 P 
ATOM      9  O   UNL A   1     -24.201   1.679  29.259  0.00  0.00    -0.255 OA
ATOM     10  O   UNL A   1     -22.352   0.326  29.322  0.00  0.00    -0.139 OA
BRANCH   8  11
ATOM     11  O   UNL A   1     -24.605  -0.648  28.927  0.00  0.00    -0.253 OA
BRANCH  11  12
ATOM     12  C   UNL A   1     -25.419  -1.059  29.710  0.00  0.00    +0.334 C 
BRANCH  12  13
ATOM     13  C   UNL A   1     -26.761  -0.900  29.165  0.00  0.00    +0.286 C 
ATOM     14  O   UNL A   1     -27.646  -1.985  29.672  0.00  0.00    -0.208 OA
BRANCH  13  15
ATOM     15  C   UNL A   1     -27.433   0.235  29.398  0.00  0.00    +0.247 C 
ATOM     16  O   UNL A   1     -27.627   0.981  28.428  0.00  0.00    -0.285 OA
ENDBRANCH  13  15
ENDBRANCH  12  13
BRANCH  12  17
ATOM     17  O   UNL A   1     -25.245  -2.484  29.985  0.00  0.00    -0.442 OA
BRANCH  17  18
ATOM     18  C   UNL A   1     -24.247  -3.147  29.341  0.00  0.00    +0.235 C 
ATOM     19  C   UNL A   1     -24.625  -4.238  28.765  0.00  0.00    +0.316 C 
ATOM     20  F   UNL A   1     -23.611  -4.807  28.227  0.00  0.00    -0.169 F 
ATOM     21  F   UNL A   1     -25.114  -5.207  29.644  0.00  0.00    -0.169 F 
ENDBRANCH  17  18
ENDBRANCH  12  17
ENDBRANCH  11  12
ENDBRANCH   8  11
ENDBRANCH   7   8
ENDBRANCH   2   7
BRANCH   4  22
ATOM     22  C   UNL A   1     -28.128   2.408  24.219  0.00  0.00    +0.096 C 
BRANCH  22  23
ATOM     23  C   UNL A   1     -29.341   2.157  24.941  0.00  0.00    +0.180 C 
ATOM     24  O   UNL A   1     -29.539   2.781  26.090  0.00  0.00    -0.291 OA
BRANCH  23  25
ATOM     25  C   UNL A   1     -30.230   1.197  24.506  0.00  0.00    +0.074 A 
ATOM     26  C   UNL A   1     -30.179  -0.006  25.008  0.00  0.00    +0.198 A 
ATOM     27  C   UNL A   1     -31.062  -1.069  24.453  0.00  0.00    +0.042 A 
ATOM     28  C   UNL A   1     -31.890  -0.709  23.392  0.00  0.00    +0.003 A 
ATOM     29  C   UNL A   1     -31.086   1.304  23.371  0.00  0.00    +0.006 A 
ATOM     30  C   UNL A   1     -31.856   0.428  22.875  0.00  0.00    +0.000 A 
ATOM     31  C   UNL A   1     -32.726   0.732  21.694  0.00  0.00    +0.000 A 
ATOM     32  C   UNL A   1     -32.688   2.025  21.118  0.00  0.00    +0.000 A 
ATOM     33  C   UNL A   1     -31.701   2.697  21.185  0.00  0.00    +0.000 A 
ATOM     34  C   UNL A   1     -30.835   2.571  22.474  0.00  0.00    +0.000 A 
ATOM     35  O   UNL A   1     -29.451  -0.367  26.051  0.00  0.00    -0.286 OA
ENDBRANCH  23  25
ENDBRANCH  22  23
ENDBRANCH   4  22
TORSDOF 11
ENDMDL
ENDMDL
