REMARK  Name = No_4224-gen_results/8p0m/2024-11-26-14-13-15/
REMARK  11 active torsions:
REMARK  status: ('A' for Active; 'I' for Inactive)
REMARK    1  A    between atoms: C_2  and  C_7
REMARK    2  A    between atoms: C_4  and  C_18
REMARK    3  A    between atoms: C_7  and  P_8
REMARK    4  A    between atoms: P_8  and  O_11
REMARK    5  A    between atoms: O_11  and  C_12
REMARK    6  A    between atoms: C_12  and  C_13
REMARK    7  A    between atoms: C_12  and  O_17
REMARK    8  A    between atoms: C_13  and  C_14
REMARK    9  A    between atoms: O_17  and  C_32
REMARK   10  A    between atoms: C_18  and  C_19
REMARK   11  A    between atoms: C_19  and  C_20
REMARK                            x       y       z     vdW  Elec       q    Type
REMARK                         _______ _______ _______ _____ _____    ______ ____
ROOT
ATOM      1  C   UNL A   1     -28.016  -0.814  28.878  0.00  0.00    -0.004 A 
ATOM      2  C   UNL A   1     -28.469  -0.785  29.829  0.00  0.00    -0.010 A 
ATOM      3  C   UNL A   1     -26.504  -0.778  28.877  0.00  0.00    -0.004 A 
ATOM      4  C   UNL A   1     -25.810  -0.853  30.103  0.00  0.00    -0.015 A 
ATOM      5  C   UNL A   1     -27.991  -0.892  31.226  0.00  0.00    -0.004 A 
ATOM      6  C   UNL A   1     -26.604  -0.868  31.265  0.00  0.00    -0.004 A 
ENDROOT
BRANCH   2   7
ATOM      7  C   UNL A   1     -30.074  -0.836  29.861  0.00  0.00    +0.144 C 
BRANCH   7   8
ATOM      8  P   UNL A   1     -30.817   0.458  28.924  0.00  0.00    +0.377 P 
ATOM      9  O   UNL A   1     -29.975   1.270  28.564  0.00  0.00    -0.255 OA
ATOM     10  O   UNL A   1     -31.833   1.003  29.881  0.00  0.00    -0.139 OA
BRANCH   8  11
ATOM     11  O   UNL A   1     -31.558  -0.349  27.812  0.00  0.00    -0.253 OA
BRANCH  11  12
ATOM     12  C   UNL A   1     -32.375  -1.230  27.805  0.00  0.00    +0.334 C 
BRANCH  12  13
ATOM     13  C   UNL A   1     -32.346  -1.929  26.527  0.00  0.00    +0.286 C 
ATOM     14  O   UNL A   1     -33.734  -2.148  26.036  0.00  0.00    -0.208 OA
BRANCH  13  15
ATOM     15  C   UNL A   1     -31.694  -1.379  25.494  0.00  0.00    +0.247 C 
ATOM     16  O   UNL A   1     -30.800  -2.058  24.970  0.00  0.00    -0.285 OA
ENDBRANCH  13  15
ENDBRANCH  12  13
BRANCH  12  17
ATOM     17  O   UNL A   1     -32.109  -2.232  28.836  0.00  0.00    -0.442 OA
BRANCH  17  18
ATOM     18  C   UNL A   1     -33.164  -2.902  29.371  0.00  0.00    +0.235 C 
ATOM     19  C   UNL A   1     -32.854  -4.035  29.904  0.00  0.00    +0.316 C 
ATOM     20  F   UNL A   1     -33.916  -4.605  30.339  0.00  0.00    -0.169 F 
ATOM     21  F   UNL A   1     -32.331  -4.965  29.003  0.00  0.00    -0.169 F 
ENDBRANCH  17  18
ENDBRANCH  12  17
ENDBRANCH  11  12
ENDBRANCH   8  11
ENDBRANCH   7   8
ENDBRANCH   2   7
BRANCH   4  22
ATOM     22  C   UNL A   1     -24.376  -0.841  30.141  0.00  0.00    +0.096 C 
BRANCH  22  23
ATOM     23  C   UNL A   1     -23.814   0.468  29.981  0.00  0.00    +0.180 C 
ATOM     24  O   UNL A   1     -23.691   1.243  31.045  0.00  0.00    -0.291 OA
BRANCH  23  25
ATOM     25  C   UNL A   1     -23.518   0.954  28.725  0.00  0.00    +0.074 A 
ATOM     26  C   UNL A   1     -22.289   0.914  28.289  0.00  0.00    +0.198 A 
ATOM     27  C   UNL A   1     -21.955   1.544  26.982  0.00  0.00    +0.042 A 
ATOM     28  C   UNL A   1     -22.996   2.171  26.301  0.00  0.00    +0.003 A 
ATOM     29  C   UNL A   1     -24.389   1.725  27.901  0.00  0.00    +0.006 A 
ATOM     30  C   UNL A   1     -24.145   2.268  26.782  0.00  0.00    +0.000 A 
ATOM     31  C   UNL A   1     -25.205   3.012  26.028  0.00  0.00    +0.000 A 
ATOM     32  C   UNL A   1     -26.507   3.111  26.576  0.00  0.00    +0.000 A 
ATOM     33  C   UNL A   1     -26.678   3.081  27.759  0.00  0.00    +0.000 A 
ATOM     34  C   UNL A   1     -25.724   2.179  28.598  0.00  0.00    +0.000 A 
ATOM     35  O   UNL A   1     -21.291   0.278  28.878  0.00  0.00    -0.286 OA
ENDBRANCH  23  25
ENDBRANCH  22  23
ENDBRANCH   4  22
TORSDOF 11
