REMARK  Name = No_4225-gen_results/8p0m/2024-11-26-14-13-15/
REMARK  0 active torsions:
REMARK  status: ('A' for Active; 'I' for Inactive)
REMARK                            x       y       z     vdW  Elec       q    Type
REMARK                         _______ _______ _______ _____ _____    ______ ____
ROOT
ATOM      1  C   UNL A   1     -28.016  -0.814  28.878  0.00  0.00    +0.011 A 
ATOM      2  C   UNL A   1     -27.064  -0.119  28.608  0.00  0.00    +0.001 A 
ATOM      3  C   UNL A   1     -25.765  -0.390  29.036  0.00  0.00    +0.000 A 
ATOM      4  C   UNL A   1     -25.530  -1.530  29.901  0.00  0.00    +0.001 A 
ATOM      5  C   UNL A   1     -26.689  -2.289  30.181  0.00  0.00    +0.011 A 
ATOM      6  C   UNL A   1     -27.873  -1.951  29.737  0.00  0.00    +0.058 A 
ATOM      7 CL   UNL A   1     -29.194  -2.923  30.219  0.00  0.00    -0.082 Cl
ATOM      8  C   UNL A   1     -24.533   0.419  28.725  0.00  0.00    +0.000 A 
ATOM      9  C   UNL A   1     -23.343   0.108  29.175  0.00  0.00    +0.000 A 
ATOM     10  C   UNL A   1     -22.224   0.901  28.842  0.00  0.00    +0.000 A 
ATOM     11  C   UNL A   1     -20.958   0.691  28.907  0.00  0.00    +0.000 A 
ATOM     12  C   UNL A   1     -20.732  -0.752  29.232  0.00  0.00    +0.000 A 
ATOM     13  C   UNL A   1     -21.765  -1.593  29.475  0.00  0.00    +0.000 A 
ATOM     14  C   UNL A   1     -23.052  -1.216  29.415  0.00  0.00    +0.000 A 
ATOM     15  C   UNL A   1     -24.220  -2.026  30.172  0.00  0.00    +0.000 A 
ENDROOT
TORSDOF 0
