MODEL 4225
MODEL 1
REMARK VINA RESULT:    -6.145      0.000      0.000
REMARK INTER + INTRA:          -6.145
REMARK INTER:                  -6.145
REMARK INTRA:                   0.000
REMARK UNBOUND:                 0.000
REMARK  Name = No_4225-gen_results/8p0m/2024-11-26-14-13-15/
REMARK  0 active torsions:
REMARK  status: ('A' for Active; 'I' for Inactive)
REMARK                            x       y       z     vdW  Elec       q    Type
REMARK                         _______ _______ _______ _____ _____    ______ ____
ROOT
ATOM      1  C   UNL A   1     -30.633 -10.923  27.074  0.00  0.00    +0.011 A 
ATOM      2  C   UNL A   1     -29.832 -11.529  27.747  0.00  0.00    +0.001 A 
ATOM      3  C   UNL A   1     -29.546 -11.216  29.075  0.00  0.00    +0.000 A 
ATOM      4  C   UNL A   1     -30.191 -10.069  29.685  0.00  0.00    +0.001 A 
ATOM      5  C   UNL A   1     -31.106  -9.404  28.837  0.00  0.00    +0.011 A 
ATOM      6  C   UNL A   1     -31.304  -9.770  27.596  0.00  0.00    +0.058 A 
ATOM      7 CL   UNL A   1     -32.385  -8.826  26.667  0.00  0.00    -0.082 Cl
ATOM      8  C   UNL A   1     -28.576 -11.935  29.976  0.00  0.00    +0.000 A 
ATOM      9  C   UNL A   1     -28.350 -11.574  31.214  0.00  0.00    +0.000 A 
ATOM     10  C   UNL A   1     -27.435 -12.293  32.012  0.00  0.00    +0.000 A 
ATOM     11  C   UNL A   1     -27.231 -12.335  33.280  0.00  0.00    +0.000 A 
ATOM     12  C   UNL A   1     -28.337 -11.595  33.964  0.00  0.00    +0.000 A 
ATOM     13  C   UNL A   1     -29.302 -10.956  33.260  0.00  0.00    +0.000 A 
ATOM     14  C   UNL A   1     -29.361 -10.960  31.919  0.00  0.00    +0.000 A 
ATOM     15  C   UNL A   1     -30.157  -9.831  31.091  0.00  0.00    +0.000 A 
ENDROOT
TORSDOF 0
ENDMDL
ENDMDL
