REMARK  Name = No_4226-gen_results/8p0m/2024-11-26-14-13-15/
REMARK  0 active torsions:
REMARK  status: ('A' for Active; 'I' for Inactive)
REMARK                            x       y       z     vdW  Elec       q    Type
REMARK                         _______ _______ _______ _____ _____    ______ ____
ROOT
ATOM      1  C   UNL A   1     -28.016  -0.814  28.878  0.00  0.00    +0.030 A 
ATOM      2  C   UNL A   1     -28.469  -0.785  29.829  0.00  0.00    +0.002 A 
ATOM      3  C   UNL A   1     -26.546  -0.876  28.850  0.00  0.00    +0.140 A 
ATOM      4  C   UNL A   1     -25.804  -1.032  30.057  0.00  0.00    +0.030 A 
ATOM      5  C   UNL A   1     -26.537  -1.039  31.217  0.00  0.00    +0.002 A 
ATOM      6  C   UNL A   1     -27.893  -0.960  31.174  0.00  0.00    +0.000 A 
ATOM      7  F   UNL A   1     -25.827  -0.851  27.742  0.00  0.00    -0.204 F 
ENDROOT
TORSDOF 0
