MODEL 4226
MODEL 1
REMARK VINA RESULT:    -4.569      0.000      0.000
REMARK INTER + INTRA:          -4.569
REMARK INTER:                  -4.569
REMARK INTRA:                   0.000
REMARK UNBOUND:                 0.000
REMARK  Name = No_4226-gen_results/8p0m/2024-11-26-14-13-15/
REMARK  0 active torsions:
REMARK  status: ('A' for Active; 'I' for Inactive)
REMARK                            x       y       z     vdW  Elec       q    Type
REMARK                         _______ _______ _______ _____ _____    ______ ____
ROOT
ATOM      1  C   UNL A   1      -9.576  -9.067  20.302  0.00  0.00    +0.030 A 
ATOM      2  C   UNL A   1     -10.265  -9.218  19.519  0.00  0.00    +0.002 A 
ATOM      3  C   UNL A   1      -8.292  -9.778  20.195  0.00  0.00    +0.140 A 
ATOM      4  C   UNL A   1      -7.965 -10.510  19.017  0.00  0.00    +0.030 A 
ATOM      5  C   UNL A   1      -8.941 -10.567  18.053  0.00  0.00    +0.002 A 
ATOM      6  C   UNL A   1     -10.114  -9.902  18.223  0.00  0.00    +0.000 A 
ATOM      7  F   UNL A   1      -7.352  -9.747  21.122  0.00  0.00    -0.204 F 
ENDROOT
TORSDOF 0
ENDMDL
ENDMDL
