MODEL 4228
MODEL 1
REMARK VINA RESULT:    -7.974      0.000      0.000
REMARK INTER + INTRA:          -9.449
REMARK INTER:                  -8.906
REMARK INTRA:                  -0.543
REMARK UNBOUND:                -0.543
REMARK  Name = No_4228-gen_results/8p0m/2024-11-26-14-13-15/
REMARK  2 active torsions:
REMARK  status: ('A' for Active; 'I' for Inactive)
REMARK    1  A    between atoms: N_17  and  C_18
REMARK    2  A    between atoms: C_18  and  C_19
REMARK                            x       y       z     vdW  Elec       q    Type
REMARK                         _______ _______ _______ _____ _____    ______ ____
ROOT
ATOM      1  C   UNL A   1     -13.804   2.606  36.650  0.00  0.00    +0.004 A 
ATOM      2  C   UNL A   1     -13.825   2.661  35.598  0.00  0.00    +0.000 A 
ATOM      3  C   UNL A   1     -12.552   2.414  37.276  0.00  0.00    +0.043 A 
ATOM      4  C   UNL A   1     -11.384   2.287  36.549  0.00  0.00    +0.193 A 
ATOM      5  C   UNL A   1     -12.741   2.561  34.601  0.00  0.00    +0.004 A 
ATOM      6  C   UNL A   1     -11.524   2.376  35.158  0.00  0.00    +0.047 A 
ATOM      7  C   UNL A   1     -12.375   2.367  38.767  0.00  0.00    +0.004 C 
ATOM      8  C   UNL A   1     -12.122   1.495  39.508  0.00  0.00    +0.000 C 
ATOM      9  C   UNL A   1     -11.820   0.186  38.910  0.00  0.00    +0.007 A 
ATOM     10  C   UNL A   1     -12.163  -0.986  39.665  0.00  0.00    +0.000 A 
ATOM     11  C   UNL A   1     -11.864  -2.257  39.114  0.00  0.00    +0.000 A 
ATOM     12  C   UNL A   1     -11.242  -2.331  37.827  0.00  0.00    +0.000 A 
ATOM     13  C   UNL A   1     -10.954  -1.170  37.172  0.00  0.00    +0.007 A 
ATOM     14  C   UNL A   1     -11.198   0.000  37.653  0.00  0.00    +0.086 A 
ATOM     15  N   UNL A   1     -10.169   2.153  37.165  0.00  0.00    -0.037 NA
ATOM     16  C   UNL A   1     -10.367   1.020  37.046  0.00  0.00    +0.361 C 
ATOM     17  N   UNL A   1      -9.348   0.513  36.130  0.00  0.00    -0.026 NA
ENDROOT
BRANCH  17  18
ATOM     18  C   UNL A   1      -8.139   0.952  36.189  0.00  0.00    +0.278 C 
BRANCH  18  19
ATOM     19  C   UNL A   1      -7.123   0.019  35.582  0.00  0.00    +0.029 A 
ATOM     20  C   UNL A   1      -5.831   0.335  35.705  0.00  0.00    -0.000 A 
ATOM     21  C   UNL A   1      -4.809  -0.514  35.143  0.00  0.00    -0.000 A 
ATOM     22  C   UNL A   1      -7.546  -1.124  34.901  0.00  0.00    -0.000 A 
ATOM     23  C   UNL A   1      -6.522  -1.957  34.318  0.00  0.00    -0.000 A 
ATOM     24  C   UNL A   1      -5.196  -1.661  34.469  0.00  0.00    -0.000 A 
ENDBRANCH  18  19
ENDBRANCH  17  18
TORSDOF 2
ENDMDL
ENDMDL
