MODEL 4229
MODEL 1
REMARK VINA RESULT:    -6.788      0.000      0.000
REMARK INTER + INTRA:          -7.985
REMARK INTER:                  -7.581
REMARK INTRA:                  -0.403
REMARK UNBOUND:                -0.403
REMARK  Name = No_4229-gen_results/8p0m/2024-11-26-14-13-15/
REMARK  2 active torsions:
REMARK  status: ('A' for Active; 'I' for Inactive)
REMARK    1  A    between atoms: C_3  and  C_4
REMARK    2  A    between atoms: C_4  and  C_8
REMARK                            x       y       z     vdW  Elec       q    Type
REMARK                         _______ _______ _______ _____ _____    ______ ____
ROOT
ATOM      1  C   UNL A   1     -24.652  -1.344  29.032  0.00  0.00    +0.053 C 
ENDROOT
BRANCH   1   4
ATOM      2  C   UNL A   1     -22.262  -0.411  29.064  0.00  0.00    -0.004 A 
ATOM      3  C   UNL A   1     -21.586   0.279  28.643  0.00  0.00    -0.000 A 
ATOM      4  C   UNL A   1     -23.603  -0.375  28.622  0.00  0.00    -0.018 A 
ATOM      5  C   UNL A   1     -21.780   1.339  27.638  0.00  0.00    -0.000 A 
ATOM      6  C   UNL A   1     -23.085   1.436  27.156  0.00  0.00    -0.000 A 
ATOM      7  C   UNL A   1     -24.021   0.556  27.597  0.00  0.00    -0.004 A 
ENDBRANCH   1   4
BRANCH   1   8
ATOM      8  C   UNL A   1     -24.759  -2.473  29.026  0.00  0.00    -0.018 A 
ATOM      9  C   UNL A   1     -23.896  -3.496  28.529  0.00  0.00    -0.004 A 
ATOM     10  C   UNL A   1     -24.155  -4.853  28.604  0.00  0.00    -0.000 A 
ATOM     11  C   UNL A   1     -25.319  -5.263  29.263  0.00  0.00    -0.000 A 
ATOM     12  C   UNL A   1     -25.949  -3.137  29.626  0.00  0.00    -0.004 A 
ATOM     13  C   UNL A   1     -26.229  -4.463  29.676  0.00  0.00    -0.000 A 
ENDBRANCH   1   8
TORSDOF 2
ENDMDL
ENDMDL
