MODEL 422
MODEL 1
REMARK VINA RESULT:    -7.113      0.000      0.000
REMARK INTER + INTRA:         -11.087
REMARK INTER:                  -9.193
REMARK INTRA:                  -1.894
REMARK UNBOUND:                -1.894
REMARK  Name = No_422-gen_results/8p0m/2024-11-26-14-13-15/
REMARK  5 active torsions:
REMARK  status: ('A' for Active; 'I' for Inactive)
REMARK    1  A    between atoms: C_3  and  C_7
REMARK    2  A    between atoms: C_7  and  C_8
REMARK    3  A    between atoms: C_7  and  C_16
REMARK    4  A    between atoms: C_8  and  C_9
REMARK    5  A    between atoms: C_9  and  C_10
REMARK                            x       y       z     vdW  Elec       q    Type
REMARK                         _______ _______ _______ _____ _____    ______ ____
ROOT
ATOM      1  C   UNL A   1     -25.450  -1.233  28.828  0.00  0.00    +0.044 C 
ENDROOT
BRANCH   1   4
ATOM      2  C   UNL A   1     -26.271  -3.485  29.659  0.00  0.00    -0.004 A 
ATOM      3  C   UNL A   1     -26.154  -4.532  29.680  0.00  0.00    -0.000 A 
ATOM      4  C   UNL A   1     -25.252  -2.748  28.968  0.00  0.00    -0.018 A 
ATOM      5  C   UNL A   1     -24.127  -3.309  28.515  0.00  0.00    -0.004 A 
ATOM      6  C   UNL A   1     -25.017  -5.347  29.274  0.00  0.00    -0.000 A 
ATOM      7  C   UNL A   1     -24.056  -4.676  28.654  0.00  0.00    -0.000 A 
ENDBRANCH   1   4
BRANCH   1   8
ATOM      8  C   UNL A   1     -25.737  -0.743  27.581  0.00  0.00    -0.027 C 
ATOM      9  C   UNL A   1     -25.154  -0.394  26.746  0.00  0.00    -0.030 C 
ATOM     10  C   UNL A   1     -25.659   0.185  25.513  0.00  0.00    +0.030 C 
ENDBRANCH   1   8
BRANCH   1  11
ATOM     11  C   UNL A   1     -25.244  -0.407  30.004  0.00  0.00    +0.012 C 
ATOM     12  C   UNL A   1     -26.310   0.601  30.182  0.00  0.00    +0.001 C 
BRANCH  11  13
ATOM     13  C   UNL A   1     -23.999  -0.153  30.504  0.00  0.00    +0.027 C 
BRANCH  13  14
ATOM     14  C   UNL A   1     -23.002   0.410  29.704  0.00  0.00    -0.022 A 
ATOM     15  C   UNL A   1     -23.287   1.484  28.777  0.00  0.00    -0.004 A 
ATOM     16  C   UNL A   1     -22.257   1.862  27.888  0.00  0.00    -0.000 A 
ATOM     17  C   UNL A   1     -21.087   1.130  27.740  0.00  0.00    -0.000 A 
ATOM     18  C   UNL A   1     -20.972  -0.100  28.438  0.00  0.00    -0.000 A 
ATOM     19  C   UNL A   1     -21.937  -0.480  29.307  0.00  0.00    -0.004 A 
ENDBRANCH  13  14
ENDBRANCH  11  13
ENDBRANCH   1  11
TORSDOF 5
ENDMDL
ENDMDL
