MODEL 4230
MODEL 1
REMARK VINA RESULT:    -8.235      0.000      0.000
REMARK INTER + INTRA:         -13.592
REMARK INTER:                 -11.605
REMARK INTRA:                  -1.987
REMARK UNBOUND:                -1.987
REMARK  Name = No_4230-gen_results/8p0m/2024-11-26-14-13-15/
REMARK  7 active torsions:
REMARK  status: ('A' for Active; 'I' for Inactive)
REMARK    1  A    between atoms: C_4  and  C_11
REMARK    2  A    between atoms: C_6  and  O_20
REMARK    3  A    between atoms: C_11  and  C_14
REMARK    4  A    between atoms: C_17  and  C_30
REMARK    5  A    between atoms: O_20  and  C_21
REMARK    6  A    between atoms: C_22  and  C_24
REMARK    7  A    between atoms: N_31  and  C_33
REMARK                            x       y       z     vdW  Elec       q    Type
REMARK                         _______ _______ _______ _____ _____    ______ ____
ROOT
ATOM      1  C   UNL A   1     -26.504   1.627  27.482  0.00  0.00    +0.037 A 
ATOM      2  C   UNL A   1     -25.783   1.089  28.290  0.00  0.00    +0.003 A 
ATOM      3  C   UNL A   1     -24.403   1.077  28.125  0.00  0.00    -0.004 A 
ATOM      4  C   UNL A   1     -23.412   0.442  29.041  0.00  0.00    -0.019 A 
ATOM      5  C   UNL A   1     -21.987   0.423  28.843  0.00  0.00    -0.004 A 
ATOM      6  C   UNL A   1     -25.950   2.116  26.209  0.00  0.00    +0.145 A 
ATOM      7  C   UNL A   1     -24.596   2.206  26.001  0.00  0.00    +0.037 A 
ATOM      8  C   UNL A   1     -23.723   1.637  26.944  0.00  0.00    +0.003 A 
ATOM      9  C   UNL A   1     -21.566   1.197  27.714  0.00  0.00    -0.000 A 
ATOM     10  C   UNL A   1     -22.344   1.709  26.801  0.00  0.00    +0.000 A 
ENDROOT
BRANCH   4  11
ATOM     11  C   UNL A   1     -23.875  -0.219  30.296  0.00  0.00    +0.038 C 
ATOM     12  C   UNL A   1     -24.669   0.450  31.122  0.00  0.00    +0.009 C 
ATOM     13  C   UNL A   1     -22.634  -0.718  31.108  0.00  0.00    +0.009 C 
BRANCH  11  14
ATOM     14  C   UNL A   1     -24.534  -1.580  29.853  0.00  0.00    -0.019 A 
ATOM     15  C   UNL A   1     -23.712  -2.449  29.158  0.00  0.00    -0.004 A 
ATOM     16  C   UNL A   1     -25.893  -1.903  30.053  0.00  0.00    +0.001 A 
ATOM     17  C   UNL A   1     -26.346  -3.218  29.952  0.00  0.00    +0.055 A 
ATOM     18  C   UNL A   1     -25.616  -4.053  29.179  0.00  0.00    +0.005 A 
ATOM     19  C   UNL A   1     -24.247  -3.770  28.906  0.00  0.00    -0.000 A 
BRANCH  17  20
ATOM     20  C   UNL A   1     -27.741  -3.484  30.323  0.00  0.00    +0.269 C 
ATOM     21  N   UNL A   1     -28.173  -4.493  30.691  0.00  0.00    -0.174 NA
ATOM     22  O   UNL A   1     -28.539  -2.439  30.150  0.00  0.00    -0.268 OA
BRANCH  21  23
ATOM     23  C   UNL A   1     -29.060  -4.986  31.027  0.00  0.00    +0.084 C 
ATOM     24  C   UNL A   1     -29.772  -5.791  30.320  0.00  0.00    -0.008 C 
ATOM     25  C   UNL A   1     -30.747  -5.215  29.502  0.00  0.00    +0.032 C 
ENDBRANCH  21  23
ENDBRANCH  17  20
ENDBRANCH  11  14
ENDBRANCH   4  11
BRANCH   6  26
ATOM     26  O   UNL A   1     -26.829   2.677  25.308  0.00  0.00    -0.453 OA
BRANCH  26  27
ATOM     27  C   UNL A   1     -27.782   1.937  24.730  0.00  0.00    +0.152 A 
ATOM     28  C   UNL A   1     -29.002   2.523  24.802  0.00  0.00    +0.114 A 
ATOM     29  C   UNL A   1     -30.023   1.820  24.250  0.00  0.00    +0.010 A 
ATOM     30  C   UNL A   1     -29.853   0.630  23.540  0.00  0.00    +0.000 A 
ATOM     31  C   UNL A   1     -28.535   0.109  23.531  0.00  0.00    +0.003 A 
ATOM     32  C   UNL A   1     -27.488   0.778  24.071  0.00  0.00    +0.038 A 
BRANCH  28  33
ATOM     33  C   UNL A   1     -29.325   3.756  25.429  0.00  0.00    +0.391 C 
ATOM     34  O   UNL A   1     -29.370   4.764  24.855  0.00  0.00    -0.240 OA
ATOM     35  O   UNL A   1     -29.440   3.755  26.703  0.00  0.00    -0.240 OA
ENDBRANCH  28  33
ENDBRANCH  26  27
ENDBRANCH   6  26
TORSDOF 7
ENDMDL
ENDMDL
