REMARK  Name = No_4231-gen_results/8p0m/2024-11-26-14-13-15/
REMARK  0 active torsions:
REMARK  status: ('A' for Active; 'I' for Inactive)
REMARK                            x       y       z     vdW  Elec       q    Type
REMARK                         _______ _______ _______ _____ _____    ______ ____
ROOT
ATOM      1  F   UNL A   1     -28.073  -1.254  28.532  0.00  0.00    -0.156 F 
ATOM      2  C   UNL A   1     -27.061  -0.629  28.872  0.00  0.00    +0.477 C 
ATOM      3 CL   UNL A   1     -27.142   0.578  29.581  0.00  0.00    -0.010 Cl
ATOM      4  F   UNL A   1     -26.251  -1.580  29.653  0.00  0.00    -0.156 F 
ATOM      5  F   UNL A   1     -26.283  -0.497  27.733  0.00  0.00    -0.156 F 
ENDROOT
TORSDOF 0
