MODEL 4231
MODEL 1
REMARK VINA RESULT:    -3.674      0.000      0.000
REMARK INTER + INTRA:          -3.674
REMARK INTER:                  -3.674
REMARK INTRA:                   0.000
REMARK UNBOUND:                 0.000
REMARK  Name = No_4231-gen_results/8p0m/2024-11-26-14-13-15/
REMARK  0 active torsions:
REMARK  status: ('A' for Active; 'I' for Inactive)
REMARK                            x       y       z     vdW  Elec       q    Type
REMARK                         _______ _______ _______ _____ _____    ______ ____
ROOT
ATOM      1  F   UNL A   1      -7.937 -10.608  19.449  0.00  0.00    -0.156 F 
ATOM      2  C   UNL A   1      -7.919  -9.643  20.222  0.00  0.00    +0.477 C 
ATOM      3 CL   UNL A   1      -7.375  -8.406  19.846  0.00  0.00    -0.010 Cl
ATOM      4  F   UNL A   1      -9.319  -9.436  20.632  0.00  0.00    -0.156 F 
ATOM      5  F   UNL A   1      -7.365 -10.102  21.406  0.00  0.00    -0.156 F 
ENDROOT
TORSDOF 0
ENDMDL
ENDMDL
