REMARK  Name = No_4232-gen_results/8p0m/2024-11-26-14-13-15/
REMARK  4 active torsions:
REMARK  status: ('A' for Active; 'I' for Inactive)
REMARK    1  A    between atoms: C_1  and  C_2
REMARK    2  A    between atoms: C_5  and  C_9
REMARK    3  A    between atoms: N_8  and  C_14
REMARK    4  A    between atoms: C_14  and  C_16
REMARK                            x       y       z     vdW  Elec       q    Type
REMARK                         _______ _______ _______ _____ _____    ______ ____
ROOT
ATOM      1  C   UNL A   1     -27.064  -0.119  28.608  0.00  0.00    +0.054 A 
ATOM      2  C   UNL A   1     -26.929   1.171  29.008  0.00  0.00    +0.004 A 
ATOM      3  C   UNL A   1     -25.770   2.034  28.688  0.00  0.00    +0.004 A 
ATOM      4  C   UNL A   1     -24.714   1.443  27.919  0.00  0.00    +0.071 A 
ATOM      5  C   UNL A   1     -24.859   0.078  27.584  0.00  0.00    +0.004 A 
ATOM      6  C   UNL A   1     -25.965  -0.661  27.916  0.00  0.00    +0.004 A 
ENDROOT
BRANCH   1   7
ATOM      7  C   UNL A   1     -28.016  -0.814  28.878  0.00  0.00    +0.249 C 
ATOM      8  N   UNL A   1     -27.982  -1.611  30.103  0.00  0.00    -0.264 N 
ATOM      9  O   UNL A   1     -29.213  -0.375  28.696  0.00  0.00    -0.270 OA
ATOM     10  C   UNL A   1     -26.686  -1.988  30.714  0.00  0.00    +0.116 C 
BRANCH   8  11
ATOM     11  C   UNL A   1     -29.035  -2.469  30.625  0.00  0.00    +0.209 C 
BRANCH  11  12
ATOM     12  C   UNL A   1     -28.920  -3.822  30.312  0.00  0.00    +0.385 C 
ATOM     13  O   UNL A   1     -29.822  -4.590  30.663  0.00  0.00    -0.244 OA
ATOM     14  O   UNL A   1     -27.721  -4.395  30.137  0.00  0.00    -0.244 OA
ENDBRANCH  11  12
ENDBRANCH   8  11
ENDBRANCH   1   7
BRANCH   4  15
ATOM     15  C   UNL A   1     -23.535   2.170  27.555  0.00  0.00    +0.419 C 
ATOM     16  F   UNL A   1     -22.645   1.574  27.151  0.00  0.00    -0.166 F 
ATOM     17  F   UNL A   1     -23.061   2.893  28.647  0.00  0.00    -0.166 F 
ATOM     18  F   UNL A   1     -23.900   3.190  26.704  0.00  0.00    -0.166 F 
ENDBRANCH   4  15
TORSDOF 4
