MODEL 4232
MODEL 1
REMARK VINA RESULT:    -5.621      0.000      0.000
REMARK INTER + INTRA:          -7.178
REMARK INTER:                  -6.936
REMARK INTRA:                  -0.242
REMARK UNBOUND:                -0.242
REMARK  Name = No_4232-gen_results/8p0m/2024-11-26-14-13-15/
REMARK  4 active torsions:
REMARK  status: ('A' for Active; 'I' for Inactive)
REMARK    1  A    between atoms: C_1  and  C_2
REMARK    2  A    between atoms: C_5  and  C_9
REMARK    3  A    between atoms: N_8  and  C_14
REMARK    4  A    between atoms: C_14  and  C_16
REMARK                            x       y       z     vdW  Elec       q    Type
REMARK                         _______ _______ _______ _____ _____    ______ ____
ROOT
ATOM      1  C   UNL A   1      -7.660   0.497  10.348  0.00  0.00    +0.054 A 
ATOM      2  C   UNL A   1      -8.323   1.480   9.687  0.00  0.00    +0.004 A 
ATOM      3  C   UNL A   1      -9.281   2.418  10.314  0.00  0.00    +0.004 A 
ATOM      4  C   UNL A   1      -9.532   2.248  11.715  0.00  0.00    +0.071 A 
ATOM      5  C   UNL A   1      -8.879   1.169  12.351  0.00  0.00    +0.004 A 
ATOM      6  C   UNL A   1      -8.001   0.338  11.704  0.00  0.00    +0.004 A 
ENDROOT
BRANCH   1   7
ATOM      7  C   UNL A   1      -6.881  -0.263   9.823  0.00  0.00    +0.249 C 
ATOM      8  N   UNL A   1      -5.448  -0.004   9.951  0.00  0.00    -0.264 N 
ATOM      9  O   UNL A   1      -7.082  -1.535   9.870  0.00  0.00    -0.270 OA
ATOM     10  C   UNL A   1      -4.958   1.367  10.229  0.00  0.00    +0.116 C 
BRANCH   8  11
ATOM     11  C   UNL A   1      -4.356  -0.816   9.437  0.00  0.00    +0.209 C 
BRANCH  11  12
ATOM     12  C   UNL A   1      -4.344  -1.004   8.056  0.00  0.00    +0.385 C 
ATOM     13  O   UNL A   1      -4.390  -0.011   7.323  0.00  0.00    -0.244 OA
ATOM     14  O   UNL A   1      -4.796  -2.140   7.506  0.00  0.00    -0.244 OA
ENDBRANCH  11  12
ENDBRANCH   8  11
ENDBRANCH   1   7
BRANCH   4  15
ATOM     15  C   UNL A   1     -10.447   3.083  12.434  0.00  0.00    +0.419 C 
ATOM     16  F   UNL A   1     -11.197   3.699  11.826  0.00  0.00    -0.166 F 
ATOM     17  F   UNL A   1      -9.747   3.988  13.228  0.00  0.00    -0.166 F 
ATOM     18  F   UNL A   1     -11.069   2.318  13.395  0.00  0.00    -0.166 F 
ENDBRANCH   4  15
TORSDOF 4
ENDMDL
ENDMDL
