MODEL 4233
MODEL 1
REMARK VINA RESULT:    -7.036      0.000      0.000
REMARK INTER + INTRA:         -11.402
REMARK INTER:                  -9.915
REMARK INTRA:                  -1.487
REMARK UNBOUND:                -1.487
REMARK  Name = No_4233-gen_results/8p0m/2024-11-26-14-13-15/
REMARK  7 active torsions:
REMARK  status: ('A' for Active; 'I' for Inactive)
REMARK    1  A    between atoms: C_3  and  C_11
REMARK    2  A    between atoms: C_11  and  O_13
REMARK    3  A    between atoms: O_13  and  C_14
REMARK    4  A    between atoms: C_14  and  C_25
REMARK    5  A    between atoms: C_15  and  C_16
REMARK    6  A    between atoms: C_25  and  N_26
REMARK    7  A    between atoms: N_26  and  C_27
REMARK                            x       y       z     vdW  Elec       q    Type
REMARK                         _______ _______ _______ _____ _____    ______ ____
ROOT
ATOM      1  C   UNL A   1     -10.460   1.643  34.370  0.00  0.00    +0.330 C 
ATOM      2  O   UNL A   1      -9.942   2.242  33.557  0.00  0.00    -0.249 OA
ENDROOT
BRANCH   1   5
ATOM      3  O   UNL A   1     -12.758   1.471  32.893  0.00  0.00    -0.273 OA
ATOM      4  C   UNL A   1     -12.819   1.883  34.057  0.00  0.00    +0.252 C 
ATOM      5  C   UNL A   1     -11.813   2.157  34.803  0.00  0.00    +0.178 C 
ATOM      6  N   UNL A   1     -14.031   2.510  34.492  0.00  0.00    -0.206 NA
ATOM      7  C   UNL A   1     -11.875   2.614  36.179  0.00  0.00    +0.031 C 
ATOM      8  C   UNL A   1     -14.215   3.033  35.783  0.00  0.00    +0.106 C 
ATOM      9  C   UNL A   1     -13.156   3.091  36.624  0.00  0.00    +0.099 C 
ATOM     10  C   UNL A   1     -13.179   3.360  38.002  0.00  0.00    +0.243 C 
ATOM     11  N   UNL A   1     -14.455   3.868  38.421  0.00  0.00    -0.205 NA
ATOM     12  O   UNL A   1     -12.294   3.342  38.798  0.00  0.00    -0.273 OA
ATOM     13  C   UNL A   1     -15.580   3.920  37.676  0.00  0.00    +0.117 C 
ATOM     14  C   UNL A   1     -15.466   3.470  36.298  0.00  0.00    +0.046 C 
ENDBRANCH   1   5
BRANCH   1  15
ATOM     15  O   UNL A   1     -10.025   0.620  34.977  0.00  0.00    -0.426 OA
BRANCH  15  16
ATOM     16  C   UNL A   1      -8.841   0.545  35.600  0.00  0.00    +0.148 C 
ATOM     17  C   UNL A   1      -8.809   0.068  36.726  0.00  0.00    +0.035 C 
BRANCH  17  18
ATOM     18  C   UNL A   1     -10.015  -0.303  37.437  0.00  0.00    +0.003 A 
ATOM     19  C   UNL A   1     -10.257   0.241  38.589  0.00  0.00    +0.002 A 
ATOM     20  C   UNL A   1     -11.488  -0.000  39.463  0.00  0.00    +0.030 A 
ATOM     21  C   UNL A   1     -11.924  -1.283  39.422  0.00  0.00    +0.140 A 
ATOM     22  C   UNL A   1     -11.551  -2.072  38.276  0.00  0.00    +0.030 A 
ATOM     23  C   UNL A   1     -10.633  -1.694  37.372  0.00  0.00    +0.002 A 
ATOM     24  F   UNL A   1     -12.910  -1.659  40.184  0.00  0.00    -0.204 F 
ENDBRANCH  17  18
BRANCH  16  25
ATOM     25  C   UNL A   1      -7.811  -0.067  34.646  0.00  0.00    +0.176 C 
BRANCH  25  26
ATOM     26  N   UNL A   1      -7.063  -0.839  35.034  0.00  0.00    -0.228 NA
BRANCH  26  27
ATOM     27  C   UNL A   1      -6.553  -1.893  34.418  0.00  0.00    +0.081 C 
ATOM     28  C   UNL A   1      -5.219  -2.176  34.362  0.00  0.00    +0.019 C 
ENDBRANCH  26  27
ENDBRANCH  25  26
ENDBRANCH  16  25
ENDBRANCH  15  16
ENDBRANCH   1  15
TORSDOF 7
ENDMDL
ENDMDL
