REMARK  Name = No_4235-gen_results/8p0m/2024-11-26-14-13-15/
REMARK  3 active torsions:
REMARK  status: ('A' for Active; 'I' for Inactive)
REMARK    1  A    between atoms: C_1  and  N_8
REMARK    2  A    between atoms: C_5  and  C_9
REMARK    3  A    between atoms: N_8  and  C_13
REMARK                            x       y       z     vdW  Elec       q    Type
REMARK                         _______ _______ _______ _____ _____    ______ ____
ROOT
ATOM      1  C   UNL A   1     -28.016  -0.814  28.878  0.00  0.00    +0.077 C 
ATOM      2  C   UNL A   1     -27.064  -0.119  28.608  0.00  0.00    -0.028 C 
ATOM      3  C   UNL A   1     -26.972   0.714  27.506  0.00  0.00    +0.024 C 
ATOM      4  C   UNL A   1     -25.820   1.491  27.116  0.00  0.00    +0.013 C 
ATOM      5  C   UNL A   1     -24.656   1.424  27.918  0.00  0.00    +0.096 C 
ATOM      6  C   UNL A   1     -24.685   0.590  29.066  0.00  0.00    +0.013 C 
ATOM      7  C   UNL A   1     -25.810  -0.127  29.334  0.00  0.00    +0.024 C 
ENDROOT
BRANCH   5   8
ATOM      8  C   UNL A   1     -23.472   2.197  27.617  0.00  0.00    +0.398 C 
ATOM      9  F   UNL A   1     -22.621   1.696  27.126  0.00  0.00    -0.170 F 
ATOM     10  F   UNL A   1     -23.855   3.345  26.890  0.00  0.00    -0.170 F 
ATOM     11  F   UNL A   1     -23.014   2.794  28.765  0.00  0.00    -0.170 F 
ENDBRANCH   5   8
BRANCH   1  12
ATOM     12  N   UNL A   1     -27.966  -1.679  30.009  0.00  0.00    -0.210 NA
BRANCH  12  13
ATOM     13  C   UNL A   1     -28.995  -2.058  30.729  0.00  0.00    +0.086 C 
ATOM     14  C   UNL A   1     -28.887  -3.188  31.608  0.00  0.00    +0.019 C 
ENDBRANCH  12  13
ENDBRANCH   1  12
TORSDOF 3
