MODEL 4235
MODEL 1
REMARK VINA RESULT:    -5.697      0.000      0.000
REMARK INTER + INTRA:          -6.904
REMARK INTER:                  -6.697
REMARK INTRA:                  -0.208
REMARK UNBOUND:                -0.208
REMARK  Name = No_4235-gen_results/8p0m/2024-11-26-14-13-15/
REMARK  3 active torsions:
REMARK  status: ('A' for Active; 'I' for Inactive)
REMARK    1  A    between atoms: C_1  and  N_8
REMARK    2  A    between atoms: C_5  and  C_9
REMARK    3  A    between atoms: N_8  and  C_13
REMARK                            x       y       z     vdW  Elec       q    Type
REMARK                         _______ _______ _______ _____ _____    ______ ____
ROOT
ATOM      1  C   UNL A   1     -24.016  -2.493  29.986  0.00  0.00    +0.077 C 
ATOM      2  C   UNL A   1     -23.724  -1.561  29.272  0.00  0.00    -0.028 C 
ATOM      3  C   UNL A   1     -22.542  -0.844  29.341  0.00  0.00    +0.024 C 
ATOM      4  C   UNL A   1     -22.202   0.320  28.559  0.00  0.00    +0.013 C 
ATOM      5  C   UNL A   1     -23.143   0.800  27.617  0.00  0.00    +0.096 C 
ATOM      6  C   UNL A   1     -24.375   0.107  27.494  0.00  0.00    +0.013 C 
ATOM      7  C   UNL A   1     -24.615  -0.964  28.298  0.00  0.00    +0.024 C 
ENDROOT
BRANCH   5   8
ATOM      8  C   UNL A   1     -22.867   1.939  26.770  0.00  0.00    +0.398 C 
ATOM      9  F   UNL A   1     -23.207   2.937  27.094  0.00  0.00    -0.170 F 
ATOM     10  F   UNL A   1     -21.486   1.960  26.477  0.00  0.00    -0.170 F 
ATOM     11  F   UNL A   1     -23.365   1.703  25.513  0.00  0.00    -0.170 F 
ENDBRANCH   5   8
BRANCH   1  12
ATOM     12  N   UNL A   1     -25.293  -3.112  29.859  0.00  0.00    -0.210 NA
BRANCH  12  13
ATOM     13  C   UNL A   1     -25.582  -4.118  29.069  0.00  0.00    +0.086 C 
ATOM     14  C   UNL A   1     -24.911  -5.378  29.227  0.00  0.00    +0.019 C 
ENDBRANCH  12  13
ENDBRANCH   1  12
TORSDOF 3
ENDMDL
ENDMDL
