MODEL 4236
MODEL 1
REMARK VINA RESULT:    -7.872      0.000      0.000
REMARK INTER + INTRA:          -8.417
REMARK INTER:                  -8.332
REMARK INTRA:                  -0.085
REMARK UNBOUND:                -0.085
REMARK  Name = No_4236-gen_results/8p0m/2024-11-26-14-13-15/
REMARK  1 active torsions:
REMARK  status: ('A' for Active; 'I' for Inactive)
REMARK    1  A    between atoms: C_10  and  C_13
REMARK                            x       y       z     vdW  Elec       q    Type
REMARK                         _______ _______ _______ _____ _____    ______ ____
ROOT
ATOM      1  C   UNL A   1     -29.243 -10.409  32.439  0.00  0.00    +0.005 A 
ATOM      2  C   UNL A   1     -29.614 -10.299  31.294  0.00  0.00    +0.011 A 
ATOM      3  C   UNL A   1     -29.164 -11.169  30.306  0.00  0.00    -0.002 A 
ATOM      4  C   UNL A   1     -29.536 -11.131  28.863  0.00  0.00    -0.001 A 
ATOM      5  C   UNL A   1     -30.567 -10.211  28.509  0.00  0.00    +0.019 A 
ATOM      6  C   UNL A   1     -31.018 -10.134  27.192  0.00  0.00    +0.142 A 
ATOM      7  C   UNL A   1     -30.526 -11.097  26.286  0.00  0.00    +0.037 A 
ATOM      8  C   UNL A   1     -29.552 -11.994  26.619  0.00  0.00    +0.003 A 
ATOM      9  C   UNL A   1     -29.057 -12.056  27.976  0.00  0.00    -0.000 A 
ATOM     10  C   UNL A   1     -28.153 -11.301  32.826  0.00  0.00    +0.080 A 
ATOM     11  C   UNL A   1     -27.721 -12.270  31.943  0.00  0.00    +0.007 A 
ATOM     12  C   UNL A   1     -28.174 -12.189  30.620  0.00  0.00    -0.000 A 
ATOM     13  O   UNL A   1     -31.961  -9.277  26.864  0.00  0.00    -0.451 OA
ATOM     14  C   UNL A   1     -32.511  -8.646  28.067  0.00  0.00    +0.175 C 
ATOM     15  C   UNL A   1     -31.173  -9.392  29.390  0.00  0.00    +0.087 C 
ATOM     16  C   UNL A   1     -32.142  -8.511  29.078  0.00  0.00    +0.022 C 
ATOM     17  C   UNL A   1     -30.641  -9.437  30.813  0.00  0.00    +0.191 C 
ATOM     18  F   UNL A   1     -31.178  -8.652  31.728  0.00  0.00    -0.232 F 
ENDROOT
BRANCH  10  19
ATOM     19  C   UNL A   1     -27.660 -11.388  34.212  0.00  0.00    +0.388 C 
ATOM     20  O   UNL A   1     -26.786 -10.645  34.578  0.00  0.00    -0.241 OA
ATOM     21  O   UNL A   1     -27.824 -12.542  34.840  0.00  0.00    -0.241 OA
ENDBRANCH  10  19
TORSDOF 1
ENDMDL
ENDMDL
