REMARK  Name = No_4236-gen_results/8p0m/2024-11-26-14-13-15/
REMARK  1 active torsions:
REMARK  status: ('A' for Active; 'I' for Inactive)
REMARK    1  A    between atoms: C_10  and  C_13
REMARK                            x       y       z     vdW  Elec       q    Type
REMARK                         _______ _______ _______ _____ _____    ______ ____
ROOT
ATOM      1  C   UNL A   1     -28.016  -0.814  28.878  0.00  0.00    +0.005 A 
ATOM      2  C   UNL A   1     -27.064  -0.119  28.608  0.00  0.00    +0.011 A 
ATOM      3  C   UNL A   1     -25.792  -0.430  29.076  0.00  0.00    -0.002 A 
ATOM      4  C   UNL A   1     -24.546   0.349  28.823  0.00  0.00    -0.001 A 
ATOM      5  C   UNL A   1     -24.659   1.420  27.888  0.00  0.00    +0.019 A 
ATOM      6  C   UNL A   1     -23.540   2.179  27.550  0.00  0.00    +0.142 A 
ATOM      7  C   UNL A   1     -22.293   1.743  28.047  0.00  0.00    +0.037 A 
ATOM      8  C   UNL A   1     -22.171   0.708  28.928  0.00  0.00    +0.003 A 
ATOM      9  C   UNL A   1     -23.334  -0.062  29.308  0.00  0.00    -0.000 A 
ATOM     10  C   UNL A   1     -27.947  -1.882  29.871  0.00  0.00    +0.080 A 
ATOM     11  C   UNL A   1     -26.716  -2.329  30.306  0.00  0.00    +0.007 A 
ATOM     12  C   UNL A   1     -25.592  -1.564  29.967  0.00  0.00    -0.000 A 
ATOM     13  O   UNL A   1     -23.647   3.174  26.696  0.00  0.00    -0.451 OA
ATOM     14  C   UNL A   1     -24.984   3.183  26.096  0.00  0.00    +0.175 C 
ATOM     15  C   UNL A   1     -25.809   1.755  27.271  0.00  0.00    +0.087 C 
ATOM     16  C   UNL A   1     -25.941   2.766  26.391  0.00  0.00    +0.022 C 
ATOM     17  C   UNL A   1     -27.039   0.964  27.683  0.00  0.00    +0.191 C 
ATOM     18  F   UNL A   1     -28.203   1.246  27.129  0.00  0.00    -0.232 F 
ENDROOT
BRANCH  10  19
ATOM     19  C   UNL A   1     -29.123  -2.688  30.245  0.00  0.00    +0.388 C 
ATOM     20  O   UNL A   1     -30.217  -2.184  30.227  0.00  0.00    -0.241 OA
ATOM     21  O   UNL A   1     -28.914  -3.736  31.027  0.00  0.00    -0.241 OA
ENDBRANCH  10  19
TORSDOF 1
