REMARK  Name = No_4237-gen_results/8p0m/2024-11-26-14-13-15/
REMARK  4 active torsions:
REMARK  status: ('A' for Active; 'I' for Inactive)
REMARK    1  A    between atoms: C_2  and  O_17
REMARK    2  A    between atoms: C_3  and  C_4
REMARK    3  A    between atoms: O_17  and  C_18
REMARK    4  A    between atoms: C_19  and  C_20
REMARK                            x       y       z     vdW  Elec       q    Type
REMARK                         _______ _______ _______ _____ _____    ______ ____
ROOT
ATOM      1  C   UNL A   1     -28.016  -0.814  28.878  0.00  0.00    +0.040 A 
ATOM      2  C   UNL A   1     -28.469  -0.785  29.829  0.00  0.00    +0.148 A 
ATOM      3  C   UNL A   1     -28.182   0.428  28.113  0.00  0.00    +0.035 A 
ATOM      4  C   UNL A   1     -29.440   0.083  30.445  0.00  0.00    +0.069 A 
ATOM      5  C   UNL A   1     -29.651   1.210  29.752  0.00  0.00    +0.170 A 
ATOM      6  C   UNL A   1     -29.026   1.424  28.572  0.00  0.00    +0.168 A 
ATOM      7  F   UNL A   1     -29.216   2.457  27.861  0.00  0.00    -0.202 F 
ATOM      8  F   UNL A   1     -30.472   2.161  30.187  0.00  0.00    -0.202 F 
ENDROOT
BRANCH   3   9
ATOM      9  C   UNL A   1     -27.450   0.643  26.850  0.00  0.00    +0.031 A 
ATOM     10  C   UNL A   1     -26.453   0.994  26.668  0.00  0.00    +0.014 A 
ATOM     11  C   UNL A   1     -25.583   0.482  25.601  0.00  0.00    +0.058 A 
ATOM     12  C   UNL A   1     -26.235  -0.206  24.573  0.00  0.00    +0.014 A 
ATOM     13  C   UNL A   1     -28.015  -0.103  25.668  0.00  0.00    +0.140 A 
ATOM     14  C   UNL A   1     -27.407  -0.449  24.641  0.00  0.00    +0.030 A 
ATOM     15 CL   UNL A   1     -23.926   0.970  25.504  0.00  0.00    -0.082 Cl
ATOM     16  F   UNL A   1     -29.404  -0.465  25.835  0.00  0.00    -0.204 F 
ENDBRANCH   3   9
BRANCH   2  17
ATOM     17  O   UNL A   1     -28.299  -2.018  30.673  0.00  0.00    -0.450 OA
BRANCH  17  18
ATOM     18  C   UNL A   1     -27.587  -3.002  30.160  0.00  0.00    +0.179 C 
ATOM     19  C   UNL A   1     -26.271  -2.798  29.834  0.00  0.00    +0.040 C 
BRANCH  19  20
ATOM     20  C   UNL A   1     -25.568  -1.586  29.894  0.00  0.00    -0.001 C 
ATOM     21  C   UNL A   1     -24.229  -1.509  29.471  0.00  0.00    -0.026 C 
ATOM     22  C   UNL A   1     -23.667  -2.698  28.938  0.00  0.00    +0.031 C 
ENDBRANCH  19  20
ENDBRANCH  17  18
ENDBRANCH   2  17
TORSDOF 4
