MODEL 4237
MODEL 1
REMARK VINA RESULT:    -7.501      0.000      0.000
REMARK INTER + INTRA:         -10.085
REMARK INTER:                  -9.255
REMARK INTRA:                  -0.829
REMARK UNBOUND:                -0.829
REMARK  Name = No_4237-gen_results/8p0m/2024-11-26-14-13-15/
REMARK  4 active torsions:
REMARK  status: ('A' for Active; 'I' for Inactive)
REMARK    1  A    between atoms: C_2  and  O_17
REMARK    2  A    between atoms: C_3  and  C_4
REMARK    3  A    between atoms: O_17  and  C_18
REMARK    4  A    between atoms: C_19  and  C_20
REMARK                            x       y       z     vdW  Elec       q    Type
REMARK                         _______ _______ _______ _____ _____    ______ ____
ROOT
ATOM      1  C   UNL A   1     -24.421   0.403  27.987  0.00  0.00    +0.040 A 
ATOM      2  C   UNL A   1     -23.544   0.200  28.536  0.00  0.00    +0.148 A 
ATOM      3  C   UNL A   1     -24.184   1.211  26.784  0.00  0.00    +0.035 A 
ATOM      4  C   UNL A   1     -22.214   0.754  28.530  0.00  0.00    +0.069 A 
ATOM      5  C   UNL A   1     -21.974   1.533  27.467  0.00  0.00    +0.170 A 
ATOM      6  C   UNL A   1     -22.944   1.781  26.558  0.00  0.00    +0.168 A 
ATOM      7  F   UNL A   1     -22.779   2.538  25.553  0.00  0.00    -0.202 F 
ATOM      8  F   UNL A   1     -20.786   2.091  27.257  0.00  0.00    -0.202 F 
ENDROOT
BRANCH   3   9
ATOM      9  C   UNL A   1     -25.256   1.424  25.792  0.00  0.00    +0.031 A 
ATOM     10  C   UNL A   1     -25.786   0.728  25.172  0.00  0.00    +0.014 A 
ATOM     11  C   UNL A   1     -27.214   0.836  24.849  0.00  0.00    +0.058 A 
ATOM     12  C   UNL A   1     -27.782   2.097  25.054  0.00  0.00    +0.014 A 
ATOM     13  C   UNL A   1     -25.998   2.727  25.947  0.00  0.00    +0.140 A 
ATOM     14  C   UNL A   1     -27.154   2.979  25.569  0.00  0.00    +0.030 A 
ATOM     15 CL   UNL A   1     -28.026  -0.435  24.000  0.00  0.00    -0.082 Cl
ATOM     16  F   UNL A   1     -25.242   3.730  26.663  0.00  0.00    -0.204 F 
ENDBRANCH   3   9
BRANCH   2  17
ATOM     17  O   UNL A   1     -23.721  -0.656  29.759  0.00  0.00    -0.450 OA
BRANCH  17  18
ATOM     18  C   UNL A   1     -24.860  -1.310  29.874  0.00  0.00    +0.179 C 
ATOM     19  C   UNL A   1     -24.955  -2.603  29.427  0.00  0.00    +0.040 C 
BRANCH  19  20
ATOM     20  C   UNL A   1     -23.970  -3.332  28.744  0.00  0.00    -0.001 C 
ATOM     21  C   UNL A   1     -24.076  -4.727  28.602  0.00  0.00    -0.026 C 
ATOM     22  C   UNL A   1     -25.248  -5.327  29.132  0.00  0.00    +0.031 C 
ENDBRANCH  19  20
ENDBRANCH  17  18
ENDBRANCH   2  17
TORSDOF 4
ENDMDL
ENDMDL
