REMARK  Name = No_4238-gen_results/8p0m/2024-11-26-14-13-15/
REMARK  12 active torsions:
REMARK  status: ('A' for Active; 'I' for Inactive)
REMARK    1  A    between atoms: C_5  and  N_8
REMARK    2  A    between atoms: N_11  and  C_12
REMARK    3  A    between atoms: C_12  and  C_13
REMARK    4  A    between atoms: C_12  and  C_20
REMARK    5  A    between atoms: C_13  and  C_14
REMARK    6  A    between atoms: C_16  and  C_22
REMARK    7  A    between atoms: C_18  and  C_29
REMARK    8  A    between atoms: C_20  and  C_25
REMARK    9  A    between atoms: C_25  and  C_26
REMARK   10  A    between atoms: C_29  and  O_30
REMARK   11  A    between atoms: O_30  and  C_31
REMARK   12  A    between atoms: C_31  and  C_32
REMARK                            x       y       z     vdW  Elec       q    Type
REMARK                         _______ _______ _______ _____ _____    ______ ____
ROOT
ATOM      1  C   UNL A   1     -24.424  -0.889  30.863  0.00  0.00    +0.186 C 
ENDROOT
BRANCH   1   5
ATOM      2  N   UNL A   1     -23.604   0.179  28.370  0.00  0.00    -0.063 NA
ATOM      3  C   UNL A   1     -22.738  -0.399  29.292  0.00  0.00    +0.500 C 
ATOM      4  N   UNL A   1     -21.455  -0.460  28.940  0.00  0.00    +0.132 NA
ATOM      5  N   UNL A   1     -23.193  -0.898  30.409  0.00  0.00    -0.092 NA
BRANCH   2  10
ATOM      6  F   UNL A   1     -28.073  -1.254  28.532  0.00  0.00    -0.203 F 
ATOM      7  C   UNL A   1     -27.359  -0.379  28.722  0.00  0.00    +0.153 A 
ATOM      8  C   UNL A   1     -27.701   0.761  29.125  0.00  0.00    +0.085 A 
ATOM      9  C   UNL A   1     -25.884  -0.692  28.437  0.00  0.00    +0.068 A 
ATOM     10  C   UNL A   1     -24.921   0.378  28.601  0.00  0.00    +0.161 A 
ATOM     11  C   UNL A   1     -26.691   1.870  29.270  0.00  0.00    +0.017 A 
ATOM     12  C   UNL A   1     -25.345   1.625  29.001  0.00  0.00    +0.038 A 
ATOM     13 CL   UNL A   1     -29.273   0.940  29.645  0.00  0.00    -0.080 Cl
ENDBRANCH   2  10
ENDBRANCH   1   5
BRANCH   1  14
ATOM     14  C   UNL A   1     -24.470  -0.299  32.346  0.00  0.00    +0.069 C 
BRANCH  14  15
ATOM     15  C   UNL A   1     -25.188   0.952  32.499  0.00  0.00    -0.020 A 
ATOM     16  C   UNL A   1     -24.845   1.940  31.851  0.00  0.00    +0.002 A 
ATOM     17  C   UNL A   1     -25.427   3.309  32.224  0.00  0.00    +0.079 A 
ATOM     18  C   UNL A   1     -26.342   3.337  33.240  0.00  0.00    +0.006 A 
ATOM     19  C   UNL A   1     -26.073   1.059  33.649  0.00  0.00    +0.003 A 
ATOM     20  C   UNL A   1     -26.624   2.253  33.966  0.00  0.00    -0.002 A 
BRANCH  17  21
ATOM     21  C   UNL A   1     -25.024   4.542  31.459  0.00  0.00    +0.388 C 
ATOM     22  O   UNL A   1     -24.192   5.173  32.143  0.00  0.00    -0.241 OA
ATOM     23  O   UNL A   1     -25.421   4.830  30.445  0.00  0.00    -0.241 OA
ENDBRANCH  17  21
BRANCH  19  24
ATOM     24  C   UNL A   1     -26.439  -0.192  34.392  0.00  0.00    +0.168 C 
BRANCH  24  25
ATOM     25  O   UNL A   1     -27.269   0.092  35.287  0.00  0.00    -0.348 OA
BRANCH  25  26
ATOM     26  C   UNL A   1     -28.242  -0.765  35.495  0.00  0.00    +0.160 C 
BRANCH  26  27
ATOM     27  C   UNL A   1     -28.626  -1.331  34.261  0.00  0.00    +0.127 C 
ATOM     28 CL   UNL A   1     -27.799  -1.079  32.927  0.00  0.00    -0.111 Cl
ENDBRANCH  26  27
ENDBRANCH  25  26
ENDBRANCH  24  25
ENDBRANCH  19  24
ENDBRANCH  14  15
ENDBRANCH   1  14
BRANCH   1  29
ATOM     29  C   UNL A   1     -24.842  -2.394  31.180  0.00  0.00    +0.055 C 
BRANCH  29  30
ATOM     30  C   UNL A   1     -25.954  -2.724  30.148  0.00  0.00    +0.118 C 
BRANCH  30  31
ATOM     31  C   UNL A   1     -25.687  -4.127  29.679  0.00  0.00    +0.365 C 
ATOM     32  O   UNL A   1     -26.745  -4.948  29.741  0.00  0.00    -0.246 OA
ATOM     33  O   UNL A   1     -24.679  -4.435  29.036  0.00  0.00    -0.246 OA
ENDBRANCH  30  31
ENDBRANCH  29  30
ENDBRANCH   1  29
TORSDOF 12
