MODEL 4238
MODEL 1
REMARK VINA RESULT:    -5.402      0.000      0.000
REMARK INTER + INTRA:         -11.809
REMARK INTER:                  -9.192
REMARK INTRA:                  -2.618
REMARK UNBOUND:                -2.618
REMARK  Name = No_4238-gen_results/8p0m/2024-11-26-14-13-15/
REMARK  12 active torsions:
REMARK  status: ('A' for Active; 'I' for Inactive)
REMARK    1  A    between atoms: C_5  and  N_8
REMARK    2  A    between atoms: N_11  and  C_12
REMARK    3  A    between atoms: C_12  and  C_13
REMARK    4  A    between atoms: C_12  and  C_20
REMARK    5  A    between atoms: C_13  and  C_14
REMARK    6  A    between atoms: C_16  and  C_22
REMARK    7  A    between atoms: C_18  and  C_29
REMARK    8  A    between atoms: C_20  and  C_25
REMARK    9  A    between atoms: C_25  and  C_26
REMARK   10  A    between atoms: C_29  and  O_30
REMARK   11  A    between atoms: O_30  and  C_31
REMARK   12  A    between atoms: C_31  and  C_32
REMARK                            x       y       z     vdW  Elec       q    Type
REMARK                         _______ _______ _______ _____ _____    ______ ____
ROOT
ATOM      1  C   UNL A   1     -20.907 -20.852   7.141  0.00  0.00    +0.186 C 
ENDROOT
BRANCH   1   5
ATOM      2  N   UNL A   1     -22.144 -22.172   9.322  0.00  0.00    -0.063 NA
ATOM      3  C   UNL A   1     -21.776 -20.831   9.331  0.00  0.00    +0.500 C 
ATOM      4  N   UNL A   1     -22.059 -20.148  10.439  0.00  0.00    +0.132 NA
ATOM      5  N   UNL A   1     -21.236 -20.283   8.276  0.00  0.00    -0.092 NA
BRANCH   2  10
ATOM      6  F   UNL A   1     -19.318 -25.106   6.986  0.00  0.00    -0.203 F 
ATOM      7  C   UNL A   1     -20.363 -24.638   7.024  0.00  0.00    +0.153 A 
ATOM      8  C   UNL A   1     -21.279 -24.843   6.189  0.00  0.00    +0.085 A 
ATOM      9  C   UNL A   1     -20.590 -23.694   8.212  0.00  0.00    +0.068 A 
ATOM     10  C   UNL A   1     -21.869 -23.018   8.304  0.00  0.00    +0.161 A 
ATOM     11  C   UNL A   1     -22.596 -24.116   6.286  0.00  0.00    +0.017 A 
ATOM     12  C   UNL A   1     -22.829 -23.236   7.343  0.00  0.00    +0.038 A 
ATOM     13 CL   UNL A   1     -21.036 -26.063   5.082  0.00  0.00    -0.080 Cl
ENDBRANCH   2  10
ENDBRANCH   1   5
BRANCH   1  14
ATOM     14  C   UNL A   1     -19.429 -20.429   6.710  0.00  0.00    +0.069 C 
BRANCH  14  15
ATOM     15  C   UNL A   1     -18.406 -21.439   6.907  0.00  0.00    -0.020 A 
ATOM     16  C   UNL A   1     -17.730 -21.436   7.935  0.00  0.00    +0.002 A 
ATOM     17  C   UNL A   1     -16.483 -22.327   8.003  0.00  0.00    +0.079 A 
ATOM     18  C   UNL A   1     -16.226 -23.117   6.917  0.00  0.00    +0.006 A 
ATOM     19  C   UNL A   1     -18.017 -22.209   5.735  0.00  0.00    +0.003 A 
ATOM     20  C   UNL A   1     -16.943 -23.029   5.795  0.00  0.00    -0.002 A 
BRANCH  17  21
ATOM     21  C   UNL A   1     -15.626 -22.343   9.241  0.00  0.00    +0.388 C 
ATOM     22  O   UNL A   1     -14.449 -22.578   8.899  0.00  0.00    -0.241 OA
ATOM     23  O   UNL A   1     -16.003 -22.173  10.289  0.00  0.00    -0.241 OA
ENDBRANCH  17  21
BRANCH  19  24
ATOM     24  C   UNL A   1     -18.892 -22.155   4.518  0.00  0.00    +0.168 C 
BRANCH  24  25
ATOM     25  O   UNL A   1     -18.955 -23.298   4.008  0.00  0.00    -0.348 OA
BRANCH  25  26
ATOM     26  C   UNL A   1     -19.657 -23.424   2.906  0.00  0.00    +0.160 C 
BRANCH  26  27
ATOM     27  C   UNL A   1     -20.582 -22.362   2.827  0.00  0.00    +0.127 C 
ATOM     28 CL   UNL A   1     -22.142 -22.589   3.027  0.00  0.00    -0.111 Cl
ENDBRANCH  26  27
ENDBRANCH  25  26
ENDBRANCH  24  25
ENDBRANCH  19  24
ENDBRANCH  14  15
ENDBRANCH   1  14
BRANCH   1  29
ATOM     29  C   UNL A   1     -21.722 -20.134   5.975  0.00  0.00    +0.055 C 
BRANCH  29  30
ATOM     30  C   UNL A   1     -20.770 -19.026   5.448  0.00  0.00    +0.118 C 
BRANCH  30  31
ATOM     31  C   UNL A   1     -21.499 -17.724   5.635  0.00  0.00    +0.365 C 
ATOM     32  O   UNL A   1     -21.887 -17.133   4.496  0.00  0.00    -0.246 OA
ATOM     33  O   UNL A   1     -21.949 -17.363   6.726  0.00  0.00    -0.246 OA
ENDBRANCH  30  31
ENDBRANCH  29  30
ENDBRANCH   1  29
TORSDOF 12
ENDMDL
ENDMDL
