MODEL 4239
MODEL 1
REMARK VINA RESULT:    -6.863      0.000      0.000
REMARK INTER + INTRA:         -11.442
REMARK INTER:                  -9.672
REMARK INTRA:                  -1.770
REMARK UNBOUND:                -1.770
REMARK  Name = No_4239-gen_results/8p0m/2024-11-26-14-13-15/
REMARK  7 active torsions:
REMARK  status: ('A' for Active; 'I' for Inactive)
REMARK    1  A    between atoms: C_2  and  C_19
REMARK    2  A    between atoms: C_3  and  C_7
REMARK    3  A    between atoms: C_6  and  C_13
REMARK    4  A    between atoms: C_8  and  C_16
REMARK    5  A    between atoms: C_19  and  O_20
REMARK    6  A    between atoms: O_20  and  C_22
REMARK    7  A    between atoms: C_23  and  C_24
REMARK                            x       y       z     vdW  Elec       q    Type
REMARK                         _______ _______ _______ _____ _____    ______ ____
ROOT
ATOM      1  C   UNL A   1     -25.556  -0.512  29.552  0.00  0.00    +0.006 A 
ATOM      2  C   UNL A   1     -26.044  -1.229  30.150  0.00  0.00    +0.076 A 
ATOM      3  C   UNL A   1     -24.755  -1.025  28.476  0.00  0.00    +0.001 A 
ATOM      4  C   UNL A   1     -24.491  -2.325  28.319  0.00  0.00    +0.007 A 
ATOM      5  C   UNL A   1     -25.890  -2.677  30.174  0.00  0.00    +0.013 A 
ATOM      6  C   UNL A   1     -25.134  -3.165  29.200  0.00  0.00    +0.080 A 
ENDROOT
BRANCH   3   7
ATOM      7  C   UNL A   1     -24.128   0.001  27.517  0.00  0.00    +0.006 A 
ATOM      8  C   UNL A   1     -24.701   0.641  26.719  0.00  0.00    +0.080 A 
ATOM      9  C   UNL A   1     -23.989   1.574  25.817  0.00  0.00    +0.007 A 
ATOM     10  C   UNL A   1     -22.974   0.760  28.042  0.00  0.00    +0.000 A 
ATOM     11  C   UNL A   1     -22.233   1.710  27.389  0.00  0.00    +0.000 A 
ATOM     12  C   UNL A   1     -22.803   2.140  26.196  0.00  0.00    +0.000 A 
BRANCH   8  13
ATOM     13  C   UNL A   1     -25.992   0.190  25.996  0.00  0.00    +0.388 C 
ATOM     14  O   UNL A   1     -27.159   0.339  26.238  0.00  0.00    -0.241 OA
ATOM     15  O   UNL A   1     -25.714  -0.543  24.859  0.00  0.00    -0.241 OA
ENDBRANCH   8  13
ENDBRANCH   3   7
BRANCH   6  16
ATOM     16  C   UNL A   1     -24.846  -4.646  29.063  0.00  0.00    +0.388 C 
ATOM     17  O   UNL A   1     -25.317  -5.475  29.610  0.00  0.00    -0.241 OA
ATOM     18  O   UNL A   1     -23.817  -4.827  28.165  0.00  0.00    -0.241 OA
ENDBRANCH   6  16
BRANCH   2  19
ATOM     19  C   UNL A   1     -26.986  -0.754  31.379  0.00  0.00    +0.346 C 
ATOM     20  O   UNL A   1     -28.274  -1.163  31.053  0.00  0.00    -0.244 OA
BRANCH  19  21
ATOM     21  O   UNL A   1     -26.704  -0.605  32.349  0.00  0.00    -0.418 OA
BRANCH  21  22
ATOM     22  C   UNL A   1     -26.223   0.221  33.069  0.00  0.00    +0.183 C 
ATOM     23  C   UNL A   1     -24.897   0.144  33.278  0.00  0.00    +0.041 C 
BRANCH  23  24
ATOM     24  C   UNL A   1     -24.219  -1.095  33.130  0.00  0.00    +0.003 C 
ATOM     25  C   UNL A   1     -23.087  -1.008  32.388  0.00  0.00    +0.000 C 
ENDBRANCH  23  24
ENDBRANCH  21  22
ENDBRANCH  19  21
ENDBRANCH   2  19
TORSDOF 7
ENDMDL
ENDMDL
