REMARK  Name = No_4239-gen_results/8p0m/2024-11-26-14-13-15/
REMARK  7 active torsions:
REMARK  status: ('A' for Active; 'I' for Inactive)
REMARK    1  A    between atoms: C_2  and  C_19
REMARK    2  A    between atoms: C_3  and  C_7
REMARK    3  A    between atoms: C_6  and  C_13
REMARK    4  A    between atoms: C_8  and  C_16
REMARK    5  A    between atoms: C_19  and  O_20
REMARK    6  A    between atoms: O_20  and  C_22
REMARK    7  A    between atoms: C_23  and  C_24
REMARK                            x       y       z     vdW  Elec       q    Type
REMARK                         _______ _______ _______ _____ _____    ______ ____
ROOT
ATOM      1  C   UNL A   1     -28.016  -0.814  28.878  0.00  0.00    +0.006 A 
ATOM      2  C   UNL A   1     -28.469  -0.785  29.829  0.00  0.00    +0.076 A 
ATOM      3  C   UNL A   1     -28.196   0.348  28.055  0.00  0.00    +0.001 A 
ATOM      4  C   UNL A   1     -29.019   1.350  28.378  0.00  0.00    +0.007 A 
ATOM      5  C   UNL A   1     -29.411   0.180  30.378  0.00  0.00    +0.013 A 
ATOM      6  C   UNL A   1     -29.606   1.250  29.619  0.00  0.00    +0.080 A 
ENDROOT
BRANCH   3   7
ATOM      7  C   UNL A   1     -27.448   0.380  26.712  0.00  0.00    +0.006 A 
ATOM      8  C   UNL A   1     -27.857   0.815  25.703  0.00  0.00    +0.080 A 
ATOM      9  C   UNL A   1     -27.063   0.758  24.455  0.00  0.00    +0.007 A 
ATOM     10  C   UNL A   1     -25.984   0.569  26.788  0.00  0.00    +0.000 A 
ATOM     11  C   UNL A   1     -25.093   0.615  25.748  0.00  0.00    +0.000 A 
ATOM     12  C   UNL A   1     -25.697   0.725  24.500  0.00  0.00    +0.000 A 
BRANCH   8  13
ATOM     13  C   UNL A   1     -29.351   0.842  25.302  0.00  0.00    +0.388 C 
ATOM     14  O   UNL A   1     -30.119  -0.013  24.951  0.00  0.00    -0.241 OA
ATOM     15  O   UNL A   1     -29.872   2.120  25.349  0.00  0.00    -0.241 OA
ENDBRANCH   8  13
ENDBRANCH   3   7
BRANCH   6  16
ATOM     16  C   UNL A   1     -30.559   2.360  30.014  0.00  0.00    +0.388 C 
ATOM     17  O   UNL A   1     -31.182   2.977  29.352  0.00  0.00    -0.241 OA
ATOM     18  O   UNL A   1     -30.492   2.551  31.377  0.00  0.00    -0.241 OA
ENDBRANCH   6  16
BRANCH   2  19
ATOM     19  C   UNL A   1     -28.311  -2.039  30.842  0.00  0.00    +0.346 C 
ATOM     20  O   UNL A   1     -27.565  -1.569  31.917  0.00  0.00    -0.244 OA
BRANCH  19  21
ATOM     21  O   UNL A   1     -28.942  -2.835  30.939  0.00  0.00    -0.418 OA
BRANCH  21  22
ATOM     22  C   UNL A   1     -29.725  -3.323  31.702  0.00  0.00    +0.183 C 
ATOM     23  C   UNL A   1     -29.986  -4.633  31.547  0.00  0.00    +0.041 C 
BRANCH  23  24
ATOM     24  C   UNL A   1     -29.801  -5.256  30.285  0.00  0.00    +0.003 C 
ATOM     25  C   UNL A   1     -29.351  -4.411  29.325  0.00  0.00    +0.000 C 
ENDBRANCH  23  24
ENDBRANCH  21  22
ENDBRANCH  19  21
ENDBRANCH   2  19
TORSDOF 7
