REMARK  Name = No_424-gen_results/8p0m/2024-11-26-14-13-15/
REMARK  1 active torsions:
REMARK  status: ('A' for Active; 'I' for Inactive)
REMARK    1  A    between atoms: C_11  and  C_15
REMARK                            x       y       z     vdW  Elec       q    Type
REMARK                         _______ _______ _______ _____ _____    ______ ____
ROOT
ATOM      1  C   UNL A   1     -28.016  -0.814  28.878  0.00  0.00    +0.000 A 
ATOM      2  C   UNL A   1     -27.064  -0.119  28.608  0.00  0.00    +0.000 A 
ATOM      3  C   UNL A   1     -26.972   0.714  27.506  0.00  0.00    +0.000 A 
ATOM      4  C   UNL A   1     -28.105   0.774  26.642  0.00  0.00    +0.000 A 
ATOM      5  C   UNL A   1     -29.204   0.118  27.048  0.00  0.00    +0.000 A 
ATOM      6  C   UNL A   1     -29.213  -0.609  28.128  0.00  0.00    +0.000 A 
ATOM      7  C   UNL A   1     -25.711   1.452  27.138  0.00  0.00    +0.000 A 
ATOM      8  C   UNL A   1     -24.605   0.925  27.690  0.00  0.00    +0.002 A 
ATOM      9  C   UNL A   1     -24.594   0.094  28.822  0.00  0.00    +0.000 A 
ATOM     10  C   UNL A   1     -25.708  -0.453  29.247  0.00  0.00    +0.000 A 
ATOM     11  C   UNL A   1     -23.270   1.692  27.412  0.00  0.00    +0.021 A 
ATOM     12  C   UNL A   1     -23.274   2.819  26.655  0.00  0.00    +0.002 A 
ATOM     13  C   UNL A   1     -24.550   3.207  25.978  0.00  0.00    +0.000 A 
ATOM     14  C   UNL A   1     -25.727   2.502  26.282  0.00  0.00    +0.000 A 
ENDROOT
BRANCH  11  15
ATOM     15  C   UNL A   1     -22.006   1.330  28.074  0.00  0.00    +0.122 C 
ATOM     16  N   UNL A   1     -21.965   0.255  28.886  0.00  0.00    -0.146 NA
ENDBRANCH  11  15
TORSDOF 1
