REMARK  Name = No_4240-gen_results/8p0m/2024-11-26-14-13-15/
REMARK  6 active torsions:
REMARK  status: ('A' for Active; 'I' for Inactive)
REMARK    1  A    between atoms: C_5  and  C_8
REMARK    2  A    between atoms: C_9  and  C_11
REMARK    3  A    between atoms: C_11  and  C_12
REMARK    4  A    between atoms: C_15  and  C_18
REMARK    5  A    between atoms: C_18  and  C_19
REMARK    6  A    between atoms: C_19  and  N_20
REMARK                            x       y       z     vdW  Elec       q    Type
REMARK                         _______ _______ _______ _____ _____    ______ ____
ROOT
ATOM      1  C   UNL A   1     -27.122   0.247  32.009  0.00  0.00    -0.018 A 
ATOM      2  C   UNL A   1     -26.562   1.548  31.852  0.00  0.00    -0.004 A 
ATOM      3  C   UNL A   1     -25.554   1.904  31.288  0.00  0.00    -0.004 A 
ATOM      4  C   UNL A   1     -24.757   0.945  30.566  0.00  0.00    -0.013 A 
ATOM      5  C   UNL A   1     -25.172  -0.355  30.668  0.00  0.00    -0.004 A 
ATOM      6  C   UNL A   1     -26.284  -0.704  31.399  0.00  0.00    -0.004 A 
ENDROOT
BRANCH   1   7
ATOM      7  C   UNL A   1     -27.964   0.035  32.780  0.00  0.00    +0.048 C 
BRANCH   7   9
ATOM      8  C   UNL A   1     -30.161   0.114  31.691  0.00  0.00    -0.008 C 
ATOM      9  C   UNL A   1     -29.392   0.021  32.764  0.00  0.00    -0.040 C 
ATOM     10  C   UNL A   1     -30.047  -0.110  34.093  0.00  0.00    +0.027 C 
BRANCH   8  15
ATOM     11  C   UNL A   1     -28.016  -0.814  28.878  0.00  0.00    +0.011 A 
ATOM     12  C   UNL A   1     -28.469  -0.785  29.829  0.00  0.00    +0.001 A 
ATOM     13  C   UNL A   1     -28.196   0.348  28.055  0.00  0.00    +0.058 A 
ATOM     14  C   UNL A   1     -29.019   1.350  28.378  0.00  0.00    +0.011 A 
ATOM     15  C   UNL A   1     -29.411   0.180  30.378  0.00  0.00    -0.001 A 
ATOM     16  C   UNL A   1     -29.606   1.250  29.619  0.00  0.00    +0.001 A 
ATOM     17 CL   UNL A   1     -27.347   0.376  26.515  0.00  0.00    -0.082 Cl
ENDBRANCH   8  15
ENDBRANCH   7   9
ENDBRANCH   1   7
BRANCH   4  18
ATOM     18  C   UNL A   1     -23.599   1.341  29.747  0.00  0.00    +0.113 C 
BRANCH  18  19
ATOM     19  C   UNL A   1     -23.857   2.011  28.515  0.00  0.00    +0.250 C 
ATOM     20  O   UNL A   1     -25.012   2.505  28.127  0.00  0.00    -0.273 OA
BRANCH  19  21
ATOM     21  N   UNL A   1     -22.911   1.917  27.593  0.00  0.00    -0.182 NA
ATOM     22  C   UNL A   1     -23.153   2.322  26.289  0.00  0.00    +0.063 C 
ATOM     23  C   UNL A   1     -24.449   2.871  26.014  0.00  0.00    +0.050 C 
ENDBRANCH  19  21
ENDBRANCH  18  19
ENDBRANCH   4  18
TORSDOF 6
