MODEL 4240
MODEL 1
REMARK VINA RESULT:    -6.677      0.000      0.000
REMARK INTER + INTRA:         -10.464
REMARK INTER:                  -9.019
REMARK INTRA:                  -1.446
REMARK UNBOUND:                -1.446
REMARK  Name = No_4240-gen_results/8p0m/2024-11-26-14-13-15/
REMARK  6 active torsions:
REMARK  status: ('A' for Active; 'I' for Inactive)
REMARK    1  A    between atoms: C_5  and  C_8
REMARK    2  A    between atoms: C_9  and  C_11
REMARK    3  A    between atoms: C_11  and  C_12
REMARK    4  A    between atoms: C_15  and  C_18
REMARK    5  A    between atoms: C_18  and  C_19
REMARK    6  A    between atoms: C_19  and  N_20
REMARK                            x       y       z     vdW  Elec       q    Type
REMARK                         _______ _______ _______ _____ _____    ______ ____
ROOT
ATOM      1  C   UNL A   1     -24.964   0.854  26.977  0.00  0.00    -0.018 A 
ATOM      2  C   UNL A   1     -25.042  -0.172  25.991  0.00  0.00    -0.004 A 
ATOM      3  C   UNL A   1     -25.795  -0.302  25.054  0.00  0.00    -0.004 A 
ATOM      4  C   UNL A   1     -26.758   0.727  24.757  0.00  0.00    -0.013 A 
ATOM      5  C   UNL A   1     -26.809   1.757  25.656  0.00  0.00    -0.004 A 
ATOM      6  C   UNL A   1     -25.979   1.802  26.753  0.00  0.00    -0.004 A 
ENDROOT
BRANCH   1   7
ATOM      7  C   UNL A   1     -24.348   0.717  27.951  0.00  0.00    +0.048 C 
BRANCH   7   9
ATOM      8  C   UNL A   1     -22.662  -0.778  28.922  0.00  0.00    -0.008 C 
ATOM      9  C   UNL A   1     -23.014   0.322  28.276  0.00  0.00    -0.040 C 
ATOM     10  C   UNL A   1     -21.944   1.256  27.836  0.00  0.00    +0.027 C 
BRANCH   8  15
ATOM     11  C   UNL A   1     -25.762  -2.041  30.396  0.00  0.00    +0.011 A 
ATOM     12  C   UNL A   1     -24.900  -1.463  30.211  0.00  0.00    +0.001 A 
ATOM     13  C   UNL A   1     -25.797  -3.339  29.786  0.00  0.00    +0.058 A 
ATOM     14  C   UNL A   1     -24.889  -3.753  28.898  0.00  0.00    +0.011 A 
ATOM     15  C   UNL A   1     -23.809  -1.700  29.276  0.00  0.00    -0.001 A 
ATOM     16  C   UNL A   1     -23.839  -2.887  28.686  0.00  0.00    +0.001 A 
ATOM     17 CL   UNL A   1     -27.166  -4.371  30.182  0.00  0.00    -0.082 Cl
ENDBRANCH   8  15
ENDBRANCH   7   9
ENDBRANCH   1   7
BRANCH   4  18
ATOM     18  C   UNL A   1     -27.604   0.690  23.552  0.00  0.00    +0.113 C 
BRANCH  18  19
ATOM     19  C   UNL A   1     -28.775  -0.123  23.590  0.00  0.00    +0.250 C 
ATOM     20  O   UNL A   1     -28.815  -1.432  23.473  0.00  0.00    -0.273 OA
BRANCH  19  21
ATOM     21  N   UNL A   1     -29.931   0.517  23.499  0.00  0.00    -0.182 NA
ATOM     22  C   UNL A   1     -30.731   0.693  24.618  0.00  0.00    +0.063 C 
ATOM     23  C   UNL A   1     -30.225   0.183  25.859  0.00  0.00    +0.050 C 
ENDBRANCH  19  21
ENDBRANCH  18  19
ENDBRANCH   4  18
TORSDOF 6
ENDMDL
ENDMDL
