MODEL 4241
MODEL 1
REMARK VINA RESULT:    -4.847      0.000      0.000
REMARK INTER + INTRA:          -5.874
REMARK INTER:                  -5.697
REMARK INTRA:                  -0.177
REMARK UNBOUND:                -0.177
REMARK  Name = No_4241-gen_results/8p0m/2024-11-26-14-13-15/
REMARK  3 active torsions:
REMARK  status: ('A' for Active; 'I' for Inactive)
REMARK    1  A    between atoms: C_2  and  C_5
REMARK    2  A    between atoms: C_5  and  N_8
REMARK    3  A    between atoms: N_8  and  C_9
REMARK                            x       y       z     vdW  Elec       q    Type
REMARK                         _______ _______ _______ _____ _____    ______ ____
ROOT
ATOM      1  C   UNL A   1     -23.853  -3.312  28.578  0.00  0.00    -0.003 A 
ATOM      2  C   UNL A   1     -24.587  -2.766  29.102  0.00  0.00    -0.001 A 
ATOM      3  C   UNL A   1     -24.054  -4.811  28.550  0.00  0.00    -0.000 A 
ATOM      4  C   UNL A   1     -25.241  -5.359  29.080  0.00  0.00    -0.000 A 
ATOM      5  C   UNL A   1     -26.130  -4.485  29.664  0.00  0.00    -0.000 A 
ATOM      6  C   UNL A   1     -25.884  -3.131  29.664  0.00  0.00    -0.003 A 
ENDROOT
BRANCH   2   7
ATOM      7  C   UNL A   1     -24.409  -1.230  29.124  0.00  0.00    +0.139 C 
BRANCH   7   8
ATOM      8  N   UNL A   1     -23.596  -0.737  29.978  0.00  0.00    -0.232 NA
BRANCH   8   9
ATOM      9  C   UNL A   1     -22.641  -0.311  30.052  0.00  0.00    +0.081 C 
ATOM     10  C   UNL A   1     -21.655  -0.177  28.963  0.00  0.00    +0.019 C 
ENDBRANCH   8   9
ENDBRANCH   7   8
ENDBRANCH   2   7
TORSDOF 3
ENDMDL
ENDMDL
