REMARK  Name = No_4241-gen_results/8p0m/2024-11-26-14-13-15/
REMARK  3 active torsions:
REMARK  status: ('A' for Active; 'I' for Inactive)
REMARK    1  A    between atoms: C_2  and  C_5
REMARK    2  A    between atoms: C_5  and  N_8
REMARK    3  A    between atoms: N_8  and  C_9
REMARK                            x       y       z     vdW  Elec       q    Type
REMARK                         _______ _______ _______ _____ _____    ______ ____
ROOT
ATOM      1  C   UNL A   1     -28.016  -0.814  28.878  0.00  0.00    -0.003 A 
ATOM      2  C   UNL A   1     -28.469  -0.785  29.829  0.00  0.00    -0.001 A 
ATOM      3  C   UNL A   1     -26.504  -0.778  28.877  0.00  0.00    -0.000 A 
ATOM      4  C   UNL A   1     -25.810  -0.853  30.103  0.00  0.00    -0.000 A 
ATOM      5  C   UNL A   1     -26.567  -0.885  31.252  0.00  0.00    -0.000 A 
ATOM      6  C   UNL A   1     -27.941  -0.907  31.185  0.00  0.00    -0.003 A 
ENDROOT
BRANCH   2   7
ATOM      7  C   UNL A   1     -30.014  -0.841  29.851  0.00  0.00    +0.139 C 
BRANCH   7   8
ATOM      8  N   UNL A   1     -30.648  -0.134  28.995  0.00  0.00    -0.232 NA
BRANCH   8   9
ATOM      9  C   UNL A   1     -31.564   0.354  28.851  0.00  0.00    +0.081 C 
ATOM     10  C   UNL A   1     -32.018   1.020  27.616  0.00  0.00    +0.019 C 
ENDBRANCH   8   9
ENDBRANCH   7   8
ENDBRANCH   2   7
TORSDOF 3
