MODEL 4242
MODEL 1
REMARK VINA RESULT:    -5.907      0.000      0.000
REMARK INTER + INTRA:          -6.659
REMARK INTER:                  -6.598
REMARK INTRA:                  -0.061
REMARK UNBOUND:                -0.061
REMARK  Name = No_4242-gen_results/8p0m/2024-11-26-14-13-15/
REMARK  2 active torsions:
REMARK  status: ('A' for Active; 'I' for Inactive)
REMARK    1  A    between atoms: C_2  and  C_7
REMARK    2  A    between atoms: N_9  and  C_11
REMARK                            x       y       z     vdW  Elec       q    Type
REMARK                         _______ _______ _______ _____ _____    ______ ____
ROOT
ATOM      1  C   UNL A   1     -23.777   0.515  29.870  0.00  0.00    +0.253 C 
ATOM      2  O   UNL A   1     -23.457   1.525  29.631  0.00  0.00    -0.270 OA
ATOM      3  N   UNL A   1     -24.194  -0.393  28.891  0.00  0.00    -0.253 N 
ATOM      4  C   UNL A   1     -24.222   0.036  27.537  0.00  0.00    +0.120 C 
ENDROOT
BRANCH   1   6
ATOM      5  C   UNL A   1     -24.829   0.239  31.875  0.00  0.00    +0.004 A 
ATOM      6  C   UNL A   1     -23.988  -0.101  31.338  0.00  0.00    +0.054 A 
ATOM      7  C   UNL A   1     -24.996  -0.347  33.259  0.00  0.00    +0.000 A 
ATOM      8  C   UNL A   1     -23.981  -1.170  33.789  0.00  0.00    +0.000 A 
ATOM      9  C   UNL A   1     -22.789  -0.907  31.661  0.00  0.00    +0.004 A 
ATOM     10  C   UNL A   1     -22.904  -1.457  32.929  0.00  0.00    +0.000 A 
ENDBRANCH   1   6
BRANCH   3  11
ATOM     11  C   UNL A   1     -24.598  -1.768  29.149  0.00  0.00    +0.054 A 
ATOM     12  C   UNL A   1     -25.995  -1.847  29.509  0.00  0.00    +0.015 A 
ATOM     13  C   UNL A   1     -26.396  -3.045  29.625  0.00  0.00    +0.001 A 
ATOM     14  C   UNL A   1     -25.631  -4.264  29.479  0.00  0.00    +0.000 A 
ATOM     15  C   UNL A   1     -24.313  -4.075  29.165  0.00  0.00    +0.001 A 
ATOM     16  C   UNL A   1     -23.806  -2.806  28.928  0.00  0.00    +0.015 A 
ENDBRANCH   3  11
TORSDOF 2
ENDMDL
ENDMDL
