MODEL 4243
MODEL 1
REMARK VINA RESULT:    -4.747      0.000      0.000
REMARK INTER + INTRA:          -5.058
REMARK INTER:                  -5.025
REMARK INTRA:                  -0.033
REMARK UNBOUND:                -0.033
REMARK  Name = No_4243-gen_results/8p0m/2024-11-26-14-13-15/
REMARK  1 active torsions:
REMARK  status: ('A' for Active; 'I' for Inactive)
REMARK    1  A    between atoms: C_7  and  C_8
REMARK                            x       y       z     vdW  Elec       q    Type
REMARK                         _______ _______ _______ _____ _____    ______ ____
ROOT
ATOM      1  O   UNL A   1     -30.555 -10.239  29.533  0.00  0.00    -0.273 OA
ATOM      2  C   UNL A   1     -29.819 -10.480  30.497  0.00  0.00    +0.241 C 
ATOM      3  N   UNL A   1     -29.858 -10.108  31.424  0.00  0.00    -0.205 NA
ATOM      4  C   UNL A   1     -28.731 -11.648  30.292  0.00  0.00    +0.087 C 
ATOM      5  C   UNL A   1     -27.953 -12.031  31.447  0.00  0.00    +0.023 C 
ATOM      6  C   UNL A   1     -29.109 -10.318  32.691  0.00  0.00    +0.126 C 
ATOM      7  C   UNL A   1     -28.105 -11.313  32.605  0.00  0.00    +0.126 C 
ENDROOT
BRANCH   7   8
ATOM      8  C   UNL A   1     -27.298 -11.639  33.742  0.00  0.00    +0.366 C 
ATOM      9  O   UNL A   1     -27.159 -10.801  34.707  0.00  0.00    -0.246 OA
ATOM     10  O   UNL A   1     -26.777 -12.833  33.867  0.00  0.00    -0.246 OA
ENDBRANCH   7   8
TORSDOF 1
ENDMDL
ENDMDL
