REMARK  Name = No_4243-gen_results/8p0m/2024-11-26-14-13-15/
REMARK  1 active torsions:
REMARK  status: ('A' for Active; 'I' for Inactive)
REMARK    1  A    between atoms: C_7  and  C_8
REMARK                            x       y       z     vdW  Elec       q    Type
REMARK                         _______ _______ _______ _____ _____    ______ ____
ROOT
ATOM      1  O   UNL A   1     -28.123  -1.335  28.487  0.00  0.00    -0.273 OA
ATOM      2  C   UNL A   1     -27.064  -0.824  28.869  0.00  0.00    +0.241 C 
ATOM      3  N   UNL A   1     -26.894  -0.266  29.681  0.00  0.00    -0.205 NA
ATOM      4  C   UNL A   1     -25.743  -1.210  28.036  0.00  0.00    +0.087 C 
ATOM      5  C   UNL A   1     -24.480  -0.728  28.547  0.00  0.00    +0.023 C 
ATOM      6  C   UNL A   1     -25.706   0.370  30.310  0.00  0.00    +0.126 C 
ATOM      7  C   UNL A   1     -24.491   0.110  29.631  0.00  0.00    +0.126 C 
ENDROOT
BRANCH   7   8
ATOM      8  C   UNL A   1     -23.254   0.647  30.114  0.00  0.00    +0.366 C 
ATOM      9  O   UNL A   1     -22.133   0.239  29.636  0.00  0.00    -0.246 OA
ATOM     10  O   UNL A   1     -23.249   1.635  30.972  0.00  0.00    -0.246 OA
ENDBRANCH   7   8
TORSDOF 1
