MODEL 4244
MODEL 1
REMARK VINA RESULT:    -5.344      0.000      0.000
REMARK INTER + INTRA:          -5.798
REMARK INTER:                  -5.656
REMARK INTRA:                  -0.142
REMARK UNBOUND:                -0.142
REMARK  Name = No_4244-gen_results/8p0m/2024-11-26-14-13-15/
REMARK  1 active torsions:
REMARK  status: ('A' for Active; 'I' for Inactive)
REMARK    1  A    between atoms: C_4  and  C_7
REMARK                            x       y       z     vdW  Elec       q    Type
REMARK                         _______ _______ _______ _____ _____    ______ ____
ROOT
ATOM      1  C   UNL A   1     -24.643  -5.197  28.936  0.00  0.00    -0.000 A 
ATOM      2  C   UNL A   1     -25.615  -5.097  29.331  0.00  0.00    -0.000 A 
ATOM      3  C   UNL A   1     -23.921  -3.950  28.642  0.00  0.00    -0.000 A 
ATOM      4  C   UNL A   1     -24.471  -2.688  29.013  0.00  0.00    -0.000 A 
ATOM      5  C   UNL A   1     -25.722  -2.720  29.576  0.00  0.00    -0.000 A 
ATOM      6  C   UNL A   1     -26.351  -3.893  29.800  0.00  0.00    -0.000 A 
ENDROOT
BRANCH   4   7
ATOM      7  C   UNL A   1     -23.770  -1.458  28.750  0.00  0.00    -0.005 C 
ATOM      8  C   UNL A   1     -22.635  -1.137  29.238  0.00  0.00    -0.026 C 
ATOM      9  C   UNL A   1     -21.863   0.026  28.784  0.00  0.00    +0.031 C 
ENDBRANCH   4   7
TORSDOF 1
ENDMDL
ENDMDL
