REMARK  Name = No_4246-gen_results/8p0m/2024-11-26-14-13-15/
REMARK  0 active torsions:
REMARK  status: ('A' for Active; 'I' for Inactive)
REMARK                            x       y       z     vdW  Elec       q    Type
REMARK                         _______ _______ _______ _____ _____    ______ ____
ROOT
ATOM      1  O   UNL A   1     -28.123  -1.335  28.487  0.00  0.00    -0.296 OA
ATOM      2  C   UNL A   1     -27.064  -0.824  28.869  0.00  0.00    +0.155 C 
ATOM      3  C   UNL A   1     -25.946  -1.040  28.849  0.00  0.00    +0.090 C 
ATOM      4  C   UNL A   1     -24.760  -0.156  29.164  0.00  0.00    -0.019 A 
ATOM      5  C   UNL A   1     -23.389  -0.455  29.016  0.00  0.00    -0.008 A 
ATOM      6  C   UNL A   1     -27.273   0.677  29.567  0.00  0.00    +0.070 C 
ATOM      7  C   UNL A   1     -26.273   1.523  29.867  0.00  0.00    +0.034 C 
ATOM      8  C   UNL A   1     -24.982   1.160  29.699  0.00  0.00    -0.025 A 
ATOM      9  C   UNL A   1     -22.364   0.477  28.955  0.00  0.00    -0.022 A 
ATOM     10  C   UNL A   1     -22.699   1.772  29.235  0.00  0.00    -0.005 A 
ATOM     11  C   UNL A   1     -23.901   2.112  29.743  0.00  0.00    -0.005 A 
ATOM     12  C   UNL A   1     -20.997   0.088  28.644  0.00  0.00    +0.031 C 
ENDROOT
TORSDOF 0
