MODEL 4246
MODEL 1
REMARK VINA RESULT:    -6.091      0.000      0.000
REMARK INTER + INTRA:          -6.091
REMARK INTER:                  -6.091
REMARK INTRA:                   0.000
REMARK UNBOUND:                 0.000
REMARK  Name = No_4246-gen_results/8p0m/2024-11-26-14-13-15/
REMARK  0 active torsions:
REMARK  status: ('A' for Active; 'I' for Inactive)
REMARK                            x       y       z     vdW  Elec       q    Type
REMARK                         _______ _______ _______ _____ _____    ______ ____
ROOT
ATOM      1  O   UNL A   1     -27.295 -12.443  34.511  0.00  0.00    -0.296 OA
ATOM      2  C   UNL A   1     -27.720 -11.907  33.481  0.00  0.00    +0.155 C 
ATOM      3  C   UNL A   1     -27.703 -12.071  32.354  0.00  0.00    +0.090 C 
ATOM      4  C   UNL A   1     -28.503 -11.423  31.246  0.00  0.00    -0.019 A 
ATOM      5  C   UNL A   1     -28.510 -11.749  29.873  0.00  0.00    -0.008 A 
ATOM      6  C   UNL A   1     -28.679 -10.576  33.780  0.00  0.00    +0.070 C 
ATOM      7  C   UNL A   1     -29.426  -9.952  32.854  0.00  0.00    +0.034 C 
ATOM      8  C   UNL A   1     -29.375 -10.322  31.555  0.00  0.00    -0.025 A 
ATOM      9  C   UNL A   1     -29.503 -11.404  28.969  0.00  0.00    -0.022 A 
ATOM     10  C   UNL A   1     -30.457 -10.533  29.413  0.00  0.00    -0.005 A 
ATOM     11  C   UNL A   1     -30.345  -9.877  30.586  0.00  0.00    -0.005 A 
ATOM     12  C   UNL A   1     -29.506 -11.916  27.607  0.00  0.00    +0.031 C 
ENDROOT
TORSDOF 0
ENDMDL
ENDMDL
