MODEL 4247
MODEL 1
REMARK VINA RESULT:    -5.429      0.000      0.000
REMARK INTER + INTRA:          -5.779
REMARK INTER:                  -5.746
REMARK INTRA:                  -0.034
REMARK UNBOUND:                -0.034
REMARK  Name = No_4247-gen_results/8p0m/2024-11-26-14-13-15/
REMARK  1 active torsions:
REMARK  status: ('A' for Active; 'I' for Inactive)
REMARK    1  A    between atoms: C_2  and  C_5
REMARK                            x       y       z     vdW  Elec       q    Type
REMARK                         _______ _______ _______ _____ _____    ______ ____
ROOT
ATOM      1  C   UNL A   1      -8.499 -10.491  18.424  0.00  0.00    +0.007 A 
ATOM      2  C   UNL A   1      -9.504 -10.178  18.373  0.00  0.00    +0.080 A 
ATOM      3  C   UNL A   1      -7.854 -10.179  19.705  0.00  0.00    +0.000 A 
ATOM      4  C   UNL A   1      -8.433  -9.413  20.631  0.00  0.00    +0.000 A 
ATOM      5  C   UNL A   1      -9.717  -9.021  20.406  0.00  0.00    +0.000 A 
ATOM      6  C   UNL A   1     -10.298  -9.395  19.246  0.00  0.00    +0.007 A 
ENDROOT
BRANCH   2   7
ATOM      7  C   UNL A   1     -10.343 -10.485  17.057  0.00  0.00    +0.388 C 
ATOM      8  O   UNL A   1     -11.498 -10.520  16.956  0.00  0.00    -0.241 OA
ATOM      9  O   UNL A   1      -9.647 -11.009  16.063  0.00  0.00    -0.241 OA
ENDBRANCH   2   7
TORSDOF 1
ENDMDL
ENDMDL
