REMARK  Name = No_4248-gen_results/8p0m/2024-11-26-14-13-15/
REMARK  0 active torsions:
REMARK  status: ('A' for Active; 'I' for Inactive)
REMARK                            x       y       z     vdW  Elec       q    Type
REMARK                         _______ _______ _______ _____ _____    ______ ____
ROOT
ATOM      1  C   UNL A   1     -28.016  -0.814  28.878  0.00  0.00    +0.019 A 
ATOM      2  C   UNL A   1     -27.064  -0.119  28.608  0.00  0.00    +0.013 A 
ATOM      3  C   UNL A   1     -26.972   0.714  27.506  0.00  0.00    +0.188 C 
ATOM      4  C   UNL A   1     -25.820   1.491  27.116  0.00  0.00    +0.066 C 
ATOM      5  C   UNL A   1     -24.858   1.342  27.601  0.00  0.00    -0.019 A 
ATOM      6  C   UNL A   1     -24.622   0.529  28.814  0.00  0.00    -0.003 A 
ATOM      7  C   UNL A   1     -23.341   0.398  29.501  0.00  0.00    -0.000 A 
ATOM      8  C   UNL A   1     -25.744  -0.220  29.229  0.00  0.00    +0.018 A 
ATOM      9  C   UNL A   1     -22.165   0.504  28.789  0.00  0.00    -0.000 A 
ATOM     10  C   UNL A   1     -27.991  -1.297  30.351  0.00  0.00    +0.099 A 
ATOM     11  N   UNL A   1     -26.809  -1.591  30.945  0.00  0.00    -0.242 NA
ATOM     12  C   UNL A   1     -25.689  -0.849  30.515  0.00  0.00    +0.099 A 
ATOM     13  C   UNL A   1     -22.081   1.407  27.728  0.00  0.00    -0.000 A 
ATOM     14  C   UNL A   1     -23.441   1.915  27.033  0.00  0.00    -0.004 A 
ATOM     15  F   UNL A   1     -28.136   0.797  26.811  0.00  0.00    -0.232 F 
ENDROOT
TORSDOF 0
