MODEL 4248
MODEL 1
REMARK VINA RESULT:    -6.429      0.000      0.000
REMARK INTER + INTRA:          -6.429
REMARK INTER:                  -6.429
REMARK INTRA:                   0.000
REMARK UNBOUND:                 0.000
REMARK  Name = No_4248-gen_results/8p0m/2024-11-26-14-13-15/
REMARK  0 active torsions:
REMARK  status: ('A' for Active; 'I' for Inactive)
REMARK                            x       y       z     vdW  Elec       q    Type
REMARK                         _______ _______ _______ _____ _____    ______ ____
ROOT
ATOM      1  C   UNL A   1     -24.620  -1.595  30.916  0.00  0.00    +0.019 A 
ATOM      2  C   UNL A   1     -23.983  -1.047  30.046  0.00  0.00    +0.013 A 
ATOM      3  C   UNL A   1     -22.694  -0.563  30.187  0.00  0.00    +0.188 C 
ATOM      4  C   UNL A   1     -21.941   0.166  29.194  0.00  0.00    +0.066 C 
ATOM      5  C   UNL A   1     -22.421   0.529  28.289  0.00  0.00    -0.019 A 
ATOM      6  C   UNL A   1     -23.785   0.179  27.837  0.00  0.00    -0.003 A 
ATOM      7  C   UNL A   1     -24.391   0.612  26.581  0.00  0.00    -0.000 A 
ATOM      8  C   UNL A   1     -24.531  -0.556  28.783  0.00  0.00    +0.018 A 
ATOM      9  C   UNL A   1     -24.020   1.814  26.017  0.00  0.00    -0.000 A 
ATOM     10  C   UNL A   1     -25.834  -2.376  30.350  0.00  0.00    +0.099 A 
ATOM     11  N   UNL A   1     -26.515  -1.887  29.285  0.00  0.00    -0.242 NA
ATOM     12  C   UNL A   1     -25.766  -1.141  28.351  0.00  0.00    +0.099 A 
ATOM     13  C   UNL A   1     -22.694   2.241  26.114  0.00  0.00    -0.000 A 
ATOM     14  C   UNL A   1     -21.764   1.624  27.274  0.00  0.00    -0.004 A 
ATOM     15  F   UNL A   1     -22.135  -0.896  31.379  0.00  0.00    -0.232 F 
ENDROOT
TORSDOF 0
ENDMDL
ENDMDL
