MODEL 4249
MODEL 1
REMARK VINA RESULT:    -5.831      0.000      0.000
REMARK INTER + INTRA:          -7.245
REMARK INTER:                  -6.854
REMARK INTRA:                  -0.391
REMARK UNBOUND:                -0.391
REMARK  Name = No_4249-gen_results/8p0m/2024-11-26-14-13-15/
REMARK  3 active torsions:
REMARK  status: ('A' for Active; 'I' for Inactive)
REMARK    1  A    between atoms: C_8  and  C_11
REMARK    2  A    between atoms: C_10  and  C_15
REMARK    3  A    between atoms: N_12  and  C_19
REMARK                            x       y       z     vdW  Elec       q    Type
REMARK                         _______ _______ _______ _____ _____    ______ ____
ROOT
ATOM      1  C   UNL A   1      -9.975   3.065  10.383  0.00  0.00    +0.003 A 
ATOM      2  C   UNL A   1      -9.205   2.157  10.174  0.00  0.00    +0.006 A 
ATOM      3  C   UNL A   1      -8.790   1.231  11.116  0.00  0.00    +0.003 A 
ATOM      4  C   UNL A   1      -9.342   1.346  12.426  0.00  0.00    +0.030 A 
ATOM      5  C   UNL A   1     -10.311   2.261  12.590  0.00  0.00    +0.140 A 
ATOM      6  C   UNL A   1     -10.670   3.064  11.630  0.00  0.00    +0.030 A 
ATOM      7  C   UNL A   1      -7.722   0.204  10.843  0.00  0.00    +0.005 A 
ATOM      8  C   UNL A   1      -6.933   0.520   9.803  0.00  0.00    +0.054 A 
ATOM      9  C   UNL A   1      -7.275   1.424   8.784  0.00  0.00    +0.011 A 
ATOM     10  C   UNL A   1      -8.292   2.238   8.942  0.00  0.00    +0.080 A 
ATOM     11  F   UNL A   1     -10.934   2.296  13.751  0.00  0.00    -0.204 F 
ENDROOT
BRANCH   8  12
ATOM     12  C   UNL A   1      -5.853  -0.543   9.416  0.00  0.00    +0.253 C 
ATOM     13  N   UNL A   1      -4.629  -0.446   9.938  0.00  0.00    -0.252 N 
ATOM     14  O   UNL A   1      -6.168  -1.556   8.726  0.00  0.00    -0.270 OA
ATOM     15  C   UNL A   1      -3.553  -1.444   9.676  0.00  0.00    +0.120 C 
BRANCH  13  16
ATOM     16  C   UNL A   1      -4.149   0.687  10.673  0.00  0.00    +0.068 C 
ATOM     17  C   UNL A   1      -3.232   1.265  10.742  0.00  0.00    +0.018 C 
ENDBRANCH  13  16
ENDBRANCH   8  12
BRANCH  10  18
ATOM     18  C   UNL A   1      -8.495   3.319   7.969  0.00  0.00    +0.388 C 
ATOM     19  O   UNL A   1      -7.650   4.087   7.895  0.00  0.00    -0.241 OA
ATOM     20  O   UNL A   1      -9.525   3.201   7.196  0.00  0.00    -0.241 OA
ENDBRANCH  10  18
TORSDOF 3
ENDMDL
ENDMDL
