REMARK  Name = No_4249-gen_results/8p0m/2024-11-26-14-13-15/
REMARK  3 active torsions:
REMARK  status: ('A' for Active; 'I' for Inactive)
REMARK    1  A    between atoms: C_8  and  C_11
REMARK    2  A    between atoms: C_10  and  C_15
REMARK    3  A    between atoms: N_12  and  C_19
REMARK                            x       y       z     vdW  Elec       q    Type
REMARK                         _______ _______ _______ _____ _____    ______ ____
ROOT
ATOM      1  C   UNL A   1     -28.016  -0.814  28.878  0.00  0.00    +0.003 A 
ATOM      2  C   UNL A   1     -27.064  -0.119  28.608  0.00  0.00    +0.006 A 
ATOM      3  C   UNL A   1     -26.972   0.714  27.506  0.00  0.00    +0.003 A 
ATOM      4  C   UNL A   1     -28.105   0.774  26.642  0.00  0.00    +0.030 A 
ATOM      5  C   UNL A   1     -29.204   0.118  27.048  0.00  0.00    +0.140 A 
ATOM      6  C   UNL A   1     -29.213  -0.609  28.128  0.00  0.00    +0.030 A 
ATOM      7  C   UNL A   1     -25.711   1.452  27.138  0.00  0.00    +0.005 A 
ATOM      8  C   UNL A   1     -24.605   0.925  27.690  0.00  0.00    +0.054 A 
ATOM      9  C   UNL A   1     -24.594   0.094  28.822  0.00  0.00    +0.011 A 
ATOM     10  C   UNL A   1     -25.708  -0.453  29.247  0.00  0.00    +0.080 A 
ATOM     11  F   UNL A   1     -30.306   0.268  26.340  0.00  0.00    -0.204 F 
ENDROOT
BRANCH   8  12
ATOM     12  C   UNL A   1     -23.270   1.692  27.412  0.00  0.00    +0.253 C 
ATOM     13  N   UNL A   1     -22.120   1.173  27.846  0.00  0.00    -0.252 N 
ATOM     14  O   UNL A   1     -23.262   2.718  26.672  0.00  0.00    -0.270 OA
ATOM     15  C   UNL A   1     -20.794   1.799  27.577  0.00  0.00    +0.120 C 
BRANCH  13  16
ATOM     16  C   UNL A   1     -22.021   0.058  28.742  0.00  0.00    +0.068 C 
ATOM     17  C   UNL A   1     -22.616  -0.385  29.535  0.00  0.00    +0.018 C 
ENDBRANCH  13  16
ENDBRANCH   8  12
BRANCH  10  18
ATOM     18  C   UNL A   1     -25.641  -1.487  30.288  0.00  0.00    +0.388 C 
ATOM     19  O   UNL A   1     -25.343  -1.123  31.331  0.00  0.00    -0.241 OA
ATOM     20  O   UNL A   1     -26.075  -2.658  29.954  0.00  0.00    -0.241 OA
ENDBRANCH  10  18
TORSDOF 3
