MODEL 424
MODEL 1
REMARK VINA RESULT:    -6.635      0.000      0.000
REMARK INTER + INTRA:          -7.084
REMARK INTER:                  -7.023
REMARK INTRA:                  -0.061
REMARK UNBOUND:                -0.061
REMARK  Name = No_424-gen_results/8p0m/2024-11-26-14-13-15/
REMARK  1 active torsions:
REMARK  status: ('A' for Active; 'I' for Inactive)
REMARK    1  A    between atoms: C_11  and  C_15
REMARK                            x       y       z     vdW  Elec       q    Type
REMARK                         _______ _______ _______ _____ _____    ______ ____
ROOT
ATOM      1  C   UNL A   1     -24.073   1.426  25.620  0.00  0.00    +0.000 A 
ATOM      2  C   UNL A   1     -24.232   0.823  26.656  0.00  0.00    +0.000 A 
ATOM      3  C   UNL A   1     -23.299   0.728  27.674  0.00  0.00    +0.000 A 
ATOM      4  C   UNL A   1     -22.067   1.425  27.493  0.00  0.00    +0.000 A 
ATOM      5  C   UNL A   1     -21.979   2.214  26.410  0.00  0.00    +0.000 A 
ATOM      6  C   UNL A   1     -22.930   2.275  25.523  0.00  0.00    +0.000 A 
ATOM      7  C   UNL A   1     -23.489  -0.151  28.883  0.00  0.00    +0.000 A 
ATOM      8  C   UNL A   1     -24.397  -1.124  28.696  0.00  0.00    +0.002 A 
ATOM      9  C   UNL A   1     -25.398  -1.106  27.711  0.00  0.00    +0.000 A 
ATOM     10  C   UNL A   1     -25.327  -0.252  26.718  0.00  0.00    +0.000 A 
ATOM     11  C   UNL A   1     -24.701  -2.024  29.939  0.00  0.00    +0.021 A 
ATOM     12  C   UNL A   1     -24.064  -1.800  31.117  0.00  0.00    +0.002 A 
ATOM     13  C   UNL A   1     -22.967  -0.783  31.142  0.00  0.00    +0.000 A 
ATOM     14  C   UNL A   1     -22.752   0.018  30.007  0.00  0.00    +0.000 A 
ENDROOT
BRANCH  11  15
ATOM     15  C   UNL A   1     -25.781  -3.025  29.937  0.00  0.00    +0.122 C 
ATOM     16  N   UNL A   1     -25.532  -4.270  29.484  0.00  0.00    -0.146 NA
ENDBRANCH  11  15
TORSDOF 1
ENDMDL
ENDMDL
