REMARK  Name = No_425-gen_results/8p0m/2024-11-26-14-13-15/
REMARK  3 active torsions:
REMARK  status: ('A' for Active; 'I' for Inactive)
REMARK    1  A    between atoms: C_3  and  C_7
REMARK    2  A    between atoms: C_5  and  O_12
REMARK    3  A    between atoms: O_12  and  C_13
REMARK                            x       y       z     vdW  Elec       q    Type
REMARK                         _______ _______ _______ _____ _____    ______ ____
ROOT
ATOM      1  C   UNL A   1     -28.016  -0.814  28.878  0.00  0.00    +0.005 A 
ATOM      2  C   UNL A   1     -28.469  -0.785  29.829  0.00  0.00    +0.003 A 
ATOM      3  C   UNL A   1     -28.196   0.348  28.055  0.00  0.00    +0.057 A 
ATOM      4  C   UNL A   1     -29.019   1.350  28.378  0.00  0.00    +0.042 A 
ATOM      5  C   UNL A   1     -29.625   1.268  29.601  0.00  0.00    +0.146 A 
ATOM      6  C   UNL A   1     -29.382   0.182  30.400  0.00  0.00    +0.037 A 
ENDROOT
BRANCH   3   7
ATOM      7  C   UNL A   1     -27.450   0.375  26.707  0.00  0.00    +0.249 C 
ATOM      8  O   UNL A   1     -26.457   0.260  26.642  0.00  0.00    -0.270 OA
ATOM      9  N   UNL A   1     -28.310   0.300  25.550  0.00  0.00    -0.273 N 
ATOM     10  C   UNL A   1     -29.699   0.435  25.576  0.00  0.00    +0.115 C 
ATOM     11  C   UNL A   1     -27.647   0.240  24.288  0.00  0.00    +0.115 C 
ENDBRANCH   3   7
BRANCH   5  12
ATOM     12  O   UNL A   1     -30.430   2.266  30.006  0.00  0.00    -0.451 OA
BRANCH  12  13
ATOM     13  C   UNL A   1     -30.179   2.926  31.086  0.00  0.00    +0.175 C 
ATOM     14  C   UNL A   1     -30.373   4.189  31.174  0.00  0.00    +0.015 C 
ATOM     15  C   UNL A   1     -30.078   4.934  32.366  0.00  0.00    +0.034 C 
ENDBRANCH  12  13
ENDBRANCH   5  12
TORSDOF 3
