MODEL 4250
MODEL 1
REMARK VINA RESULT:    -6.994      0.000      0.000
REMARK INTER + INTRA:         -11.641
REMARK INTER:                 -10.265
REMARK INTRA:                  -1.376
REMARK UNBOUND:                -1.376
REMARK  Name = No_4250-gen_results/8p0m/2024-11-26-14-13-15/
REMARK  8 active torsions:
REMARK  status: ('A' for Active; 'I' for Inactive)
REMARK    1  A    between atoms: C_3  and  C_8
REMARK    2  A    between atoms: C_6  and  O_7
REMARK    3  A    between atoms: O_7  and  C_14
REMARK    4  A    between atoms: C_14  and  C_15
REMARK    5  A    between atoms: C_15  and  O_16
REMARK    6  A    between atoms: O_16  and  C_17
REMARK    7  A    between atoms: C_18  and  C_23
REMARK    8  A    between atoms: C_23  and  C_25
REMARK                            x       y       z     vdW  Elec       q    Type
REMARK                         _______ _______ _______ _____ _____    ______ ____
ROOT
ATOM      1  O   UNL A   1     -26.593   2.808  29.367  0.00  0.00    -0.471 OA
ENDROOT
BRANCH   1   7
ATOM      2  C   UNL A   1     -25.019   1.052  30.056  0.00  0.00    +0.037 A 
ATOM      3  C   UNL A   1     -24.738  -0.123  30.098  0.00  0.00    +0.003 A 
ATOM      4  C   UNL A   1     -25.480  -1.118  29.462  0.00  0.00    +0.000 A 
ATOM      5  C   UNL A   1     -26.691  -0.751  28.755  0.00  0.00    +0.003 A 
ATOM      6  C   UNL A   1     -26.961   0.637  28.756  0.00  0.00    +0.037 A 
ATOM      7  C   UNL A   1     -26.206   1.498  29.390  0.00  0.00    +0.139 A 
BRANCH   4   8
ATOM      8  C   UNL A   1     -25.317  -2.600  29.271  0.00  0.00    +0.000 A 
ATOM      9  C   UNL A   1     -26.266  -3.430  29.843  0.00  0.00    +0.000 A 
ATOM     10  C   UNL A   1     -26.100  -4.851  29.693  0.00  0.00    +0.000 A 
ATOM     11  C   UNL A   1     -24.940  -5.402  29.060  0.00  0.00    +0.000 A 
ATOM     12  C   UNL A   1     -24.199  -3.202  28.689  0.00  0.00    +0.000 A 
ATOM     13  C   UNL A   1     -24.034  -4.601  28.578  0.00  0.00    +0.000 A 
ENDBRANCH   4   8
ENDBRANCH   1   7
BRANCH   1  14
ATOM     14  C   UNL A   1     -26.533   3.596  28.242  0.00  0.00    +0.253 C 
BRANCH  14  15
ATOM     15  C   UNL A   1     -25.403   3.790  27.704  0.00  0.00    +0.253 C 
BRANCH  15  16
ATOM     16  O   UNL A   1     -25.515   3.540  26.392  0.00  0.00    -0.472 OA
BRANCH  16  17
ATOM     17  C   UNL A   1     -25.812   2.336  25.914  0.00  0.00    +0.135 A 
ATOM     18  C   UNL A   1     -24.794   1.635  25.675  0.00  0.00    +0.019 A 
ATOM     19  C   UNL A   1     -24.912   0.312  25.200  0.00  0.00    -0.001 A 
ATOM     20  C   UNL A   1     -26.213  -0.138  24.851  0.00  0.00    -0.000 A 
ATOM     21  C   UNL A   1     -27.264   0.692  25.091  0.00  0.00    +0.003 A 
ATOM     22  C   UNL A   1     -27.124   1.948  25.630  0.00  0.00    +0.037 A 
BRANCH  18  23
ATOM     23  C   UNL A   1     -23.374   1.986  25.982  0.00  0.00    +0.090 C 
ATOM     24  C   UNL A   1     -22.598   2.585  25.148  0.00  0.00    +0.013 C 
BRANCH  23  25
ATOM     25  C   UNL A   1     -22.892   1.500  27.242  0.00  0.00    +0.211 C 
ATOM     26  O   UNL A   1     -22.270   2.173  28.026  0.00  0.00    -0.288 OA
ENDBRANCH  23  25
ENDBRANCH  18  23
ENDBRANCH  16  17
ENDBRANCH  15  16
ENDBRANCH  14  15
ENDBRANCH   1  14
TORSDOF 8
ENDMDL
ENDMDL
