REMARK  Name = No_4250-gen_results/8p0m/2024-11-26-14-13-15/
REMARK  8 active torsions:
REMARK  status: ('A' for Active; 'I' for Inactive)
REMARK    1  A    between atoms: C_3  and  C_8
REMARK    2  A    between atoms: C_6  and  O_7
REMARK    3  A    between atoms: O_7  and  C_14
REMARK    4  A    between atoms: C_14  and  C_15
REMARK    5  A    between atoms: C_15  and  O_16
REMARK    6  A    between atoms: O_16  and  C_17
REMARK    7  A    between atoms: C_18  and  C_23
REMARK    8  A    between atoms: C_23  and  C_25
REMARK                            x       y       z     vdW  Elec       q    Type
REMARK                         _______ _______ _______ _____ _____    ______ ____
ROOT
ATOM      1  O   UNL A   1     -28.930  -2.730  30.115  0.00  0.00    -0.471 OA
ENDROOT
BRANCH   1   7
ATOM      2  C   UNL A   1     -28.016  -0.814  28.878  0.00  0.00    +0.037 A 
ATOM      3  C   UNL A   1     -27.064  -0.119  28.608  0.00  0.00    +0.003 A 
ATOM      4  C   UNL A   1     -25.765  -0.390  29.036  0.00  0.00    +0.000 A 
ATOM      5  C   UNL A   1     -25.530  -1.530  29.901  0.00  0.00    +0.003 A 
ATOM      6  C   UNL A   1     -26.689  -2.289  30.181  0.00  0.00    +0.037 A 
ATOM      7  C   UNL A   1     -27.873  -1.951  29.737  0.00  0.00    +0.139 A 
BRANCH   4   8
ATOM      8  C   UNL A   1     -24.418   0.227  28.782  0.00  0.00    +0.000 A 
ATOM      9  C   UNL A   1     -24.343   1.246  27.847  0.00  0.00    +0.000 A 
ATOM     10  C   UNL A   1     -23.053   1.819  27.574  0.00  0.00    +0.000 A 
ATOM     11  C   UNL A   1     -21.863   1.294  28.172  0.00  0.00    +0.000 A 
ATOM     12  C   UNL A   1     -23.218  -0.254  29.310  0.00  0.00    +0.000 A 
ATOM     13  C   UNL A   1     -21.953   0.299  29.007  0.00  0.00    +0.000 A 
ENDBRANCH   4   8
ENDBRANCH   1   7
BRANCH   1  14
ATOM     14  C   UNL A   1     -28.791  -3.992  30.644  0.00  0.00    +0.253 C 
BRANCH  14  15
ATOM     15  C   UNL A   1     -28.839  -4.982  29.855  0.00  0.00    +0.253 C 
BRANCH  15  16
ATOM     16  O   UNL A   1     -30.080  -5.059  29.355  0.00  0.00    -0.472 OA
BRANCH  16  17
ATOM     17  C   UNL A   1     -31.057  -5.728  29.959  0.00  0.00    +0.135 A 
ATOM     18  C   UNL A   1     -31.936  -6.146  29.160  0.00  0.00    +0.019 A 
ATOM     19  C   UNL A   1     -33.030  -6.912  29.612  0.00  0.00    -0.001 A 
ATOM     20  C   UNL A   1     -33.185  -7.056  31.016  0.00  0.00    -0.000 A 
ATOM     21  C   UNL A   1     -32.222  -6.536  31.824  0.00  0.00    +0.003 A 
ATOM     22  C   UNL A   1     -31.124  -5.862  31.348  0.00  0.00    +0.037 A 
BRANCH  18  23
ATOM     23  C   UNL A   1     -31.904  -6.056  27.668  0.00  0.00    +0.090 C 
ATOM     24  C   UNL A   1     -31.647  -7.060  26.905  0.00  0.00    +0.013 C 
BRANCH  23  25
ATOM     25  C   UNL A   1     -32.067  -4.732  27.141  0.00  0.00    +0.211 C 
ATOM     26  O   UNL A   1     -31.716  -3.734  27.718  0.00  0.00    -0.288 OA
ENDBRANCH  23  25
ENDBRANCH  18  23
ENDBRANCH  16  17
ENDBRANCH  15  16
ENDBRANCH  14  15
ENDBRANCH   1  14
TORSDOF 8
