MODEL 4251
MODEL 1
REMARK VINA RESULT:    -6.077      0.000      0.000
REMARK INTER + INTRA:          -7.271
REMARK INTER:                  -6.787
REMARK INTRA:                  -0.484
REMARK UNBOUND:                -0.484
REMARK  Name = No_4251-gen_results/8p0m/2024-11-26-14-13-15/
REMARK  2 active torsions:
REMARK  status: ('A' for Active; 'I' for Inactive)
REMARK    1  A    between atoms: C_2  and  N_13
REMARK    2  A    between atoms: C_4  and  C_7
REMARK                            x       y       z     vdW  Elec       q    Type
REMARK                         _______ _______ _______ _____ _____    ______ ____
ROOT
ATOM      1  C   UNL A   1     -26.550  -2.425  30.120  0.00  0.00    +0.019 A 
ATOM      2  C   UNL A   1     -26.352  -3.443  29.929  0.00  0.00    +0.081 A 
ATOM      3  C   UNL A   1     -25.439  -1.538  29.776  0.00  0.00    +0.002 A 
ATOM      4  C   UNL A   1     -24.501  -1.908  29.206  0.00  0.00    +0.000 A 
ATOM      5  C   UNL A   1     -25.275  -4.155  29.270  0.00  0.00    +0.019 A 
ATOM      6  C   UNL A   1     -24.241  -3.249  28.909  0.00  0.00    +0.002 A 
ENDROOT
BRANCH   4   7
ATOM      7  C   UNL A   1     -23.335  -0.976  28.794  0.00  0.00    +0.000 A 
ATOM      8  C   UNL A   1     -22.306  -0.996  29.027  0.00  0.00    +0.000 A 
ATOM      9  C   UNL A   1     -23.805   0.273  28.015  0.00  0.00    +0.000 A 
ATOM     10  C   UNL A   1     -22.822   1.153  27.504  0.00  0.00    +0.000 A 
ATOM     11  C   UNL A   1     -21.135  -0.074  28.681  0.00  0.00    +0.000 A 
ATOM     12  C   UNL A   1     -21.509   0.999  27.927  0.00  0.00    +0.000 A 
ENDBRANCH   4   7
BRANCH   2  13
ATOM     13  N   UNL A   1     -27.460  -4.457  30.218  0.00  0.00    -0.248 NA
ATOM     14  C   UNL A   1     -28.452  -4.293  30.689  0.00  0.00    +0.073 C 
ATOM     15  C   UNL A   1     -29.411  -5.443  30.830  0.00  0.00    +0.053 C 
ENDBRANCH   2  13
TORSDOF 2
ENDMDL
ENDMDL
