REMARK  Name = No_4251-gen_results/8p0m/2024-11-26-14-13-15/
REMARK  2 active torsions:
REMARK  status: ('A' for Active; 'I' for Inactive)
REMARK    1  A    between atoms: C_2  and  N_13
REMARK    2  A    between atoms: C_4  and  C_7
REMARK                            x       y       z     vdW  Elec       q    Type
REMARK                         _______ _______ _______ _____ _____    ______ ____
ROOT
ATOM      1  C   UNL A   1     -28.016  -0.814  28.878  0.00  0.00    +0.019 A 
ATOM      2  C   UNL A   1     -28.469  -0.785  29.829  0.00  0.00    +0.081 A 
ATOM      3  C   UNL A   1     -27.087   0.290  28.638  0.00  0.00    +0.002 A 
ATOM      4  C   UNL A   1     -26.768   1.027  29.472  0.00  0.00    +0.000 A 
ATOM      5  C   UNL A   1     -28.276   0.027  31.015  0.00  0.00    +0.019 A 
ATOM      6  C   UNL A   1     -27.329   1.054  30.753  0.00  0.00    +0.002 A 
ENDROOT
BRANCH   4   7
ATOM      7  C   UNL A   1     -25.752   2.174  29.250  0.00  0.00    +0.000 A 
ATOM      8  C   UNL A   1     -25.342   2.886  29.913  0.00  0.00    +0.000 A 
ATOM      9  C   UNL A   1     -25.389   2.382  27.762  0.00  0.00    +0.000 A 
ATOM     10  C   UNL A   1     -24.400   3.340  27.441  0.00  0.00    +0.000 A 
ATOM     11  C   UNL A   1     -24.377   4.058  29.726  0.00  0.00    +0.000 A 
ATOM     12  C   UNL A   1     -23.980   4.218  28.431  0.00  0.00    +0.000 A 
ENDBRANCH   4   7
BRANCH   2  13
ATOM     13  N   UNL A   1     -29.433  -1.913  30.201  0.00  0.00    -0.248 NA
ATOM     14  C   UNL A   1     -30.486  -1.846  30.548  0.00  0.00    +0.073 C 
ATOM     15  C   UNL A   1     -31.266  -3.104  30.813  0.00  0.00    +0.053 C 
ENDBRANCH   2  13
TORSDOF 2
