REMARK  Name = No_4252-gen_results/8p0m/2024-11-26-14-13-15/
REMARK  3 active torsions:
REMARK  status: ('A' for Active; 'I' for Inactive)
REMARK    1  A    between atoms: C_3  and  C_22
REMARK    2  A    between atoms: C_7  and  C_11
REMARK    3  A    between atoms: C_11  and  C_12
REMARK                            x       y       z     vdW  Elec       q    Type
REMARK                         _______ _______ _______ _____ _____    ______ ____
ROOT
ATOM      1  C   UNL A   1     -28.016  -0.814  28.878  0.00  0.00    +0.034 A 
ATOM      2  C   UNL A   1     -28.469  -0.785  29.829  0.00  0.00    +0.148 C 
ATOM      3  C   UNL A   1     -28.182   0.428  28.113  0.00  0.00    +0.072 A 
ATOM      4  C   UNL A   1     -27.028   0.934  27.528  0.00  0.00    +0.004 A 
ATOM      5 CL   UNL A   1     -30.036  -0.832  30.166  0.00  0.00    -0.106 Cl
ATOM      6  C   UNL A   1     -25.843   0.197  27.590  0.00  0.00    -0.001 A 
ATOM      7  C   UNL A   1     -25.633  -0.878  28.448  0.00  0.00    +0.016 A 
ATOM      8  C   UNL A   1     -26.650  -1.254  28.977  0.00  0.00    +0.132 A 
ATOM      9  C   UNL A   1     -27.795  -1.863  30.893  0.00  0.00    +0.226 C 
ATOM     10  O   UNL A   1     -26.571  -2.052  30.267  0.00  0.00    -0.474 OA
ENDROOT
BRANCH   3  11
ATOM     11  C   UNL A   1     -29.421   1.042  27.831  0.00  0.00    +0.418 C 
ATOM     12  F   UNL A   1     -29.742   1.916  28.701  0.00  0.00    -0.166 F 
ATOM     13  F   UNL A   1     -29.297   1.757  26.642  0.00  0.00    -0.166 F 
ATOM     14  F   UNL A   1     -30.320   0.135  27.594  0.00  0.00    -0.166 F 
ENDBRANCH   3  11
BRANCH   7  15
ATOM     15  C   UNL A   1     -24.275  -1.483  28.515  0.00  0.00    +0.056 C 
BRANCH  15  16
ATOM     16  C   UNL A   1     -23.169  -0.548  28.931  0.00  0.00    -0.018 A 
ATOM     17  C   UNL A   1     -23.133   0.050  29.986  0.00  0.00    -0.004 A 
ATOM     18  C   UNL A   1     -23.178   1.163  30.241  0.00  0.00    -0.000 A 
ATOM     19  C   UNL A   1     -23.532   2.076  29.169  0.00  0.00    -0.000 A 
ATOM     20  C   UNL A   1     -24.227   3.265  29.364  0.00  0.00    -0.000 A 
ATOM     21  C   UNL A   1     -24.693   3.992  28.207  0.00  0.00    -0.000 A 
ATOM     22  C   UNL A   1     -24.223   3.536  26.931  0.00  0.00    -0.000 A 
ATOM     23  C   UNL A   1     -23.344   2.470  26.856  0.00  0.00    -0.000 A 
ATOM     24  C   UNL A   1     -23.035   1.751  27.931  0.00  0.00    -0.000 A 
ATOM     25  C   UNL A   1     -22.669   0.112  27.796  0.00  0.00    -0.004 A 
ENDBRANCH  15  16
ENDBRANCH   7  15
TORSDOF 3
