MODEL 4252
MODEL 1
REMARK VINA RESULT:    -7.245      0.000      0.000
REMARK INTER + INTRA:          -9.980
REMARK INTER:                  -8.516
REMARK INTRA:                  -1.463
REMARK UNBOUND:                -1.463
REMARK  Name = No_4252-gen_results/8p0m/2024-11-26-14-13-15/
REMARK  3 active torsions:
REMARK  status: ('A' for Active; 'I' for Inactive)
REMARK    1  A    between atoms: C_3  and  C_22
REMARK    2  A    between atoms: C_7  and  C_11
REMARK    3  A    between atoms: C_11  and  C_12
REMARK                            x       y       z     vdW  Elec       q    Type
REMARK                         _______ _______ _______ _____ _____    ______ ____
ROOT
ATOM      1  C   UNL A   1     -26.036   2.330  26.560  0.00  0.00    +0.034 A 
ATOM      2  C   UNL A   1     -26.384   3.257  26.200  0.00  0.00    +0.148 C 
ATOM      3  C   UNL A   1     -26.254   1.220  25.625  0.00  0.00    +0.072 A 
ATOM      4  C   UNL A   1     -25.158   0.396  25.400  0.00  0.00    +0.004 A 
ATOM      5 CL   UNL A   1     -27.907   3.735  26.048  0.00  0.00    -0.106 Cl
ATOM      6  C   UNL A   1     -23.990   0.585  26.142  0.00  0.00    -0.001 A 
ATOM      7  C   UNL A   1     -23.714   1.725  26.892  0.00  0.00    +0.016 A 
ATOM      8  C   UNL A   1     -24.677   2.440  27.020  0.00  0.00    +0.132 A 
ATOM      9  C   UNL A   1     -25.625   4.548  26.911  0.00  0.00    +0.226 C 
ATOM     10  O   UNL A   1     -24.479   3.907  27.361  0.00  0.00    -0.474 OA
ENDROOT
BRANCH   3  11
ATOM     11  C   UNL A   1     -27.502   0.869  25.067  0.00  0.00    +0.418 C 
ATOM     12  F   UNL A   1     -27.819   1.606  24.076  0.00  0.00    -0.166 F 
ATOM     13  F   UNL A   1     -27.401  -0.414  24.534  0.00  0.00    -0.166 F 
ATOM     14  F   UNL A   1     -28.397   0.782  26.004  0.00  0.00    -0.166 F 
ENDBRANCH   3  11
BRANCH   7  15
ATOM     15  C   UNL A   1     -22.370   1.859  27.518  0.00  0.00    +0.056 C 
BRANCH  15  16
ATOM     16  C   UNL A   1     -22.174   1.095  28.802  0.00  0.00    -0.018 A 
ATOM     17  C   UNL A   1     -21.543   0.063  28.900  0.00  0.00    -0.004 A 
ATOM     18  C   UNL A   1     -21.852  -1.004  29.166  0.00  0.00    -0.000 A 
ATOM     19  C   UNL A   1     -23.275  -1.288  29.227  0.00  0.00    -0.000 A 
ATOM     20  C   UNL A   1     -23.831  -2.523  28.908  0.00  0.00    -0.000 A 
ATOM     21  C   UNL A   1     -25.268  -2.631  28.817  0.00  0.00    -0.000 A 
ATOM     22  C   UNL A   1     -26.026  -1.500  29.265  0.00  0.00    -0.000 A 
ATOM     23  C   UNL A   1     -25.379  -0.391  29.782  0.00  0.00    -0.000 A 
ATOM     24  C   UNL A   1     -24.055  -0.280  29.737  0.00  0.00    -0.000 A 
ATOM     25  C   UNL A   1     -23.321   1.231  29.601  0.00  0.00    -0.004 A 
ENDBRANCH  15  16
ENDBRANCH   7  15
TORSDOF 3
ENDMDL
ENDMDL
