MODEL 4253
MODEL 1
REMARK VINA RESULT:    -5.548      0.000      0.000
REMARK INTER + INTRA:          -5.548
REMARK INTER:                  -5.548
REMARK INTRA:                   0.000
REMARK UNBOUND:                 0.000
REMARK  Name = No_4253-gen_results/8p0m/2024-11-26-14-13-15/
REMARK  0 active torsions:
REMARK  status: ('A' for Active; 'I' for Inactive)
REMARK                            x       y       z     vdW  Elec       q    Type
REMARK                         _______ _______ _______ _____ _____    ______ ____
ROOT
ATOM      1  O   UNL A   1     -23.882  -2.888  29.592  0.00  0.00    -0.275 OA
ATOM      2  C   UNL A   1     -23.799  -1.749  29.435  0.00  0.00    +0.230 C 
ATOM      3  C   UNL A   1     -24.308  -1.139  28.306  0.00  0.00    +0.111 C 
ATOM      4  N   UNL A   1     -22.736  -0.969  30.076  0.00  0.00    -0.273 N 
ATOM      5  C   UNL A   1     -23.991   0.072  27.873  0.00  0.00    -0.015 A 
ATOM      6  C   UNL A   1     -24.558   0.768  26.763  0.00  0.00    -0.004 A 
ATOM      7  C   UNL A   1     -23.881   1.758  26.143  0.00  0.00    -0.000 A 
ATOM      8  C   UNL A   1     -22.560   2.103  26.617  0.00  0.00    -0.000 A 
ATOM      9  C   UNL A   1     -21.942   1.435  27.631  0.00  0.00    -0.003 A 
ATOM     10  C   UNL A   1     -22.609   0.349  28.162  0.00  0.00    -0.006 A 
ATOM     11  C   UNL A   1     -22.018  -0.161  29.391  0.00  0.00    +0.120 C 
ATOM     12  C   UNL A   1     -23.258  -0.683  31.396  0.00  0.00    +0.115 C 
ENDROOT
TORSDOF 0
ENDMDL
ENDMDL
