MODEL 4254
MODEL 1
REMARK VINA RESULT:    -4.912      0.000      0.000
REMARK INTER + INTRA:          -5.376
REMARK INTER:                  -5.199
REMARK INTRA:                  -0.176
REMARK UNBOUND:                -0.176
REMARK  Name = No_4254-gen_results/8p0m/2024-11-26-14-13-15/
REMARK  1 active torsions:
REMARK  status: ('A' for Active; 'I' for Inactive)
REMARK    1  A    between atoms: C_3  and  C_4
REMARK                            x       y       z     vdW  Elec       q    Type
REMARK                         _______ _______ _______ _____ _____    ______ ____
ROOT
ATOM      1  C   UNL A   1     -25.927  -2.576  29.684  0.00  0.00    -0.000 A 
ATOM      2  C   UNL A   1     -26.431  -3.476  29.899  0.00  0.00    -0.000 A 
ATOM      3  C   UNL A   1     -24.560  -2.697  29.152  0.00  0.00    -0.000 A 
ATOM      4  C   UNL A   1     -26.107  -4.886  29.577  0.00  0.00    -0.000 A 
ATOM      5  C   UNL A   1     -24.831  -5.085  29.062  0.00  0.00    -0.000 A 
ATOM      6  C   UNL A   1     -24.008  -4.010  28.800  0.00  0.00    -0.000 A 
ENDROOT
BRANCH   3   7
ATOM      7  C   UNL A   1     -23.609  -1.622  28.917  0.00  0.00    -0.005 C 
ATOM      8  C   UNL A   1     -22.983  -0.953  30.002  0.00  0.00    -0.026 C 
ATOM      9  C   UNL A   1     -23.236  -0.998  31.073  0.00  0.00    +0.031 C 
ENDBRANCH   3   7
TORSDOF 1
ENDMDL
ENDMDL
