REMARK  Name = No_4255-gen_results/8p0m/2024-11-26-14-13-15/
REMARK  10 active torsions:
REMARK  status: ('A' for Active; 'I' for Inactive)
REMARK    1  A    between atoms: C_2  and  O_7
REMARK    2  A    between atoms: C_6  and  O_20
REMARK    3  A    between atoms: O_7  and  C_8
REMARK    4  A    between atoms: C_9  and  C_15
REMARK    5  A    between atoms: O_20  and  C_22
REMARK    6  A    between atoms: C_24  and  O_28
REMARK    7  A    between atoms: O_28  and  C_29
REMARK    8  A    between atoms: C_29  and  C_30
REMARK    9  A    between atoms: C_31  and  C_32
REMARK   10  A    between atoms: C_32  and  C_34
REMARK                            x       y       z     vdW  Elec       q    Type
REMARK                         _______ _______ _______ _____ _____    ______ ____
ROOT
ATOM      1  C   UNL A   1     -28.016  -0.814  28.878  0.00  0.00    +0.052 A 
ATOM      2  C   UNL A   1     -27.064  -0.119  28.608  0.00  0.00    +0.146 A 
ATOM      3  C   UNL A   1     -26.929   1.171  29.008  0.00  0.00    +0.041 A 
ATOM      4  C   UNL A   1     -27.956   1.741  29.784  0.00  0.00    +0.042 A 
ATOM      5  C   UNL A   1     -29.057  -0.327  29.747  0.00  0.00    +0.095 A 
ATOM      6  C   UNL A   1     -28.983   0.972  30.152  0.00  0.00    +0.156 A 
ATOM      7 CL   UNL A   1     -30.215  -1.487  30.205  0.00  0.00    -0.079 Cl
ENDROOT
BRANCH   2   8
ATOM      8  O   UNL A   1     -25.991  -0.612  27.857  0.00  0.00    -0.453 OA
BRANCH   8   9
ATOM      9  C   UNL A   1     -24.904  -1.148  28.578  0.00  0.00    +0.148 A 
ATOM     10  C   UNL A   1     -23.773  -0.924  28.749  0.00  0.00    +0.070 A 
ATOM     11  C   UNL A   1     -25.267  -2.553  29.125  0.00  0.00    +0.038 A 
ATOM     12  C   UNL A   1     -22.793  -1.518  29.473  0.00  0.00    +0.006 A 
ATOM     13  C   UNL A   1     -24.384  -3.281  29.786  0.00  0.00    +0.003 A 
ATOM     14  C   UNL A   1     -23.123  -2.764  30.015  0.00  0.00    +0.000 A 
BRANCH  10  15
ATOM     15  C   UNL A   1     -23.280   0.478  28.134  0.00  0.00    +0.167 A 
ATOM     16  N   UNL A   1     -22.942   1.474  28.590  0.00  0.00    -0.222 NA
ATOM     17  N   UNL A   1     -23.594   0.639  26.762  0.00  0.00    -0.207 NA
ATOM     18  C   UNL A   1     -23.293   1.906  26.431  0.00  0.00    +0.190 A 
ATOM     19  C   UNL A   1     -22.822   2.437  27.653  0.00  0.00    +0.138 A 
ATOM     20  N   UNL A   1     -23.396   2.442  25.282  0.00  0.00    -0.105 NA
ENDBRANCH  10  15
ENDBRANCH   8   9
ENDBRANCH   2   8
BRANCH   6  21
ATOM     21  O   UNL A   1     -30.041   1.442  30.939  0.00  0.00    -0.453 OA
BRANCH  21  22
ATOM     22  C   UNL A   1     -29.984   1.405  32.211  0.00  0.00    +0.148 A 
ATOM     23  C   UNL A   1     -31.019   0.940  32.875  0.00  0.00    +0.074 A 
ATOM     24  C   UNL A   1     -30.973   0.868  34.346  0.00  0.00    +0.142 A 
ATOM     25  C   UNL A   1     -28.843   1.825  32.971  0.00  0.00    +0.038 A 
ATOM     26  C   UNL A   1     -28.759   1.788  34.339  0.00  0.00    +0.006 A 
ATOM     27  C   UNL A   1     -29.854   1.326  35.051  0.00  0.00    +0.037 A 
BRANCH  24  28
ATOM     28  O   UNL A   1     -32.087   0.448  35.020  0.00  0.00    -0.470 OA
BRANCH  28  29
ATOM     29  C   UNL A   1     -32.571   1.028  36.035  0.00  0.00    +0.232 C 
BRANCH  29  30
ATOM     30  C   UNL A   1     -33.263   2.120  35.923  0.00  0.00    +0.021 C 
ATOM     31  C   UNL A   1     -33.993   2.454  34.867  0.00  0.00    -0.001 C 
BRANCH  31  32
ATOM     32  C   UNL A   1     -34.684   3.699  34.713  0.00  0.00    -0.000 C 
ATOM     33  C   UNL A   1     -35.377   4.092  33.551  0.00  0.00    -0.000 C 
BRANCH  32  34
ATOM     34  C   UNL A   1     -34.556   4.637  35.895  0.00  0.00    -0.000 C 
ATOM     35  C   UNL A   1     -33.854   4.273  36.982  0.00  0.00    -0.000 C 
ENDBRANCH  32  34
ENDBRANCH  31  32
ENDBRANCH  29  30
ENDBRANCH  28  29
ENDBRANCH  24  28
ENDBRANCH  21  22
ENDBRANCH   6  21
TORSDOF 10
