REMARK  Name = No_4256-gen_results/8p0m/2024-11-26-14-13-15/
REMARK  5 active torsions:
REMARK  status: ('A' for Active; 'I' for Inactive)
REMARK    1  A    between atoms: C_3  and  C_4
REMARK    2  A    between atoms: C_7  and  C_9
REMARK    3  A    between atoms: C_10  and  C_25
REMARK    4  A    between atoms: C_25  and  N_26
REMARK    5  A    between atoms: C_25  and  P_27
REMARK                            x       y       z     vdW  Elec       q    Type
REMARK                         _______ _______ _______ _____ _____    ______ ____
ROOT
ATOM      1  C   UNL A   1     -27.450   0.643  26.850  0.00  0.00    +0.077 C 
ATOM      2  C   UNL A   1     -26.453   0.994  26.668  0.00  0.00    -0.016 A 
ATOM      3  C   UNL A   1     -25.181   0.862  26.817  0.00  0.00    +0.000 A 
ATOM      4  C   UNL A   1     -24.204   1.046  27.487  0.00  0.00    +0.118 A 
ATOM      5  C   UNL A   1     -28.363   0.197  25.709  0.00  0.00    +0.173 C 
ATOM      6  F   UNL A   1     -28.337  -0.866  25.335  0.00  0.00    -0.236 F 
ATOM      7  C   UNL A   1     -29.198   1.244  25.142  0.00  0.00    +0.062 C 
ATOM      8  C   UNL A   1     -29.325   2.332  25.477  0.00  0.00    -0.019 A 
ATOM      9  C   UNL A   1     -30.040   3.302  25.331  0.00  0.00    -0.004 A 
ATOM     10  C   UNL A   1     -29.976   4.744  25.719  0.00  0.00    -0.000 A 
ATOM     11  C   UNL A   1     -28.884   4.987  26.596  0.00  0.00    -0.000 A 
ATOM     12  C   UNL A   1     -27.896   4.121  26.821  0.00  0.00    -0.000 A 
ATOM     13  C   UNL A   1     -28.029   2.836  26.353  0.00  0.00    -0.003 A 
ATOM     14  C   UNL A   1     -26.873   2.141  26.658  0.00  0.00    +0.015 A 
ATOM     15  C   UNL A   1     -25.599   2.814  26.940  0.00  0.00    +0.099 A 
ATOM     16  N   UNL A   1     -24.721   2.325  27.866  0.00  0.00    -0.236 NA
ATOM     17  C   UNL A   1     -24.723   0.084  25.385  0.00  0.00    +0.033 C 
ENDROOT
BRANCH   1  20
ATOM     18  C   UNL A   1     -28.016  -0.814  28.878  0.00  0.00    -0.004 A 
ATOM     19  C   UNL A   1     -28.469  -0.785  29.829  0.00  0.00    -0.001 A 
ATOM     20  C   UNL A   1     -28.182   0.428  28.113  0.00  0.00    -0.016 A 
ATOM     21  C   UNL A   1     -29.437   0.078  30.444  0.00  0.00    -0.002 A 
ATOM     22  C   UNL A   1     -29.677   1.188  29.734  0.00  0.00    +0.004 A 
ATOM     23  C   UNL A   1     -29.058   1.397  28.551  0.00  0.00    -0.006 A 
BRANCH  22  24
ATOM     24  C   UNL A   1     -30.669   2.246  30.260  0.00  0.00    +0.169 C 
BRANCH  24  25
ATOM     25  N   UNL A   1     -30.390   3.056  31.105  0.00  0.00    -0.195 NA
ATOM     26  C   UNL A   1     -29.555   3.779  31.508  0.00  0.00    +0.242 C 
ATOM     27  O   UNL A   1     -28.402   3.704  31.047  0.00  0.00    -0.273 OA
ATOM     28  C   UNL A   1     -29.734   4.859  32.527  0.00  0.00    +0.096 C 
ENDBRANCH  24  25
BRANCH  24  29
ATOM     29  P   UNL A   1     -32.158   2.323  29.474  0.00  0.00    +0.141 P 
ATOM     30  O   UNL A   1     -32.287   3.398  28.900  0.00  0.00    -0.458 OA
ATOM     31  O   UNL A   1     -33.105   2.200  30.692  0.00  0.00    -0.356 OA
ATOM     32  O   UNL A   1     -32.277   1.081  28.637  0.00  0.00    -0.356 OA
ENDBRANCH  24  29
ENDBRANCH  22  24
ENDBRANCH   1  20
BRANCH   4  33
ATOM     33  C   UNL A   1     -23.207   1.172  27.898  0.00  0.00    -0.045 C 
ATOM     34  C   UNL A   1     -21.976   1.063  28.553  0.00  0.00    -0.084 C 
ATOM     35  C   UNL A   1     -20.979   0.565  29.329  0.00  0.00    +0.090 C 
ENDBRANCH   4  33
TORSDOF 5
