MODEL 4256
MODEL 1
REMARK VINA RESULT:    -7.550      0.000      0.000
REMARK INTER + INTRA:         -11.455
REMARK INTER:                  -9.757
REMARK INTRA:                  -1.698
REMARK UNBOUND:                -1.698
REMARK  Name = No_4256-gen_results/8p0m/2024-11-26-14-13-15/
REMARK  5 active torsions:
REMARK  status: ('A' for Active; 'I' for Inactive)
REMARK    1  A    between atoms: C_3  and  C_4
REMARK    2  A    between atoms: C_7  and  C_9
REMARK    3  A    between atoms: C_10  and  C_25
REMARK    4  A    between atoms: C_25  and  N_26
REMARK    5  A    between atoms: C_25  and  P_27
REMARK                            x       y       z     vdW  Elec       q    Type
REMARK                         _______ _______ _______ _____ _____    ______ ____
ROOT
ATOM      1  C   UNL A   1     -20.233 -20.678  29.816  0.00  0.00    +0.077 C 
ATOM      2  C   UNL A   1     -20.454 -20.680  28.766  0.00  0.00    -0.016 A 
ATOM      3  C   UNL A   1     -21.258 -20.414  27.796  0.00  0.00    +0.000 A 
ATOM      4  C   UNL A   1     -22.190 -20.745  27.119  0.00  0.00    +0.118 A 
ATOM      5  C   UNL A   1     -19.073 -19.866  30.389  0.00  0.00    +0.173 C 
ATOM      6  F   UNL A   1     -19.218 -18.787  30.683  0.00  0.00    -0.236 F 
ATOM      7  C   UNL A   1     -17.805 -20.572  30.468  0.00  0.00    +0.062 C 
ATOM      8  C   UNL A   1     -17.569 -21.669  30.235  0.00  0.00    -0.019 A 
ATOM      9  C   UNL A   1     -16.715 -22.518  30.387  0.00  0.00    -0.004 A 
ATOM     10  C   UNL A   1     -16.477 -23.898  29.863  0.00  0.00    -0.000 A 
ATOM     11  C   UNL A   1     -17.603 -24.368  29.134  0.00  0.00    -0.000 A 
ATOM     12  C   UNL A   1     -18.613 -23.595  28.736  0.00  0.00    -0.000 A 
ATOM     13  C   UNL A   1     -18.694 -22.314  29.225  0.00  0.00    -0.003 A 
ATOM     14  C   UNL A   1     -19.782 -21.693  28.640  0.00  0.00    +0.015 A 
ATOM     15  C   UNL A   1     -20.372 -22.158  27.379  0.00  0.00    +0.099 A 
ATOM     16  N   UNL A   1     -21.718 -22.095  27.152  0.00  0.00    -0.236 NA
ATOM     17  C   UNL A   1     -20.692 -18.915  27.251  0.00  0.00    +0.033 C 
ENDROOT
BRANCH   1  20
ATOM     18  C   UNL A   1     -22.107 -22.164  30.728  0.00  0.00    -0.004 A 
ATOM     19  C   UNL A   1     -22.416 -22.688  31.589  0.00  0.00    -0.001 A 
ATOM     20  C   UNL A   1     -20.924 -21.324  30.948  0.00  0.00    -0.016 A 
ATOM     21  C   UNL A   1     -22.119 -22.566  32.988  0.00  0.00    -0.002 A 
ATOM     22  C   UNL A   1     -21.092 -21.742  33.237  0.00  0.00    +0.004 A 
ATOM     23  C   UNL A   1     -20.465 -21.099  32.227  0.00  0.00    -0.006 A 
BRANCH  22  24
ATOM     24  C   UNL A   1     -20.613 -21.515  34.685  0.00  0.00    +0.169 C 
BRANCH  24  25
ATOM     25  N   UNL A   1     -21.315 -21.069  35.555  0.00  0.00    -0.195 NA
ATOM     26  C   UNL A   1     -21.790 -20.092  36.004  0.00  0.00    +0.242 C 
ATOM     27  O   UNL A   1     -21.416 -18.980  35.588  0.00  0.00    -0.273 OA
ATOM     28  C   UNL A   1     -22.872 -20.024  37.034  0.00  0.00    +0.096 C 
ENDBRANCH  24  25
BRANCH  24  29
ATOM     29  P   UNL A   1     -19.065 -22.072  35.051  0.00  0.00    +0.141 P 
ATOM     30  O   UNL A   1     -18.831 -23.116  34.453  0.00  0.00    -0.458 OA
ATOM     31  O   UNL A   1     -19.221 -22.300  36.574  0.00  0.00    -0.356 OA
ATOM     32  O   UNL A   1     -18.121 -20.926  34.823  0.00  0.00    -0.356 OA
ENDBRANCH  24  29
ENDBRANCH  22  24
ENDBRANCH   1  20
BRANCH   4  33
ATOM     33  C   UNL A   1     -22.956 -20.884  26.363  0.00  0.00    -0.045 C 
ATOM     34  C   UNL A   1     -24.021 -20.779  25.462  0.00  0.00    -0.084 C 
ATOM     35  C   UNL A   1     -25.083 -20.264  24.790  0.00  0.00    +0.090 C 
ENDBRANCH   4  33
TORSDOF 5
ENDMDL
ENDMDL
