REMARK  Name = No_4257-gen_results/8p0m/2024-11-26-14-13-15/
REMARK  10 active torsions:
REMARK  status: ('A' for Active; 'I' for Inactive)
REMARK    1  A    between atoms: C_2  and  C_11
REMARK    2  A    between atoms: C_3  and  C_7
REMARK    3  A    between atoms: C_6  and  C_14
REMARK    4  A    between atoms: C_11  and  O_13
REMARK    5  A    between atoms: O_13  and  C_23
REMARK    6  A    between atoms: C_17  and  C_20
REMARK    7  A    between atoms: C_23  and  C_24
REMARK    8  A    between atoms: C_24  and  N_26
REMARK    9  A    between atoms: N_26  and  C_27
REMARK   10  A    between atoms: C_28  and  C_29
REMARK                            x       y       z     vdW  Elec       q    Type
REMARK                         _______ _______ _______ _____ _____    ______ ____
ROOT
ATOM      1  C   UNL A   1     -28.016  -0.814  28.878  0.00  0.00    +0.010 A 
ATOM      2  C   UNL A   1     -28.469  -0.785  29.829  0.00  0.00    +0.076 A 
ATOM      3  C   UNL A   1     -27.136   0.236  28.535  0.00  0.00    +0.072 A 
ATOM      4  C   UNL A   1     -26.805   1.051  29.276  0.00  0.00    +0.004 A 
ATOM      5  C   UNL A   1     -28.237   0.150  30.930  0.00  0.00    +0.006 A 
ATOM      6  C   UNL A   1     -27.352   1.124  30.607  0.00  0.00    +0.000 A 
ENDROOT
BRANCH   6   7
ATOM      7  C   UNL A   1     -26.985   2.207  31.564  0.00  0.00    +0.000 A 
ATOM      8  C   UNL A   1     -26.049   2.826  31.524  0.00  0.00    +0.000 A 
ATOM      9  C   UNL A   1     -25.522   3.805  32.080  0.00  0.00    +0.007 A 
ATOM     10  C   UNL A   1     -26.316   4.470  33.089  0.00  0.00    +0.080 A 
ATOM     11  C   UNL A   1     -27.585   3.828  33.239  0.00  0.00    +0.007 A 
ATOM     12  C   UNL A   1     -27.975   2.766  32.487  0.00  0.00    +0.000 A 
BRANCH  10  13
ATOM     13  C   UNL A   1     -25.848   5.619  33.862  0.00  0.00    +0.388 C 
ATOM     14  O   UNL A   1     -26.473   6.680  33.585  0.00  0.00    -0.241 OA
ATOM     15  O   UNL A   1     -25.151   5.468  34.880  0.00  0.00    -0.241 OA
ENDBRANCH  10  13
ENDBRANCH   6   7
BRANCH   3  16
ATOM     16  C   UNL A   1     -26.471   0.196  27.131  0.00  0.00    +0.419 C 
ATOM     17  F   UNL A   1     -26.050   1.379  26.940  0.00  0.00    -0.166 F 
ATOM     18  F   UNL A   1     -25.463  -0.674  27.081  0.00  0.00    -0.166 F 
ATOM     19  F   UNL A   1     -27.340  -0.054  26.123  0.00  0.00    -0.166 F 
ENDBRANCH   3  16
BRANCH   2  20
ATOM     20  C   UNL A   1     -29.442  -1.963  30.360  0.00  0.00    +0.341 C 
ATOM     21  O   UNL A   1     -30.463  -1.871  30.039  0.00  0.00    -0.245 OA
BRANCH  20  22
ATOM     22  O   UNL A   1     -28.948  -2.951  31.060  0.00  0.00    -0.443 OA
BRANCH  22  23
ATOM     23  C   UNL A   1     -29.332  -4.264  30.757  0.00  0.00    +0.242 C 
BRANCH  23  24
ATOM     24  C   UNL A   1     -28.719  -5.259  31.330  0.00  0.00    +0.192 C 
ATOM     25 BR   UNL A   1     -29.954  -6.555  32.117  0.00  0.00    -0.054 Br
BRANCH  24  26
ATOM     26  N   UNL A   1     -27.836  -5.967  30.314  0.00  0.00    -0.223 NA
BRANCH  26  27
ATOM     27  C   UNL A   1     -27.015  -4.911  29.716  0.00  0.00    +0.081 C 
ATOM     28  C   UNL A   1     -25.597  -4.826  30.014  0.00  0.00    +0.019 C 
BRANCH  28  29
ATOM     29  C   UNL A   1     -24.840  -3.897  29.188  0.00  0.00    +0.021 A 
ATOM     30  C   UNL A   1     -23.570  -3.967  28.866  0.00  0.00    +0.003 A 
ATOM     31  C   UNL A   1     -23.151  -2.717  28.129  0.00  0.00    +0.021 A 
ATOM     32  C   UNL A   1     -25.521  -2.598  28.901  0.00  0.00    +0.099 A 
ATOM     33  C   UNL A   1     -23.653  -1.532  28.410  0.00  0.00    +0.099 A 
ATOM     34  N   UNL A   1     -24.898  -1.508  28.727  0.00  0.00    -0.242 NA
ENDBRANCH  28  29
ENDBRANCH  26  27
ENDBRANCH  24  26
ENDBRANCH  23  24
ENDBRANCH  22  23
ENDBRANCH  20  22
ENDBRANCH   2  20
TORSDOF 10
