MODEL 4258
MODEL 1
REMARK VINA RESULT:    -5.654      0.000      0.000
REMARK INTER + INTRA:          -6.503
REMARK INTER:                  -6.315
REMARK INTRA:                  -0.188
REMARK UNBOUND:                -0.188
REMARK  Name = No_4258-gen_results/8p0m/2024-11-26-14-13-15/
REMARK  2 active torsions:
REMARK  status: ('A' for Active; 'I' for Inactive)
REMARK    1  A    between atoms: N_7  and  C_8
REMARK    2  A    between atoms: C_9  and  C_10
REMARK                            x       y       z     vdW  Elec       q    Type
REMARK                         _______ _______ _______ _____ _____    ______ ____
ROOT
ATOM      1  N   UNL A   1     -25.781  -2.913  29.530  0.00  0.00    -0.227 NA
ATOM      2  C   UNL A   1     -24.861  -2.645  29.070  0.00  0.00    +0.152 A 
ATOM      3  C   UNL A   1     -23.943  -3.568  28.546  0.00  0.00    +0.036 A 
ATOM      4  C   UNL A   1     -24.226  -4.949  28.697  0.00  0.00    +0.004 A 
ATOM      5  C   UNL A   1     -25.434  -5.263  29.295  0.00  0.00    +0.021 A 
ATOM      6  C   UNL A   1     -26.259  -4.264  29.697  0.00  0.00    +0.100 A 
ATOM      7  N   UNL A   1     -24.525  -1.316  28.869  0.00  0.00    -0.193 NA
ENDROOT
BRANCH   7   8
ATOM      8  C   UNL A   1     -23.791  -0.621  28.646  0.00  0.00    +0.087 C 
ATOM      9  C   UNL A   1     -23.502   0.412  28.060  0.00  0.00    +0.018 C 
BRANCH   9  10
ATOM     10  C   UNL A   1     -22.238   1.114  27.841  0.00  0.00    -0.003 C 
ATOM     11  C   UNL A   1     -21.923   1.919  26.744  0.00  0.00    -0.026 C 
ATOM     12  C   UNL A   1     -22.956   2.224  25.819  0.00  0.00    +0.031 C 
ENDBRANCH   9  10
ENDBRANCH   7   8
TORSDOF 2
ENDMDL
ENDMDL
