REMARK  Name = No_4258-gen_results/8p0m/2024-11-26-14-13-15/
REMARK  2 active torsions:
REMARK  status: ('A' for Active; 'I' for Inactive)
REMARK    1  A    between atoms: N_7  and  C_8
REMARK    2  A    between atoms: C_9  and  C_10
REMARK                            x       y       z     vdW  Elec       q    Type
REMARK                         _______ _______ _______ _____ _____    ______ ____
ROOT
ATOM      1  N   UNL A   1     -28.054  -1.050  28.725  0.00  0.00    -0.227 NA
ATOM      2  C   UNL A   1     -27.746  -0.073  29.010  0.00  0.00    +0.152 A 
ATOM      3  C   UNL A   1     -27.556   0.337  30.339  0.00  0.00    +0.036 A 
ATOM      4  C   UNL A   1     -27.856  -0.587  31.371  0.00  0.00    +0.004 A 
ATOM      5  C   UNL A   1     -28.248  -1.850  30.965  0.00  0.00    +0.021 A 
ATOM      6  C   UNL A   1     -28.327  -2.131  29.640  0.00  0.00    +0.100 A 
ATOM      7  N   UNL A   1     -27.416   0.877  28.058  0.00  0.00    -0.193 NA
ENDROOT
BRANCH   7   8
ATOM      8  C   UNL A   1     -27.237   1.873  27.837  0.00  0.00    +0.087 C 
ATOM      9  C   UNL A   1     -26.409   2.730  27.565  0.00  0.00    +0.018 C 
BRANCH   9  10
ATOM     10  C   UNL A   1     -26.489   4.182  27.417  0.00  0.00    -0.003 C 
ATOM     11  C   UNL A   1     -25.418   5.045  27.173  0.00  0.00    -0.026 C 
ATOM     12  C   UNL A   1     -24.150   4.473  26.888  0.00  0.00    +0.031 C 
ENDBRANCH   9  10
ENDBRANCH   7   8
TORSDOF 2
