REMARK  Name = No_4259-gen_results/8p0m/2024-11-26-14-13-15/
REMARK  2 active torsions:
REMARK  status: ('A' for Active; 'I' for Inactive)
REMARK    1  A    between atoms: C_2  and  C_3
REMARK    2  A    between atoms: C_3  and  C_5
REMARK                            x       y       z     vdW  Elec       q    Type
REMARK                         _______ _______ _______ _____ _____    ______ ____
ROOT
ATOM      1  C   UNL A   1     -25.848   1.005  27.994  0.00  0.00    -0.013 A 
ATOM      2  C   UNL A   1     -24.725   1.490  27.170  0.00  0.00    -0.004 A 
ATOM      3  C   UNL A   1     -24.024   2.381  27.261  0.00  0.00    -0.000 A 
ATOM      4  C   UNL A   1     -24.349   3.326  28.325  0.00  0.00    -0.000 A 
ATOM      5  C   UNL A   1     -25.381   3.051  29.201  0.00  0.00    -0.000 A 
ATOM      6  C   UNL A   1     -26.062   1.874  29.076  0.00  0.00    -0.004 A 
ENDROOT
BRANCH   1   7
ATOM      7  C   UNL A   1     -26.380  -0.087  27.939  0.00  0.00    +0.115 C 
BRANCH   7   9
ATOM      8  O   UNL A   1     -28.123  -1.335  28.487  0.00  0.00    -0.271 OA
ATOM      9  C   UNL A   1     -27.481  -0.404  28.709  0.00  0.00    +0.265 C 
ATOM     10  N   UNL A   1     -27.423   0.175  30.055  0.00  0.00    -0.087 NA
ENDBRANCH   7   9
ENDBRANCH   1   7
TORSDOF 2
