MODEL 4259
MODEL 1
REMARK VINA RESULT:    -5.141      0.000      0.000
REMARK INTER + INTRA:          -5.874
REMARK INTER:                  -5.742
REMARK INTRA:                  -0.132
REMARK UNBOUND:                -0.132
REMARK  Name = No_4259-gen_results/8p0m/2024-11-26-14-13-15/
REMARK  2 active torsions:
REMARK  status: ('A' for Active; 'I' for Inactive)
REMARK    1  A    between atoms: C_2  and  C_3
REMARK    2  A    between atoms: C_3  and  C_5
REMARK                            x       y       z     vdW  Elec       q    Type
REMARK                         _______ _______ _______ _____ _____    ______ ____
ROOT
ATOM      1  C   UNL A   1     -24.478  -2.597  29.094  0.00  0.00    -0.013 A 
ATOM      2  C   UNL A   1     -23.942  -3.918  28.718  0.00  0.00    -0.004 A 
ATOM      3  C   UNL A   1     -24.380  -4.967  28.737  0.00  0.00    -0.000 A 
ATOM      4  C   UNL A   1     -25.689  -5.086  29.371  0.00  0.00    -0.000 A 
ATOM      5  C   UNL A   1     -26.353  -3.954  29.801  0.00  0.00    -0.000 A 
ATOM      6  C   UNL A   1     -25.784  -2.731  29.593  0.00  0.00    -0.004 A 
ENDROOT
BRANCH   1   7
ATOM      7  C   UNL A   1     -24.012  -1.509  28.814  0.00  0.00    +0.115 C 
BRANCH   7   9
ATOM      8  O   UNL A   1     -23.083  -0.766  30.680  0.00  0.00    -0.271 OA
ATOM      9  C   UNL A   1     -22.987  -0.942  29.545  0.00  0.00    +0.265 C 
ATOM     10  N   UNL A   1     -21.675  -1.103  28.910  0.00  0.00    -0.087 NA
ENDBRANCH   7   9
ENDBRANCH   1   7
TORSDOF 2
ENDMDL
ENDMDL
