MODEL 425
MODEL 1
REMARK VINA RESULT:    -5.361      0.000      0.000
REMARK INTER + INTRA:          -6.578
REMARK INTER:                  -6.301
REMARK INTRA:                  -0.277
REMARK UNBOUND:                -0.277
REMARK  Name = No_425-gen_results/8p0m/2024-11-26-14-13-15/
REMARK  3 active torsions:
REMARK  status: ('A' for Active; 'I' for Inactive)
REMARK    1  A    between atoms: C_3  and  C_7
REMARK    2  A    between atoms: C_5  and  O_12
REMARK    3  A    between atoms: O_12  and  C_13
REMARK                            x       y       z     vdW  Elec       q    Type
REMARK                         _______ _______ _______ _____ _____    ______ ____
ROOT
ATOM      1  C   UNL A   1     -22.562   1.694  27.042  0.00  0.00    +0.005 A 
ATOM      2  C   UNL A   1     -21.883   1.383  27.785  0.00  0.00    +0.003 A 
ATOM      3  C   UNL A   1     -23.833   1.027  27.025  0.00  0.00    +0.057 A 
ATOM      4  C   UNL A   1     -24.107  -0.040  27.782  0.00  0.00    +0.042 A 
ATOM      5  C   UNL A   1     -23.136  -0.422  28.666  0.00  0.00    +0.146 A 
ATOM      6  C   UNL A   1     -21.958   0.275  28.714  0.00  0.00    +0.037 A 
ENDROOT
BRANCH   3   7
ATOM      7  C   UNL A   1     -24.883   1.543  26.022  0.00  0.00    +0.249 C 
ATOM      8  O   UNL A   1     -25.051   1.091  25.144  0.00  0.00    -0.270 OA
ATOM      9  N   UNL A   1     -25.778   2.540  26.558  0.00  0.00    -0.273 N 
ATOM     10  C   UNL A   1     -25.609   3.193  27.780  0.00  0.00    +0.115 C 
ATOM     11  C   UNL A   1     -26.814   2.979  25.680  0.00  0.00    +0.115 C 
ENDBRANCH   3   7
BRANCH   5  12
ATOM     12  O   UNL A   1     -23.367  -1.460  29.489  0.00  0.00    -0.451 OA
BRANCH  12  13
ATOM     13  C   UNL A   1     -23.483  -2.660  29.028  0.00  0.00    +0.175 C 
ATOM     14  C   UNL A   1     -24.444  -3.433  29.374  0.00  0.00    +0.015 C 
ATOM     15  C   UNL A   1     -24.570  -4.776  28.881  0.00  0.00    +0.034 C 
ENDBRANCH  12  13
ENDBRANCH   5  12
TORSDOF 3
ENDMDL
ENDMDL
