REMARK  Name = No_426-gen_results/8p0m/2024-11-26-14-13-15/
REMARK  1 active torsions:
REMARK  status: ('A' for Active; 'I' for Inactive)
REMARK    1  A    between atoms: C_9  and  C_11
REMARK                            x       y       z     vdW  Elec       q    Type
REMARK                         _______ _______ _______ _____ _____    ______ ____
ROOT
ATOM      1  C   UNL A   1     -28.016  -0.814  28.878  0.00  0.00    +0.003 A 
ATOM      2  C   UNL A   1     -27.064  -0.119  28.608  0.00  0.00    +0.035 A 
ATOM      3  C   UNL A   1     -25.765  -0.390  29.036  0.00  0.00    +0.145 A 
ATOM      4  C   UNL A   1     -25.530  -1.530  29.901  0.00  0.00    +0.037 A 
ATOM      5  C   UNL A   1     -26.658  -2.292  30.203  0.00  0.00    +0.003 A 
ATOM      6  C   UNL A   1     -27.855  -1.956  29.763  0.00  0.00    +0.000 A 
ATOM      7  O   UNL A   1     -24.657   0.380  28.774  0.00  0.00    -0.454 OA
ATOM      8  C   UNL A   1     -24.605   1.323  27.866  0.00  0.00    +0.141 C 
ATOM      9  C   UNL A   1     -23.346   1.912  27.772  0.00  0.00    +0.011 C 
ATOM     10  C   UNL A   1     -25.623   1.671  27.040  0.00  0.00    +0.037 C 
ATOM     11  C   UNL A   1     -26.828   0.960  27.480  0.00  0.00    +0.006 C 
ENDROOT
BRANCH   9  12
ATOM     12  C   UNL A   1     -22.223   1.634  28.627  0.00  0.00    +0.029 C 
ATOM     13  C   UNL A   1     -22.360   0.516  29.423  0.00  0.00    +0.005 C 
ENDBRANCH   9  12
TORSDOF 1
