REMARK  Name = No_4260-gen_results/8p0m/2024-11-26-14-13-15/
REMARK  7 active torsions:
REMARK  status: ('A' for Active; 'I' for Inactive)
REMARK    1  A    between atoms: C_2  and  C_16
REMARK    2  A    between atoms: C_4  and  C_14
REMARK    3  A    between atoms: C_6  and  O_8
REMARK    4  A    between atoms: O_8  and  C_9
REMARK    5  A    between atoms: C_9  and  C_10
REMARK    6  A    between atoms: C_14  and  C_15
REMARK    7  A    between atoms: C_15  and  C_21
REMARK                            x       y       z     vdW  Elec       q    Type
REMARK                         _______ _______ _______ _____ _____    ______ ____
ROOT
ATOM      1  C   UNL A   1     -28.016  -0.814  28.878  0.00  0.00    +0.044 A 
ATOM      2  C   UNL A   1     -27.064  -0.119  28.608  0.00  0.00    +0.089 A 
ATOM      3  C   UNL A   1     -25.765  -0.390  29.036  0.00  0.00    +0.037 A 
ATOM      4  C   UNL A   1     -25.530  -1.530  29.901  0.00  0.00    -0.012 A 
ATOM      5  C   UNL A   1     -26.658  -2.292  30.203  0.00  0.00    +0.033 A 
ATOM      6  C   UNL A   1     -27.855  -1.956  29.763  0.00  0.00    +0.144 A 
ATOM      7 BR   UNL A   1     -24.409   0.807  28.659  0.00  0.00    -0.049 Br
ENDROOT
BRANCH   2   8
ATOM      8  C   UNL A   1     -27.267   1.054  27.652  0.00  0.00    +0.388 C 
ATOM      9  O   UNL A   1     -27.432   0.812  26.439  0.00  0.00    -0.240 OA
ATOM     10  O   UNL A   1     -27.299   2.212  28.076  0.00  0.00    -0.240 OA
ENDBRANCH   2   8
BRANCH   6  11
ATOM     11  O   UNL A   1     -28.911  -2.789  30.110  0.00  0.00    -0.425 OA
BRANCH  11  12
ATOM     12  C   UNL A   1     -28.739  -4.026  30.652  0.00  0.00    +0.481 C 
ATOM     13  F   UNL A   1     -27.687  -4.007  31.476  0.00  0.00    -0.157 F 
ATOM     14  F   UNL A   1     -28.295  -4.753  29.547  0.00  0.00    -0.157 F 
BRANCH  12  15
ATOM     15  C   UNL A   1     -30.003  -4.561  31.219  0.00  0.00    +0.423 C 
ATOM     16 CL   UNL A   1     -31.210  -4.388  30.551  0.00  0.00    -0.038 Cl
ATOM     17  F   UNL A   1     -29.995  -4.067  32.529  0.00  0.00    -0.176 F 
ATOM     18  F   UNL A   1     -29.670  -5.904  31.301  0.00  0.00    -0.176 F 
ENDBRANCH  12  15
ENDBRANCH  11  12
ENDBRANCH   6  11
BRANCH   4  19
ATOM     19  C   UNL A   1     -24.130  -1.805  30.296  0.00  0.00    +0.032 C 
BRANCH  19  20
ATOM     20  C   UNL A   1     -23.541  -0.972  31.387  0.00  0.00    +0.031 C 
BRANCH  20  21
ATOM     21  C   UNL A   1     -24.472  -0.218  32.024  0.00  0.00    -0.022 A 
ATOM     22  C   UNL A   1     -24.956  -0.688  33.273  0.00  0.00    -0.004 A 
ATOM     23  C   UNL A   1     -25.947   0.046  34.008  0.00  0.00    -0.000 A 
ATOM     24  C   UNL A   1     -26.431   1.238  33.506  0.00  0.00    -0.000 A 
ATOM     25  C   UNL A   1     -25.837   1.735  32.292  0.00  0.00    -0.000 A 
ATOM     26  C   UNL A   1     -24.892   1.066  31.642  0.00  0.00    -0.004 A 
ENDBRANCH  20  21
ENDBRANCH  19  20
ENDBRANCH   4  19
TORSDOF 7
