REMARK  Name = No_4261-gen_results/8p0m/2024-11-26-14-13-15/
REMARK  5 active torsions:
REMARK  status: ('A' for Active; 'I' for Inactive)
REMARK    1  A    between atoms: C_1  and  C_2
REMARK    2  A    between atoms: C_3  and  O_12
REMARK    3  A    between atoms: O_12  and  C_13
REMARK    4  A    between atoms: C_13  and  C_14
REMARK    5  A    between atoms: C_14  and  C_15
REMARK                            x       y       z     vdW  Elec       q    Type
REMARK                         _______ _______ _______ _____ _____    ______ ____
ROOT
ATOM      1  C   UNL A   1     -27.064  -0.119  28.608  0.00  0.00    +0.079 A 
ATOM      2  C   UNL A   1     -27.001   0.691  27.491  0.00  0.00    +0.151 A 
ATOM      3  C   UNL A   1     -25.855   1.482  27.083  0.00  0.00    +0.050 A 
ATOM      4  C   UNL A   1     -24.690   1.453  27.881  0.00  0.00    +0.071 A 
ATOM      5  C   UNL A   1     -24.738   0.601  29.042  0.00  0.00    +0.068 A 
ATOM      6  C   UNL A   1     -25.823  -0.169  29.389  0.00  0.00    +0.016 A 
ATOM      7 CL   UNL A   1     -23.330   2.346  27.530  0.00  0.00    -0.081 Cl
ATOM      8 CL   UNL A   1     -23.258   0.523  30.001  0.00  0.00    -0.081 Cl
ENDROOT
BRANCH   1   9
ATOM      9  C   UNL A   1     -28.016  -0.814  28.878  0.00  0.00    +0.344 C 
ATOM     10  F   UNL A   1     -27.818  -1.996  29.255  0.00  0.00    -0.193 F 
ATOM     11  F   UNL A   1     -29.211  -0.463  28.749  0.00  0.00    -0.193 F 
ENDBRANCH   1   9
BRANCH   2  12
ATOM     12  O   UNL A   1     -28.029   0.770  26.662  0.00  0.00    -0.424 OA
BRANCH  12  13
ATOM     13  C   UNL A   1     -28.686   1.831  26.508  0.00  0.00    +0.326 C 
ATOM     14  O   UNL A   1     -28.680   2.817  27.363  0.00  0.00    -0.249 OA
BRANCH  13  15
ATOM     15  C   UNL A   1     -29.364   1.891  25.369  0.00  0.00    +0.136 C 
BRANCH  15  16
ATOM     16  C   UNL A   1     -30.592   1.220  25.510  0.00  0.00    -0.011 A 
ATOM     17  C   UNL A   1     -31.074   0.776  26.335  0.00  0.00    -0.004 A 
ATOM     18  C   UNL A   1     -32.361  -0.036  26.429  0.00  0.00    -0.000 A 
ATOM     19  C   UNL A   1     -32.882  -0.286  25.158  0.00  0.00    -0.000 A 
ATOM     20  C   UNL A   1     -32.310   0.138  23.979  0.00  0.00    -0.000 A 
ATOM     21  C   UNL A   1     -31.210   0.899  24.074  0.00  0.00    -0.004 A 
ENDBRANCH  15  16
ENDBRANCH  13  15
ENDBRANCH  12  13
ENDBRANCH   2  12
TORSDOF 5
