MODEL 4261
MODEL 1
REMARK VINA RESULT:    -6.888      0.000      0.000
REMARK INTER + INTRA:          -9.649
REMARK INTER:                  -8.901
REMARK INTRA:                  -0.748
REMARK UNBOUND:                -0.748
REMARK  Name = No_4261-gen_results/8p0m/2024-11-26-14-13-15/
REMARK  5 active torsions:
REMARK  status: ('A' for Active; 'I' for Inactive)
REMARK    1  A    between atoms: C_1  and  C_2
REMARK    2  A    between atoms: C_3  and  O_12
REMARK    3  A    between atoms: O_12  and  C_13
REMARK    4  A    between atoms: C_13  and  C_14
REMARK    5  A    between atoms: C_14  and  C_15
REMARK                            x       y       z     vdW  Elec       q    Type
REMARK                         _______ _______ _______ _____ _____    ______ ____
ROOT
ATOM      1  C   UNL A   1     -24.128   1.764  26.470  0.00  0.00    +0.079 A 
ATOM      2  C   UNL A   1     -24.563   0.569  27.009  0.00  0.00    +0.151 A 
ATOM      3  C   UNL A   1     -25.922   0.061  26.954  0.00  0.00    +0.050 A 
ATOM      4  C   UNL A   1     -26.912   0.836  26.311  0.00  0.00    +0.071 A 
ATOM      5  C   UNL A   1     -26.467   2.079  25.732  0.00  0.00    +0.068 A 
ATOM      6  C   UNL A   1     -25.166   2.523  25.764  0.00  0.00    +0.016 A 
ATOM      7 CL   UNL A   1     -28.507   0.371  26.218  0.00  0.00    -0.081 Cl
ATOM      8 CL   UNL A   1     -27.697   3.013  24.878  0.00  0.00    -0.081 Cl
ENDROOT
BRANCH   1   9
ATOM      9  C   UNL A   1     -22.972   2.121  26.480  0.00  0.00    +0.344 C 
ATOM     10  F   UNL A   1     -22.358   2.223  25.388  0.00  0.00    -0.193 F 
ATOM     11  F   UNL A   1     -22.306   2.341  27.517  0.00  0.00    -0.193 F 
ENDBRANCH   1   9
BRANCH   2  12
ATOM     12  O   UNL A   1     -23.711  -0.245  27.611  0.00  0.00    -0.424 OA
BRANCH  12  13
ATOM     13  C   UNL A   1     -23.699  -0.398  28.859  0.00  0.00    +0.326 C 
ATOM     14  O   UNL A   1     -24.087   0.516  29.705  0.00  0.00    -0.249 OA
BRANCH  13  15
ATOM     15  C   UNL A   1     -23.294  -1.598  29.255  0.00  0.00    +0.136 C 
BRANCH  15  16
ATOM     16  C   UNL A   1     -24.397  -2.464  29.356  0.00  0.00    -0.011 A 
ATOM     17  C   UNL A   1     -25.334  -2.378  29.831  0.00  0.00    -0.004 A 
ATOM     18  C   UNL A   1     -26.468  -3.382  30.006  0.00  0.00    -0.000 A 
ATOM     19  C   UNL A   1     -26.094  -4.638  29.526  0.00  0.00    -0.000 A 
ATOM     20  C   UNL A   1     -24.868  -4.934  28.973  0.00  0.00    -0.000 A 
ATOM     21  C   UNL A   1     -24.002  -3.919  28.833  0.00  0.00    -0.004 A 
ENDBRANCH  15  16
ENDBRANCH  13  15
ENDBRANCH  12  13
ENDBRANCH   2  12
TORSDOF 5
ENDMDL
ENDMDL
