MODEL 4262
MODEL 1
REMARK VINA RESULT:    -5.546      0.000      0.000
REMARK INTER + INTRA:          -5.973
REMARK INTER:                  -5.871
REMARK INTRA:                  -0.102
REMARK UNBOUND:                -0.102
REMARK  Name = No_4262-gen_results/8p0m/2024-11-26-14-13-15/
REMARK  1 active torsions:
REMARK  status: ('A' for Active; 'I' for Inactive)
REMARK    1  A    between atoms: C_2  and  C_4
REMARK                            x       y       z     vdW  Elec       q    Type
REMARK                         _______ _______ _______ _____ _____    ______ ____
ROOT
ATOM      1  C   UNL A   1      -8.525  -9.854  18.619  0.00  0.00    +0.240 C 
ATOM      2  N   UNL A   1      -8.213  -8.692  18.282  0.00  0.00    -0.249 NA
ATOM      3  C   UNL A   1      -7.374  -7.999  18.816  0.00  0.00    +0.094 C 
ATOM      4  C   UNL A   1      -7.973 -10.351  19.793  0.00  0.00    +0.073 C 
ATOM      5  C   UNL A   1      -7.085  -9.612  20.586  0.00  0.00    -0.021 C 
ATOM      6  C   UNL A   1      -6.763  -8.338  20.069  0.00  0.00    +0.016 C 
ATOM      7 CL   UNL A   1      -9.139  -9.169  19.101  0.00  0.00    -0.082 Cl
ENDROOT
BRANCH   1   9
ATOM      8  F   UNL A   1      -9.245 -11.849  17.822  0.00  0.00    -0.167 F 
ATOM      9  C   UNL A   1      -9.401 -10.721  17.699  0.00  0.00    +0.429 C 
ATOM     10  F   UNL A   1      -9.139 -10.521  16.584  0.00  0.00    -0.167 F 
ATOM     11  F   UNL A   1     -10.702 -10.330  17.942  0.00  0.00    -0.167 F 
ENDBRANCH   1   9
TORSDOF 1
ENDMDL
ENDMDL
