REMARK  Name = No_4262-gen_results/8p0m/2024-11-26-14-13-15/
REMARK  1 active torsions:
REMARK  status: ('A' for Active; 'I' for Inactive)
REMARK    1  A    between atoms: C_2  and  C_4
REMARK                            x       y       z     vdW  Elec       q    Type
REMARK                         _______ _______ _______ _____ _____    ______ ____
ROOT
ATOM      1  C   UNL A   1     -26.176  -0.713  29.646  0.00  0.00    +0.240 C 
ATOM      2  N   UNL A   1     -25.905   0.025  30.618  0.00  0.00    -0.249 NA
ATOM      3  C   UNL A   1     -24.892  -0.019  31.282  0.00  0.00    +0.094 C 
ATOM      4  C   UNL A   1     -25.315  -1.773  29.387  0.00  0.00    +0.073 C 
ATOM      5  C   UNL A   1     -24.170  -2.025  30.154  0.00  0.00    -0.021 C 
ATOM      6  C   UNL A   1     -23.940  -1.087  31.185  0.00  0.00    +0.016 C 
ATOM      7 CL   UNL A   1     -26.553  -1.127  30.521  0.00  0.00    -0.082 Cl
ENDROOT
BRANCH   1   9
ATOM      8  F   UNL A   1     -28.073  -1.254  28.532  0.00  0.00    -0.167 F 
ATOM      9  C   UNL A   1     -27.359  -0.379  28.722  0.00  0.00    +0.429 C 
ATOM     10  F   UNL A   1     -26.976  -0.093  27.662  0.00  0.00    -0.167 F 
ATOM     11  F   UNL A   1     -27.985   0.710  29.293  0.00  0.00    -0.167 F 
ENDBRANCH   1   9
TORSDOF 1
