REMARK  Name = No_4263-gen_results/8p0m/2024-11-26-14-13-15/
REMARK  1 active torsions:
REMARK  status: ('A' for Active; 'I' for Inactive)
REMARK    1  A    between atoms: C_2  and  C_7
REMARK                            x       y       z     vdW  Elec       q    Type
REMARK                         _______ _______ _______ _____ _____    ______ ____
ROOT
ATOM      1  C   UNL A   1     -25.891  -0.626  27.786  0.00  0.00    +0.045 C 
ATOM      2  C   UNL A   1     -25.463   0.112  26.681  0.00  0.00    -0.044 C 
ATOM      3  C   UNL A   1     -25.031  -1.670  28.241  0.00  0.00    +0.035 C 
ATOM      4  C   UNL A   1     -24.396  -1.719  29.477  0.00  0.00    -0.017 C 
ATOM      5  C   UNL A   1     -23.718  -0.981  30.060  0.00  0.00    +0.045 C 
ATOM      6  C   UNL A   1     -23.159   0.248  29.385  0.00  0.00    -0.064 C 
ATOM      7  C   UNL A   1     -22.591   0.800  28.719  0.00  0.00    -0.086 C 
ATOM      8  C   UNL A   1     -22.057   1.834  27.899  0.00  0.00    +0.081 C 
ATOM      9  C   UNL A   1     -24.714   1.218  26.706  0.00  0.00    -0.033 C 
ATOM     10  C   UNL A   1     -23.201   1.982  26.681  0.00  0.00    +0.039 C 
ATOM     11  C   UNL A   1     -26.111  -0.042  25.407  0.00  0.00    +0.026 C 
ENDROOT
BRANCH   1  13
ATOM     12  C   UNL A   1     -28.016  -0.814  28.878  0.00  0.00    -0.004 A 
ATOM     13  C   UNL A   1     -27.064  -0.119  28.608  0.00  0.00    -0.018 A 
ATOM     14  C   UNL A   1     -26.929   1.171  29.008  0.00  0.00    -0.004 A 
ATOM     15  C   UNL A   1     -27.956   1.741  29.784  0.00  0.00    -0.000 A 
ATOM     16  C   UNL A   1     -29.057  -0.327  29.747  0.00  0.00    -0.000 A 
ATOM     17  C   UNL A   1     -28.983   0.972  30.152  0.00  0.00    -0.000 A 
ENDBRANCH   1  13
TORSDOF 1
