MODEL 4263
MODEL 1
REMARK VINA RESULT:    -7.857      0.000      0.000
REMARK INTER + INTRA:          -8.984
REMARK INTER:                  -8.317
REMARK INTRA:                  -0.668
REMARK UNBOUND:                -0.668
REMARK  Name = No_4263-gen_results/8p0m/2024-11-26-14-13-15/
REMARK  1 active torsions:
REMARK  status: ('A' for Active; 'I' for Inactive)
REMARK    1  A    between atoms: C_2  and  C_7
REMARK                            x       y       z     vdW  Elec       q    Type
REMARK                         _______ _______ _______ _____ _____    ______ ____
ROOT
ATOM      1  C   UNL A   1     -24.664  -1.188  29.798  0.00  0.00    +0.045 C 
ATOM      2  C   UNL A   1     -23.443  -0.663  30.224  0.00  0.00    -0.044 C 
ATOM      3  C   UNL A   1     -25.693  -0.255  29.472  0.00  0.00    +0.035 C 
ATOM      4  C   UNL A   1     -26.258  -0.074  28.214  0.00  0.00    -0.017 C 
ATOM      5  C   UNL A   1     -25.820   0.124  27.159  0.00  0.00    +0.045 C 
ATOM      6  C   UNL A   1     -24.363   0.481  26.986  0.00  0.00    -0.064 C 
ATOM      7  C   UNL A   1     -23.499   1.044  27.068  0.00  0.00    -0.086 C 
ATOM      8  C   UNL A   1     -22.145   1.484  27.100  0.00  0.00    +0.081 C 
ATOM      9  C   UNL A   1     -22.408  -0.327  29.448  0.00  0.00    -0.033 C 
ATOM     10  C   UNL A   1     -21.561   0.811  28.521  0.00  0.00    +0.039 C 
ATOM     11  C   UNL A   1     -23.038  -0.782  31.598  0.00  0.00    +0.026 C 
ENDROOT
BRANCH   1  13
ATOM     12  C   UNL A   1     -23.895  -3.219  28.784  0.00  0.00    -0.004 A 
ATOM     13  C   UNL A   1     -24.751  -2.660  29.430  0.00  0.00    -0.018 A 
ATOM     14  C   UNL A   1     -25.866  -3.272  29.902  0.00  0.00    -0.004 A 
ATOM     15  C   UNL A   1     -26.044  -4.641  29.626  0.00  0.00    -0.000 A 
ATOM     16  C   UNL A   1     -23.965  -4.638  28.546  0.00  0.00    -0.000 A 
ATOM     17  C   UNL A   1     -25.080  -5.294  28.974  0.00  0.00    -0.000 A 
ENDBRANCH   1  13
TORSDOF 1
ENDMDL
ENDMDL
