MODEL 4264
MODEL 1
REMARK VINA RESULT:    -5.335      0.000      0.000
REMARK INTER + INTRA:          -5.704
REMARK INTER:                  -5.647
REMARK INTRA:                  -0.057
REMARK UNBOUND:                -0.057
REMARK  Name = No_4264-gen_results/8p0m/2024-11-26-14-13-15/
REMARK  1 active torsions:
REMARK  status: ('A' for Active; 'I' for Inactive)
REMARK    1  A    between atoms: C_1  and  C_7
REMARK                            x       y       z     vdW  Elec       q    Type
REMARK                         _______ _______ _______ _____ _____    ______ ____
ROOT
ATOM      1  C   UNL A   1     -24.371  -2.744  29.129  0.00  0.00    +0.055 A 
ATOM      2  C   UNL A   1     -23.944  -3.805  28.736  0.00  0.00    +0.005 A 
ATOM      3  C   UNL A   1     -24.607  -5.005  28.901  0.00  0.00    +0.000 A 
ATOM      4  C   UNL A   1     -25.880  -4.981  29.536  0.00  0.00    +0.000 A 
ATOM      5  C   UNL A   1     -26.390  -3.756  29.803  0.00  0.00    +0.000 A 
ATOM      6  C   UNL A   1     -25.699  -2.656  29.572  0.00  0.00    +0.005 A 
ENDROOT
BRANCH   1   7
ATOM      7  C   UNL A   1     -23.583  -1.479  28.894  0.00  0.00    +0.265 C 
ATOM      8  O   UNL A   1     -24.113  -0.581  28.252  0.00  0.00    -0.268 OA
ATOM      9  N   UNL A   1     -22.275  -1.371  29.217  0.00  0.00    -0.200 NA
ATOM     10  C   UNL A   1     -21.509  -0.219  28.801  0.00  0.00    +0.139 C 
ENDBRANCH   1   7
TORSDOF 1
ENDMDL
ENDMDL
