REMARK  Name = No_4265-gen_results/8p0m/2024-11-26-14-13-15/
REMARK  7 active torsions:
REMARK  status: ('A' for Active; 'I' for Inactive)
REMARK    1  A    between atoms: C_2  and  O_21
REMARK    2  A    between atoms: C_3  and  C_7
REMARK    3  A    between atoms: C_7  and  C_15
REMARK    4  A    between atoms: C_8  and  C_9
REMARK    5  A    between atoms: C_10  and  C_18
REMARK    6  A    between atoms: O_21  and  C_22
REMARK    7  A    between atoms: C_22  and  C_23
REMARK                            x       y       z     vdW  Elec       q    Type
REMARK                         _______ _______ _______ _____ _____    ______ ____
ROOT
ATOM      1  C   UNL A   1     -28.016  -0.814  28.878  0.00  0.00    +0.037 A 
ATOM      2  C   UNL A   1     -28.469  -0.785  29.829  0.00  0.00    +0.144 A 
ATOM      3  C   UNL A   1     -27.136   0.236  28.535  0.00  0.00    +0.004 A 
ATOM      4  C   UNL A   1     -26.875   1.282  29.398  0.00  0.00    +0.000 A 
ATOM      5  C   UNL A   1     -28.361   0.199  30.924  0.00  0.00    +0.037 A 
ATOM      6  C   UNL A   1     -27.528   1.223  30.636  0.00  0.00    +0.003 A 
ENDROOT
BRANCH   3   7
ATOM      7  C   UNL A   1     -26.399   0.295  27.228  0.00  0.00    +0.044 C 
ATOM      8  C   UNL A   1     -25.039   0.236  27.354  0.00  0.00    +0.001 C 
BRANCH   8   9
ATOM      9  C   UNL A   1     -24.437   0.006  28.583  0.00  0.00    +0.008 A 
ATOM     10  C   UNL A   1     -23.276   0.612  28.981  0.00  0.00    +0.098 A 
ATOM     11  C   UNL A   1     -22.457   0.129  30.052  0.00  0.00    +0.008 A 
ATOM     12  C   UNL A   1     -23.091  -0.731  30.948  0.00  0.00    +0.000 A 
ATOM     13  C   UNL A   1     -24.787  -1.005  29.582  0.00  0.00    +0.000 A 
ATOM     14  C   UNL A   1     -24.105  -1.367  30.651  0.00  0.00    +0.000 A 
BRANCH  10  15
ATOM     15  C   UNL A   1     -22.616   1.679  28.106  0.00  0.00    +0.477 C 
ATOM     16  N   UNL A   1     -22.117   2.753  28.501  0.00  0.00    +0.205 NA
ATOM     17  N   UNL A   1     -22.804   1.622  26.795  0.00  0.00    +0.205 NA
ENDBRANCH  10  15
ENDBRANCH   8   9
BRANCH   7  18
ATOM     18  C   UNL A   1     -27.103   0.473  26.053  0.00  0.00    +0.341 C 
ATOM     19  F   UNL A   1     -26.464   0.144  25.052  0.00  0.00    -0.193 F 
ATOM     20  F   UNL A   1     -28.271   0.769  25.974  0.00  0.00    -0.193 F 
ENDBRANCH   7  18
ENDBRANCH   3   7
BRANCH   2  21
ATOM     21  O   UNL A   1     -29.400  -1.834  30.274  0.00  0.00    -0.424 OA
BRANCH  21  22
ATOM     22  C   UNL A   1     -29.139  -2.990  30.757  0.00  0.00    +0.482 C 
ATOM     23  F   UNL A   1     -27.838  -2.951  30.154  0.00  0.00    -0.155 F 
ATOM     24  F   UNL A   1     -30.137  -2.375  31.717  0.00  0.00    -0.155 F 
BRANCH  22  25
ATOM     25  C   UNL A   1     -29.853  -4.062  30.183  0.00  0.00    +0.332 C 
ATOM     26  O   UNL A   1     -30.026  -4.261  29.103  0.00  0.00    -0.265 OA
ATOM     27  N   UNL A   1     -30.137  -5.123  31.170  0.00  0.00    -0.246 N 
ATOM     28  C   UNL A   1     -30.760  -6.000  31.065  0.00  0.00    +0.096 C 
ATOM     29  C   UNL A   1     -30.722  -7.073  32.011  0.00  0.00    +0.022 C 
ATOM     30  C   UNL A   1     -29.905  -6.933  33.166  0.00  0.00    +0.006 C 
ATOM     31  C   UNL A   1     -29.129  -5.808  33.248  0.00  0.00    +0.057 C 
ATOM     32  C   UNL A   1     -29.114  -4.930  32.300  0.00  0.00    +0.240 C 
ATOM     33  F   UNL A   1     -28.631  -3.728  32.184  0.00  0.00    -0.215 F 
ENDBRANCH  22  25
ENDBRANCH  21  22
ENDBRANCH   2  21
TORSDOF 7
