MODEL 4265
MODEL 1
REMARK VINA RESULT:    -7.733      0.000      0.000
REMARK INTER + INTRA:         -10.864
REMARK INTER:                 -10.897
REMARK INTRA:                   0.034
REMARK UNBOUND:                 0.034
REMARK  Name = No_4265-gen_results/8p0m/2024-11-26-14-13-15/
REMARK  7 active torsions:
REMARK  status: ('A' for Active; 'I' for Inactive)
REMARK    1  A    between atoms: C_2  and  O_21
REMARK    2  A    between atoms: C_3  and  C_7
REMARK    3  A    between atoms: C_7  and  C_15
REMARK    4  A    between atoms: C_8  and  C_9
REMARK    5  A    between atoms: C_10  and  C_18
REMARK    6  A    between atoms: O_21  and  C_22
REMARK    7  A    between atoms: C_22  and  C_23
REMARK                            x       y       z     vdW  Elec       q    Type
REMARK                         _______ _______ _______ _____ _____    ______ ____
ROOT
ATOM      1  C   UNL A   1     -24.575  -0.652  28.087  0.00  0.00    +0.037 A 
ATOM      2  C   UNL A   1     -23.990   0.183  27.821  0.00  0.00    +0.144 A 
ATOM      3  C   UNL A   1     -23.988  -1.628  28.923  0.00  0.00    +0.004 A 
ATOM      4  C   UNL A   1     -22.689  -1.516  29.376  0.00  0.00    +0.000 A 
ATOM      5  C   UNL A   1     -22.600   0.542  28.165  0.00  0.00    +0.037 A 
ATOM      6  C   UNL A   1     -22.000  -0.368  28.964  0.00  0.00    +0.003 A 
ENDROOT
BRANCH   3   7
ATOM      7  C   UNL A   1     -24.724  -2.845  29.405  0.00  0.00    +0.044 C 
ATOM      8  C   UNL A   1     -25.505  -2.623  30.505  0.00  0.00    +0.001 C 
BRANCH   8   9
ATOM      9  C   UNL A   1     -25.682  -1.346  31.019  0.00  0.00    +0.008 A 
ATOM     10  C   UNL A   1     -26.762  -0.557  30.728  0.00  0.00    +0.098 A 
ATOM     11  C   UNL A   1     -26.788   0.859  30.936  0.00  0.00    +0.008 A 
ATOM     12  C   UNL A   1     -25.838   1.349  31.832  0.00  0.00    +0.000 A 
ATOM     13  C   UNL A   1     -24.728  -0.544  31.786  0.00  0.00    +0.000 A 
ATOM     14  C   UNL A   1     -24.804   0.734  32.102  0.00  0.00    +0.000 A 
BRANCH  10  15
ATOM     15  C   UNL A   1     -27.912  -1.096  29.875  0.00  0.00    +0.477 C 
ATOM     16  N   UNL A   1     -28.333  -0.604  28.808  0.00  0.00    +0.205 NA
ATOM     17  N   UNL A   1     -28.722  -1.999  30.409  0.00  0.00    +0.205 NA
ENDBRANCH  10  15
ENDBRANCH   8   9
BRANCH   7  18
ATOM     18  C   UNL A   1     -24.515  -4.061  28.784  0.00  0.00    +0.341 C 
ATOM     19  F   UNL A   1     -25.476  -4.826  28.883  0.00  0.00    -0.193 F 
ATOM     20  F   UNL A   1     -23.573  -4.335  28.079  0.00  0.00    -0.193 F 
ENDBRANCH   7  18
ENDBRANCH   3   7
BRANCH   2  21
ATOM     21  O   UNL A   1     -24.515   1.250  26.954  0.00  0.00    -0.424 OA
BRANCH  21  22
ATOM     22  C   UNL A   1     -25.375   1.170  26.010  0.00  0.00    +0.482 C 
ATOM     23  F   UNL A   1     -24.333   0.825  25.086  0.00  0.00    -0.155 F 
ATOM     24  F   UNL A   1     -26.142   0.839  27.274  0.00  0.00    -0.155 F 
BRANCH  22  25
ATOM     25  C   UNL A   1     -25.937   2.395  25.596  0.00  0.00    +0.332 C 
ATOM     26  O   UNL A   1     -25.435   3.385  25.535  0.00  0.00    -0.265 OA
ATOM     27  N   UNL A   1     -27.246   2.205  24.939  0.00  0.00    -0.246 N 
ATOM     28  C   UNL A   1     -27.964   2.949  24.628  0.00  0.00    +0.096 C 
ATOM     29  C   UNL A   1     -29.060   2.629  23.764  0.00  0.00    +0.022 C 
ATOM     30  C   UNL A   1     -29.252   1.273  23.384  0.00  0.00    +0.006 C 
ATOM     31  C   UNL A   1     -28.310   0.370  23.798  0.00  0.00    +0.057 C 
ATOM     32  C   UNL A   1     -27.273   0.741  24.474  0.00  0.00    +0.240 C 
ATOM     33  F   UNL A   1     -26.342   0.109  25.127  0.00  0.00    -0.215 F 
ENDBRANCH  22  25
ENDBRANCH  21  22
ENDBRANCH   2  21
TORSDOF 7
ENDMDL
ENDMDL
