REMARK  Name = No_4266-gen_results/8p0m/2024-11-26-14-13-15/
REMARK  2 active torsions:
REMARK  status: ('A' for Active; 'I' for Inactive)
REMARK    1  A    between atoms: C_1  and  C_2
REMARK    2  A    between atoms: C_4  and  C_5
REMARK                            x       y       z     vdW  Elec       q    Type
REMARK                         _______ _______ _______ _____ _____    ______ ____
ROOT
ATOM      1  C   UNL A   1     -27.064  -0.119  28.608  0.00  0.00    +0.153 A 
ATOM      2  N   UNL A   1     -25.818  -0.343  29.049  0.00  0.00    -0.241 NA
ATOM      3  C   UNL A   1     -24.676   0.381  28.750  0.00  0.00    +0.083 A 
ATOM      4  C   UNL A   1     -27.181   0.968  27.639  0.00  0.00    +0.023 A 
ATOM      5  C   UNL A   1     -26.079   1.760  27.195  0.00  0.00    +0.003 A 
ATOM      6  C   UNL A   1     -24.701   1.443  27.765  0.00  0.00    +0.019 A 
ENDROOT
BRANCH   3   7
ATOM      7  C   UNL A   1     -23.332   0.023  29.205  0.00  0.00    +0.034 A 
ATOM      8  C   UNL A   1     -23.141  -0.913  30.171  0.00  0.00    +0.090 A 
ATOM      9  C   UNL A   1     -22.212   0.675  28.612  0.00  0.00    +0.003 A 
ATOM     10  C   UNL A   1     -20.924   0.146  28.962  0.00  0.00    +0.000 A 
ATOM     11  N   UNL A   1     -24.170  -1.446  30.835  0.00  0.00    -0.128 NA
ATOM     12  C   UNL A   1     -20.870  -1.024  29.724  0.00  0.00    +0.001 A 
ATOM     13  C   UNL A   1     -21.861  -1.428  30.491  0.00  0.00    +0.018 A 
ENDBRANCH   3   7
BRANCH   1  14
ATOM     14  C   UNL A   1     -28.016  -0.814  28.878  0.00  0.00    +0.435 C 
ATOM     15  F   UNL A   1     -28.442  -0.335  30.068  0.00  0.00    -0.164 F 
ATOM     16  F   UNL A   1     -27.592  -2.114  29.209  0.00  0.00    -0.164 F 
ATOM     17  F   UNL A   1     -29.045  -0.837  28.097  0.00  0.00    -0.164 F 
ENDBRANCH   1  14
TORSDOF 2
