MODEL 4266
MODEL 1
REMARK VINA RESULT:    -7.135      0.000      0.000
REMARK INTER + INTRA:          -8.444
REMARK INTER:                  -7.969
REMARK INTRA:                  -0.475
REMARK UNBOUND:                -0.475
REMARK  Name = No_4266-gen_results/8p0m/2024-11-26-14-13-15/
REMARK  2 active torsions:
REMARK  status: ('A' for Active; 'I' for Inactive)
REMARK    1  A    between atoms: C_1  and  C_2
REMARK    2  A    between atoms: C_4  and  C_5
REMARK                            x       y       z     vdW  Elec       q    Type
REMARK                         _______ _______ _______ _____ _____    ______ ____
ROOT
ATOM      1  C   UNL A   1     -23.828   0.657  27.177  0.00  0.00    +0.153 A 
ATOM      2  N   UNL A   1     -24.379  -0.478  27.633  0.00  0.00    -0.241 NA
ATOM      3  C   UNL A   1     -23.931  -1.272  28.675  0.00  0.00    +0.083 A 
ATOM      4  C   UNL A   1     -22.569   1.024  27.821  0.00  0.00    +0.023 A 
ATOM      5  C   UNL A   1     -21.961   0.268  28.868  0.00  0.00    +0.003 A 
ATOM      6  C   UNL A   1     -22.669  -1.000  29.333  0.00  0.00    +0.019 A 
ENDROOT
BRANCH   3   7
ATOM      7  C   UNL A   1     -24.541  -2.545  29.060  0.00  0.00    +0.034 A 
ATOM      8  C   UNL A   1     -25.687  -2.586  29.788  0.00  0.00    +0.090 A 
ATOM      9  C   UNL A   1     -23.909  -3.757  28.655  0.00  0.00    +0.003 A 
ATOM     10  C   UNL A   1     -24.654  -4.960  28.897  0.00  0.00    +0.000 A 
ATOM     11  N   UNL A   1     -26.230  -1.475  30.292  0.00  0.00    -0.128 NA
ATOM     12  C   UNL A   1     -25.964  -4.848  29.370  0.00  0.00    +0.001 A 
ATOM     13  C   UNL A   1     -26.410  -3.785  30.004  0.00  0.00    +0.018 A 
ENDBRANCH   3   7
BRANCH   1  14
ATOM     14  C   UNL A   1     -24.249   1.286  26.234  0.00  0.00    +0.435 C 
ATOM     15  F   UNL A   1     -24.581   0.336  25.331  0.00  0.00    -0.164 F 
ATOM     16  F   UNL A   1     -23.196   1.961  25.590  0.00  0.00    -0.164 F 
ATOM     17  F   UNL A   1     -25.284   2.046  26.372  0.00  0.00    -0.164 F 
ENDBRANCH   1  14
TORSDOF 2
ENDMDL
ENDMDL
