MODEL 4267
MODEL 1
REMARK VINA RESULT:    -4.465      0.000      0.000
REMARK INTER + INTRA:          -4.465
REMARK INTER:                  -4.465
REMARK INTRA:                   0.000
REMARK UNBOUND:                 0.000
REMARK  Name = No_4267-gen_results/8p0m/2024-11-26-14-13-15/
REMARK  0 active torsions:
REMARK  status: ('A' for Active; 'I' for Inactive)
REMARK                            x       y       z     vdW  Elec       q    Type
REMARK                         _______ _______ _______ _____ _____    ______ ____
ROOT
ATOM      1  C   UNL A   1      -9.217  -9.192  20.143  0.00  0.00    +0.011 A 
ATOM      2  C   UNL A   1      -8.219  -9.852  19.968  0.00  0.00    +0.058 A 
ATOM      3  C   UNL A   1      -8.058 -10.617  18.818  0.00  0.00    +0.011 A 
ATOM      4  C   UNL A   1      -9.095 -10.684  17.820  0.00  0.00    +0.001 A 
ATOM      5  C   UNL A   1     -10.224  -9.908  18.115  0.00  0.00    +0.000 A 
ATOM      6  C   UNL A   1     -10.334  -9.215  19.225  0.00  0.00    +0.001 A 
ATOM      7 CL   UNL A   1      -6.910  -9.930  21.069  0.00  0.00    -0.082 Cl
ENDROOT
TORSDOF 0
ENDMDL
ENDMDL
