MODEL 4268
MODEL 1
REMARK VINA RESULT:    -6.470      0.000      0.000
REMARK INTER + INTRA:          -7.648
REMARK INTER:                  -7.226
REMARK INTRA:                  -0.422
REMARK UNBOUND:                -0.422
REMARK  Name = No_4268-gen_results/8p0m/2024-11-26-14-13-15/
REMARK  2 active torsions:
REMARK  status: ('A' for Active; 'I' for Inactive)
REMARK    1  A    between atoms: C_3  and  C_7
REMARK    2  A    between atoms: C_6  and  C_13
REMARK                            x       y       z     vdW  Elec       q    Type
REMARK                         _______ _______ _______ _____ _____    ______ ____
ROOT
ATOM      1  C   UNL A   1     -29.357 -10.221  32.435  0.00  0.00    +0.007 A 
ATOM      2  C   UNL A   1     -29.740 -10.142  31.290  0.00  0.00    +0.000 A 
ATOM      3  C   UNL A   1     -29.312 -10.994  30.273  0.00  0.00    +0.000 A 
ATOM      4  C   UNL A   1     -28.309 -11.998  30.569  0.00  0.00    +0.000 A 
ATOM      5  C   UNL A   1     -27.881 -12.041  31.895  0.00  0.00    +0.007 A 
ATOM      6  C   UNL A   1     -28.333 -11.187  32.793  0.00  0.00    +0.080 A 
ENDROOT
BRANCH   3   7
ATOM      7  C   UNL A   1     -29.739 -10.967  28.837  0.00  0.00    +0.000 A 
ATOM      8  C   UNL A   1     -30.777 -10.285  28.445  0.00  0.00    +0.000 A 
ATOM      9  C   UNL A   1     -31.287 -10.388  27.171  0.00  0.00    +0.000 A 
ATOM     10  C   UNL A   1     -30.772 -11.249  26.200  0.00  0.00    +0.000 A 
ATOM     11  C   UNL A   1     -29.158 -11.915  27.878  0.00  0.00    +0.000 A 
ATOM     12  C   UNL A   1     -29.669 -12.003  26.550  0.00  0.00    +0.000 A 
ENDBRANCH   3   7
BRANCH   6  13
ATOM     13  C   UNL A   1     -27.777 -11.268  34.178  0.00  0.00    +0.388 C 
ATOM     14  O   UNL A   1     -27.276 -12.310  34.622  0.00  0.00    -0.241 OA
ATOM     15  O   UNL A   1     -27.739 -10.238  34.915  0.00  0.00    -0.241 OA
ENDBRANCH   6  13
TORSDOF 2
ENDMDL
ENDMDL
