MODEL 4269
MODEL 1
REMARK VINA RESULT:    -6.058      0.000      0.000
REMARK INTER + INTRA:          -7.607
REMARK INTER:                  -7.121
REMARK INTRA:                  -0.487
REMARK UNBOUND:                -0.487
REMARK  Name = No_4269-gen_results/8p0m/2024-11-26-14-13-15/
REMARK  3 active torsions:
REMARK  status: ('A' for Active; 'I' for Inactive)
REMARK    1  A    between atoms: C_2  and  C_11
REMARK    2  A    between atoms: C_3  and  C_4
REMARK    3  A    between atoms: C_6  and  C_14
REMARK                            x       y       z     vdW  Elec       q    Type
REMARK                         _______ _______ _______ _____ _____    ______ ____
ROOT
ATOM      1  C   UNL A   1     -28.250 -11.991  31.252  0.00  0.00    +0.010 A 
ATOM      2  C   UNL A   1     -28.202 -11.583  32.223  0.00  0.00    +0.080 A 
ATOM      3  C   UNL A   1     -29.157 -11.272  30.358  0.00  0.00    +0.071 A 
ATOM      4  C   UNL A   1     -28.832 -10.457  32.898  0.00  0.00    +0.006 A 
ATOM      5  C   UNL A   1     -29.707  -9.760  32.090  0.00  0.00    +0.026 A 
ATOM      6  C   UNL A   1     -29.849 -10.114  30.801  0.00  0.00    +0.004 A 
ENDROOT
BRANCH   3   7
ATOM      7  C   UNL A   1     -29.316 -11.588  28.921  0.00  0.00    +0.419 C 
ATOM      8  F   UNL A   1     -28.491 -11.826  28.356  0.00  0.00    -0.166 F 
ATOM      9  F   UNL A   1     -30.042 -10.511  28.327  0.00  0.00    -0.166 F 
ATOM     10  F   UNL A   1     -30.303 -12.649  28.792  0.00  0.00    -0.166 F 
ENDBRANCH   3   7
BRANCH   2  11
ATOM     11  C   UNL A   1     -27.158 -12.274  33.264  0.00  0.00    +0.388 C 
ATOM     12  O   UNL A   1     -26.403 -12.913  32.751  0.00  0.00    -0.241 OA
ATOM     13  O   UNL A   1     -27.472 -12.347  34.527  0.00  0.00    -0.241 OA
ENDBRANCH   2  11
BRANCH   5  14
ATOM     14  C   UNL A   1     -30.438  -8.576  32.594  0.00  0.00    +0.262 C 
ATOM     15 CL   UNL A   1     -30.268  -7.417  32.216  0.00  0.00    -0.072 Cl
ATOM     16  F   UNL A   1     -31.358  -8.994  33.519  0.00  0.00    -0.214 F 
ENDBRANCH   5  14
TORSDOF 3
ENDMDL
ENDMDL
