REMARK  Name = No_4269-gen_results/8p0m/2024-11-26-14-13-15/
REMARK  3 active torsions:
REMARK  status: ('A' for Active; 'I' for Inactive)
REMARK    1  A    between atoms: C_2  and  C_11
REMARK    2  A    between atoms: C_3  and  C_4
REMARK    3  A    between atoms: C_6  and  C_14
REMARK                            x       y       z     vdW  Elec       q    Type
REMARK                         _______ _______ _______ _____ _____    ______ ____
ROOT
ATOM      1  C   UNL A   1     -28.016  -0.814  28.878  0.00  0.00    +0.010 A 
ATOM      2  C   UNL A   1     -28.469  -0.785  29.829  0.00  0.00    +0.080 A 
ATOM      3  C   UNL A   1     -27.087   0.290  28.638  0.00  0.00    +0.071 A 
ATOM      4  C   UNL A   1     -28.391   0.104  30.980  0.00  0.00    +0.006 A 
ATOM      5  C   UNL A   1     -27.533   1.167  30.787  0.00  0.00    +0.026 A 
ATOM      6  C   UNL A   1     -26.828   1.256  29.645  0.00  0.00    +0.004 A 
ENDROOT
BRANCH   3   7
ATOM      7  C   UNL A   1     -26.252   0.411  27.422  0.00  0.00    +0.419 C 
ATOM      8  F   UNL A   1     -26.289  -0.321  26.701  0.00  0.00    -0.166 F 
ATOM      9  F   UNL A   1     -24.907   0.630  27.850  0.00  0.00    -0.166 F 
ATOM     10  F   UNL A   1     -26.525   1.700  26.805  0.00  0.00    -0.166 F 
ENDBRANCH   3   7
BRANCH   2  11
ATOM     11  C   UNL A   1     -29.461  -2.018  30.213  0.00  0.00    +0.388 C 
ATOM     12  O   UNL A   1     -30.492  -1.877  29.814  0.00  0.00    -0.241 OA
ATOM     13  O   UNL A   1     -29.135  -2.818  31.189  0.00  0.00    -0.241 OA
ENDBRANCH   2  11
BRANCH   5  14
ATOM     14  C   UNL A   1     -27.311   2.176  31.847  0.00  0.00    +0.262 C 
ATOM     15 CL   UNL A   1     -27.540   3.381  31.746  0.00  0.00    -0.072 Cl
ATOM     16  F   UNL A   1     -26.846   1.536  32.966  0.00  0.00    -0.214 F 
ENDBRANCH   5  14
TORSDOF 3
