MODEL 426
MODEL 1
REMARK VINA RESULT:    -6.062      0.000      0.000
REMARK INTER + INTRA:          -6.492
REMARK INTER:                  -6.417
REMARK INTRA:                  -0.075
REMARK UNBOUND:                -0.075
REMARK  Name = No_426-gen_results/8p0m/2024-11-26-14-13-15/
REMARK  1 active torsions:
REMARK  status: ('A' for Active; 'I' for Inactive)
REMARK    1  A    between atoms: C_9  and  C_11
REMARK                            x       y       z     vdW  Elec       q    Type
REMARK                         _______ _______ _______ _____ _____    ______ ____
ROOT
ATOM      1  C   UNL A   1     -23.002   1.990  27.071  0.00  0.00    +0.003 A 
ATOM      2  C   UNL A   1     -23.154   0.976  27.711  0.00  0.00    +0.035 A 
ATOM      3  C   UNL A   1     -24.107   0.005  27.405  0.00  0.00    +0.145 A 
ATOM      4  C   UNL A   1     -25.015   0.232  26.297  0.00  0.00    +0.037 A 
ATOM      5  C   UNL A   1     -24.818   1.423  25.599  0.00  0.00    +0.003 A 
ATOM      6  C   UNL A   1     -23.897   2.293  25.966  0.00  0.00    +0.000 A 
ATOM      7  O   UNL A   1     -24.330  -1.151  28.113  0.00  0.00    -0.454 OA
ATOM      8  C   UNL A   1     -23.512  -1.644  29.010  0.00  0.00    +0.141 C 
ATOM      9  C   UNL A   1     -23.957  -2.853  29.539  0.00  0.00    +0.011 C 
ATOM     10  C   UNL A   1     -22.320  -1.102  29.363  0.00  0.00    +0.037 C 
ATOM     11  C   UNL A   1     -22.213   0.215  28.725  0.00  0.00    +0.006 C 
ENDROOT
BRANCH   9  12
ATOM     12  C   UNL A   1     -25.219  -3.481  29.253  0.00  0.00    +0.029 C 
ATOM     13  C   UNL A   1     -25.183  -4.858  29.189  0.00  0.00    +0.005 C 
ENDBRANCH   9  12
TORSDOF 1
ENDMDL
ENDMDL
