REMARK  Name = No_427-gen_results/8p0m/2024-11-26-14-13-15/
REMARK  5 active torsions:
REMARK  status: ('A' for Active; 'I' for Inactive)
REMARK    1  A    between atoms: C_3  and  C_7
REMARK    2  A    between atoms: C_7  and  C_8
REMARK    3  A    between atoms: C_7  and  C_14
REMARK    4  A    between atoms: C_8  and  C_9
REMARK    5  A    between atoms: C_14  and  N_16
REMARK                            x       y       z     vdW  Elec       q    Type
REMARK                         _______ _______ _______ _____ _____    ______ ____
ROOT
ATOM      1  C   UNL A   1     -27.460   0.380  26.709  0.00  0.00    +0.072 C 
ENDROOT
BRANCH   1   4
ATOM      2  C   UNL A   1     -28.016  -0.814  28.878  0.00  0.00    -0.004 A 
ATOM      3  C   UNL A   1     -28.469  -0.785  29.829  0.00  0.00    -0.000 A 
ATOM      4  C   UNL A   1     -28.196   0.348  28.055  0.00  0.00    -0.018 A 
ATOM      5  C   UNL A   1     -29.019   1.350  28.378  0.00  0.00    -0.004 A 
ATOM      6  C   UNL A   1     -29.411   0.180  30.378  0.00  0.00    -0.000 A 
ATOM      7  C   UNL A   1     -29.606   1.250  29.619  0.00  0.00    -0.000 A 
ENDBRANCH   1   4
BRANCH   1   8
ATOM      8  C   UNL A   1     -28.135   0.515  25.529  0.00  0.00    +0.197 C 
ATOM      9  F   UNL A   1     -27.689  -0.197  24.596  0.00  0.00    -0.222 F 
ATOM     10  C   UNL A   1     -27.992   2.027  25.003  0.00  0.00    +0.054 C 
BRANCH   8  11
ATOM     11  N   UNL A   1     -29.567   0.318  25.618  0.00  0.00    -0.189 NA
ATOM     12  C   UNL A   1     -30.525   0.653  24.790  0.00  0.00    +0.110 C 
ENDBRANCH   8  11
ENDBRANCH   1   8
BRANCH   1  13
ATOM     13  C   UNL A   1     -26.009   0.332  26.724  0.00  0.00    +0.033 C 
BRANCH  13  14
ATOM     14  C   UNL A   1     -25.257   1.316  27.339  0.00  0.00    -0.018 C 
ATOM     15  C   UNL A   1     -23.876   1.120  27.550  0.00  0.00    +0.014 C 
ATOM     16  C   UNL A   1     -23.002   2.226  27.578  0.00  0.00    +0.093 C 
ATOM     17  N   UNL A   1     -23.602   3.398  27.534  0.00  0.00    -0.264 NA
ATOM     18  C   UNL A   1     -25.101   2.796  26.702  0.00  0.00    +0.148 C 
ENDBRANCH  13  14
ENDBRANCH   1  13
TORSDOF 5
