REMARK  Name = No_4270-gen_results/8p0m/2024-11-26-14-13-15/
REMARK  7 active torsions:
REMARK  status: ('A' for Active; 'I' for Inactive)
REMARK    1  A    between atoms: C_2  and  C_7
REMARK    2  A    between atoms: C_6  and  C_13
REMARK    3  A    between atoms: C_9  and  C_21
REMARK    4  A    between atoms: C_11  and  C_16
REMARK    5  A    between atoms: C_24  and  C_27
REMARK    6  A    between atoms: C_27  and  N_28
REMARK    7  A    between atoms: C_29  and  C_30
REMARK                            x       y       z     vdW  Elec       q    Type
REMARK                         _______ _______ _______ _____ _____    ______ ____
ROOT
ATOM      1  C   UNL A   1     -27.106   1.102  27.759  0.00  0.00    -0.000 A 
ATOM      2  C   UNL A   1     -27.858   1.531  27.216  0.00  0.00    -0.000 A 
ATOM      3  C   UNL A   1     -28.099   2.299  26.430  0.00  0.00    -0.000 A 
ATOM      4  C   UNL A   1     -26.954   3.184  26.025  0.00  0.00    +0.004 A 
ATOM      5  C   UNL A   1     -25.757   2.881  26.576  0.00  0.00    +0.071 A 
ATOM      6  C   UNL A   1     -25.734   1.792  27.454  0.00  0.00    +0.004 A 
ENDROOT
BRANCH   1   8
ATOM      7  C   UNL A   1     -28.016  -0.814  28.878  0.00  0.00    +0.004 A 
ATOM      8  C   UNL A   1     -27.064  -0.119  28.608  0.00  0.00    -0.000 A 
ATOM      9  C   UNL A   1     -25.792  -0.430  29.076  0.00  0.00    -0.000 A 
ATOM     10  C   UNL A   1     -25.576  -1.565  29.936  0.00  0.00    -0.000 A 
ATOM     11  C   UNL A   1     -26.735  -2.300  30.217  0.00  0.00    +0.004 A 
ATOM     12  C   UNL A   1     -27.918  -1.954  29.763  0.00  0.00    +0.071 A 
BRANCH  12  13
ATOM     13  C   UNL A   1     -29.089  -2.741  30.182  0.00  0.00    +0.419 C 
ATOM     14  F   UNL A   1     -29.429  -2.616  31.210  0.00  0.00    -0.166 F 
ATOM     15  F   UNL A   1     -29.779  -2.730  29.227  0.00  0.00    -0.166 F 
ATOM     16  F   UNL A   1     -28.502  -4.091  30.161  0.00  0.00    -0.166 F 
ENDBRANCH  12  13
ENDBRANCH   1   8
BRANCH   3  17
ATOM     17  C   UNL A   1     -29.327   2.772  25.651  0.00  0.00    -0.000 A 
ATOM     18  C   UNL A   1     -30.307   3.442  26.345  0.00  0.00    -0.000 A 
ATOM     19  C   UNL A   1     -31.554   3.822  25.718  0.00  0.00    -0.002 A 
ATOM     20  C   UNL A   1     -31.768   3.425  24.381  0.00  0.00    +0.002 A 
ATOM     21  C   UNL A   1     -30.776   2.717  23.703  0.00  0.00    -0.002 A 
ATOM     22  C   UNL A   1     -29.562   2.395  24.322  0.00  0.00    -0.000 A 
BRANCH  20  23
ATOM     23  C   UNL A   1     -32.939   3.666  23.514  0.00  0.00    +0.152 C 
BRANCH  23  24
ATOM     24  N   UNL A   1     -33.753   4.650  23.866  0.00  0.00    -0.264 NA
ATOM     25  C   UNL A   1     -34.195   4.906  24.885  0.00  0.00    +0.093 C 
BRANCH  25  26
ATOM     26  C   UNL A   1     -35.614   5.222  25.050  0.00  0.00    +0.020 C 
ATOM     27  C   UNL A   1     -36.342   5.484  23.980  0.00  0.00    +0.002 C 
ENDBRANCH  25  26
ENDBRANCH  23  24
ENDBRANCH  20  23
ENDBRANCH   3  17
BRANCH   5  28
ATOM     28  C   UNL A   1     -24.514   3.593  26.300  0.00  0.00    +0.419 C 
ATOM     29  F   UNL A   1     -23.493   3.022  26.297  0.00  0.00    -0.166 F 
ATOM     30  F   UNL A   1     -24.317   4.622  27.371  0.00  0.00    -0.166 F 
ATOM     31  F   UNL A   1     -24.633   4.431  25.209  0.00  0.00    -0.166 F 
ENDBRANCH   5  28
TORSDOF 7
