MODEL 4270
MODEL 1
REMARK VINA RESULT:    -8.365      0.000      0.000
REMARK INTER + INTRA:         -13.468
REMARK INTER:                 -11.788
REMARK INTRA:                  -1.680
REMARK UNBOUND:                -1.680
REMARK  Name = No_4270-gen_results/8p0m/2024-11-26-14-13-15/
REMARK  7 active torsions:
REMARK  status: ('A' for Active; 'I' for Inactive)
REMARK    1  A    between atoms: C_2  and  C_7
REMARK    2  A    between atoms: C_6  and  C_13
REMARK    3  A    between atoms: C_9  and  C_21
REMARK    4  A    between atoms: C_11  and  C_16
REMARK    5  A    between atoms: C_24  and  C_27
REMARK    6  A    between atoms: C_27  and  N_28
REMARK    7  A    between atoms: C_29  and  C_30
REMARK                            x       y       z     vdW  Elec       q    Type
REMARK                         _______ _______ _______ _____ _____    ______ ____
ROOT
ATOM      1  C   UNL A   1      -9.901  -0.604  36.850  0.00  0.00    -0.000 A 
ATOM      2  C   UNL A   1      -8.980  -0.750  36.431  0.00  0.00    -0.000 A 
ATOM      3  C   UNL A   1      -8.253  -0.372  35.660  0.00  0.00    -0.000 A 
ATOM      4  C   UNL A   1      -8.782   0.701  34.750  0.00  0.00    +0.004 A 
ATOM      5  C   UNL A   1     -10.025   1.149  35.035  0.00  0.00    +0.071 A 
ATOM      6  C   UNL A   1     -10.664   0.559  36.131  0.00  0.00    +0.004 A 
ENDROOT
BRANCH   1   8
ATOM      7  C   UNL A   1     -10.209  -0.890  39.211  0.00  0.00    +0.004 A 
ATOM      8  C   UNL A   1     -10.533  -1.158  38.078  0.00  0.00    -0.000 A 
ATOM      9  C   UNL A   1     -11.584  -2.032  37.819  0.00  0.00    -0.000 A 
ATOM     10  C   UNL A   1     -12.289  -2.681  38.894  0.00  0.00    -0.000 A 
ATOM     11  C   UNL A   1     -11.834  -2.332  40.172  0.00  0.00    +0.004 A 
ATOM     12  C   UNL A   1     -10.824  -1.513  40.362  0.00  0.00    +0.071 A 
BRANCH  12  13
ATOM     13  C   UNL A   1     -10.365  -1.274  41.740  0.00  0.00    +0.419 C 
ATOM     14  F   UNL A   1     -10.056  -0.259  41.991  0.00  0.00    -0.166 F 
ATOM     15  F   UNL A   1     -11.080  -1.950  42.386  0.00  0.00    -0.166 F 
ATOM     16  F   UNL A   1      -9.105  -2.036  41.718  0.00  0.00    -0.166 F 
ENDBRANCH  12  13
ENDBRANCH   1   8
BRANCH   3  17
ATOM     17  C   UNL A   1      -6.827  -0.682  35.204  0.00  0.00    -0.000 A 
ATOM     18  C   UNL A   1      -6.615  -1.856  34.519  0.00  0.00    -0.000 A 
ATOM     19  C   UNL A   1      -5.284  -2.288  34.152  0.00  0.00    -0.002 A 
ATOM     20  C   UNL A   1      -4.193  -1.501  34.578  0.00  0.00    +0.002 A 
ATOM     21  C   UNL A   1      -4.426  -0.331  35.300  0.00  0.00    -0.002 A 
ATOM     22  C   UNL A   1      -5.727   0.085  35.609  0.00  0.00    -0.000 A 
BRANCH  20  23
ATOM     23  C   UNL A   1      -2.749  -1.712  34.355  0.00  0.00    +0.152 C 
BRANCH  23  24
ATOM     24  N   UNL A   1      -2.384  -2.142  33.156  0.00  0.00    -0.264 NA
ATOM     25  C   UNL A   1      -1.342  -2.302  32.722  0.00  0.00    +0.093 C 
BRANCH  25  26
ATOM     26  C   UNL A   1      -0.984  -1.821  31.387  0.00  0.00    +0.020 C 
ATOM     27  C   UNL A   1      -0.302  -2.614  30.581  0.00  0.00    +0.002 C 
ENDBRANCH  25  26
ENDBRANCH  23  24
ENDBRANCH  20  23
ENDBRANCH   3  17
BRANCH   5  28
ATOM     28  C   UNL A   1     -10.716   2.201  34.297  0.00  0.00    +0.419 C 
ATOM     29  F   UNL A   1     -11.496   2.887  34.835  0.00  0.00    -0.166 F 
ATOM     30  F   UNL A   1     -11.529   1.557  33.216  0.00  0.00    -0.166 F 
ATOM     31  F   UNL A   1      -9.847   2.934  33.513  0.00  0.00    -0.166 F 
ENDBRANCH   5  28
TORSDOF 7
ENDMDL
ENDMDL
