REMARK  Name = No_4271-gen_results/8p0m/2024-11-26-14-13-15/
REMARK  8 active torsions:
REMARK  status: ('A' for Active; 'I' for Inactive)
REMARK    1  A    between atoms: C_1  and  C_2
REMARK    2  A    between atoms: C_1  and  N_8
REMARK    3  A    between atoms: C_3  and  C_20
REMARK    4  A    between atoms: C_5  and  C_9
REMARK    5  A    between atoms: C_12  and  C_13
REMARK    6  A    between atoms: C_13  and  C_14
REMARK    7  A    between atoms: C_14  and  C_15
REMARK    8  A    between atoms: C_15  and  C_16
REMARK                            x       y       z     vdW  Elec       q    Type
REMARK                         _______ _______ _______ _____ _____    ______ ____
ROOT
ATOM      1  C   UNL A   1     -27.064  -0.119  28.608  0.00  0.00    +0.002 A 
ATOM      2  C   UNL A   1     -26.972   0.714  27.506  0.00  0.00    -0.002 A 
ATOM      3  C   UNL A   1     -25.821   1.491  27.116  0.00  0.00    +0.006 A 
ATOM      4  C   UNL A   1     -24.656   1.424  27.918  0.00  0.00    +0.080 A 
ATOM      5  C   UNL A   1     -24.685   0.590  29.066  0.00  0.00    +0.006 A 
ATOM      6  C   UNL A   1     -25.810  -0.127  29.334  0.00  0.00    -0.002 A 
ENDROOT
BRANCH   2   7
ATOM      7  C   UNL A   1     -28.117   0.814  26.591  0.00  0.00    -0.000 A 
ATOM      8  C   UNL A   1     -28.011   0.432  25.319  0.00  0.00    -0.000 A 
ATOM      9  C   UNL A   1     -29.055   0.395  24.414  0.00  0.00    -0.004 A 
ATOM     10  C   UNL A   1     -30.334   0.644  24.859  0.00  0.00    -0.022 A 
ATOM     11  C   UNL A   1     -31.384   0.612  24.000  0.00  0.00    +0.031 C 
ATOM     12  C   UNL A   1     -29.431   1.061  27.102  0.00  0.00    -0.000 A 
ATOM     13  C   UNL A   1     -30.507   1.021  26.167  0.00  0.00    -0.004 A 
ENDBRANCH   2   7
BRANCH   4  14
ATOM     14  C   UNL A   1     -23.471   2.189  27.613  0.00  0.00    +0.388 C 
ATOM     15  O   UNL A   1     -23.274   2.700  26.502  0.00  0.00    -0.241 OA
ATOM     16  O   UNL A   1     -22.351   1.991  28.352  0.00  0.00    -0.241 OA
ENDBRANCH   4  14
BRANCH   1  17
ATOM     17  C   UNL A   1     -28.016  -0.814  28.878  0.00  0.00    +0.154 C 
BRANCH  17  18
ATOM     18  N   UNL A   1     -27.968  -1.690  30.006  0.00  0.00    -0.243 NA
ATOM     19  C   UNL A   1     -29.062  -2.357  30.477  0.00  0.00    +0.195 C 
ATOM     20  F   UNL A   1     -29.995  -1.543  30.792  0.00  0.00    -0.189 F 
BRANCH  19  21
ATOM     21  C   UNL A   1     -28.834  -3.560  31.360  0.00  0.00    +0.077 C 
BRANCH  21  22
ATOM     22  C   UNL A   1     -29.412  -4.679  30.847  0.00  0.00    +0.015 C 
BRANCH  22  23
ATOM     23  C   UNL A   1     -30.867  -4.725  30.954  0.00  0.00    +0.073 C 
BRANCH  23  24
ATOM     24  C   UNL A   1     -31.490  -3.574  30.250  0.00  0.00    +0.319 C 
ATOM     25  F   UNL A   1     -30.864  -2.767  29.818  0.00  0.00    -0.198 F 
ATOM     26  F   UNL A   1     -32.675  -3.733  29.775  0.00  0.00    -0.198 F 
ENDBRANCH  23  24
ENDBRANCH  22  23
ENDBRANCH  21  22
ENDBRANCH  19  21
ENDBRANCH  17  18
ENDBRANCH   1  17
TORSDOF 8
