REMARK  Name = No_4272-gen_results/8p0m/2024-11-26-14-13-15/
REMARK  2 active torsions:
REMARK  status: ('A' for Active; 'I' for Inactive)
REMARK    1  A    between atoms: C_4  and  C_7
REMARK    2  A    between atoms: C_7  and  C_8
REMARK                            x       y       z     vdW  Elec       q    Type
REMARK                         _______ _______ _______ _____ _____    ______ ____
ROOT
ATOM      1  C   UNL A   1     -24.378  -0.859  29.937  0.00  0.00    +0.053 C 
ENDROOT
BRANCH   1   5
ATOM      2  C   UNL A   1     -28.016  -0.814  28.878  0.00  0.00    -0.000 A 
ATOM      3  C   UNL A   1     -28.469  -0.785  29.829  0.00  0.00    -0.000 A 
ATOM      4  C   UNL A   1     -26.546  -0.876  28.850  0.00  0.00    -0.004 A 
ATOM      5  C   UNL A   1     -25.897  -0.827  29.889  0.00  0.00    -0.018 A 
ATOM      6  C   UNL A   1     -26.494  -0.798  31.174  0.00  0.00    -0.004 A 
ATOM      7  C   UNL A   1     -27.859  -0.758  31.165  0.00  0.00    -0.000 A 
ENDBRANCH   1   5
BRANCH   1   8
ATOM      8  C   UNL A   1     -23.687  -0.162  28.978  0.00  0.00    -0.018 A 
ATOM      9  C   UNL A   1     -22.237  -0.151  29.068  0.00  0.00    -0.004 A 
ATOM     10  C   UNL A   1     -21.511   0.608  28.151  0.00  0.00    -0.000 A 
ATOM     11  C   UNL A   1     -22.169   1.531  27.289  0.00  0.00    -0.000 A 
ATOM     12  C   UNL A   1     -23.534   1.641  27.335  0.00  0.00    -0.000 A 
ATOM     13  C   UNL A   1     -24.295   0.871  28.216  0.00  0.00    -0.004 A 
ENDBRANCH   1   8
TORSDOF 2
