MODEL 4272
MODEL 1
REMARK VINA RESULT:    -6.848      0.000      0.000
REMARK INTER + INTRA:          -7.809
REMARK INTER:                  -7.649
REMARK INTRA:                  -0.160
REMARK UNBOUND:                -0.160
REMARK  Name = No_4272-gen_results/8p0m/2024-11-26-14-13-15/
REMARK  2 active torsions:
REMARK  status: ('A' for Active; 'I' for Inactive)
REMARK    1  A    between atoms: C_4  and  C_7
REMARK    2  A    between atoms: C_7  and  C_8
REMARK                            x       y       z     vdW  Elec       q    Type
REMARK                         _______ _______ _______ _____ _____    ______ ____
ROOT
ATOM      1  C   UNL A   1     -25.002  -1.253  29.018  0.00  0.00    +0.053 C 
ENDROOT
BRANCH   1   5
ATOM      2  C   UNL A   1     -24.145  -4.918  28.585  0.00  0.00    -0.000 A 
ATOM      3  C   UNL A   1     -24.987  -5.346  29.054  0.00  0.00    -0.000 A 
ATOM      4  C   UNL A   1     -24.075  -3.448  28.570  0.00  0.00    -0.004 A 
ATOM      5  C   UNL A   1     -24.992  -2.773  29.024  0.00  0.00    -0.018 A 
ATOM      6  C   UNL A   1     -26.124  -3.335  29.665  0.00  0.00    -0.004 A 
ATOM      7  C   UNL A   1     -26.150  -4.700  29.677  0.00  0.00    -0.000 A 
ENDBRANCH   1   5
BRANCH   1   8
ATOM      8  C   UNL A   1     -23.889  -0.601  28.552  0.00  0.00    -0.018 A 
ATOM      9  C   UNL A   1     -22.664  -0.726  29.323  0.00  0.00    -0.004 A 
ATOM     10  C   UNL A   1     -21.535  -0.017  28.913  0.00  0.00    -0.000 A 
ATOM     11  C   UNL A   1     -21.631   0.982  27.903  0.00  0.00    -0.000 A 
ATOM     12  C   UNL A   1     -22.839   1.217  27.300  0.00  0.00    -0.000 A 
ATOM     13  C   UNL A   1     -23.981   0.501  27.660  0.00  0.00    -0.004 A 
ENDBRANCH   1   8
TORSDOF 2
ENDMDL
ENDMDL
