MODEL 4273
MODEL 1
REMARK VINA RESULT:    -7.794      0.000      0.000
REMARK INTER + INTRA:          -9.458
REMARK INTER:                  -8.705
REMARK INTRA:                  -0.753
REMARK UNBOUND:                -0.753
REMARK  Name = No_4273-gen_results/8p0m/2024-11-26-14-13-15/
REMARK  2 active torsions:
REMARK  status: ('A' for Active; 'I' for Inactive)
REMARK    1  A    between atoms: C_4  and  C_11
REMARK    2  A    between atoms: C_7  and  C_18
REMARK                            x       y       z     vdW  Elec       q    Type
REMARK                         _______ _______ _______ _____ _____    ______ ____
ROOT
ATOM      1  C   UNL A   1     -24.620   0.384  26.521  0.00  0.00    +0.007 A 
ATOM      2  C   UNL A   1     -24.647  -0.496  27.350  0.00  0.00    +0.000 A 
ATOM      3  C   UNL A   1     -24.258  -0.318  28.677  0.00  0.00    +0.000 A 
ATOM      4  C   UNL A   1     -24.248  -1.334  29.747  0.00  0.00    +0.002 A 
ATOM      5  C   UNL A   1     -23.800  -1.126  31.100  0.00  0.00    +0.000 A 
ATOM      6  C   UNL A   1     -23.550   0.209  31.435  0.00  0.00    +0.000 A 
ATOM      7  C   UNL A   1     -23.982   1.686  26.918  0.00  0.00    +0.080 A 
ATOM      8  C   UNL A   1     -23.654   1.979  28.222  0.00  0.00    +0.007 A 
ATOM      9  C   UNL A   1     -23.730   0.979  29.174  0.00  0.00    +0.000 A 
ATOM     10  C   UNL A   1     -23.418   1.224  30.511  0.00  0.00    +0.000 A 
ENDROOT
BRANCH   4  11
ATOM     11  C   UNL A   1     -24.691  -2.736  29.454  0.00  0.00    +0.028 A 
ATOM     12  C   UNL A   1     -25.871  -3.079  29.824  0.00  0.00    +0.140 A 
ATOM     13  C   UNL A   1     -26.288  -4.419  29.744  0.00  0.00    +0.030 A 
ATOM     14  C   UNL A   1     -23.805  -3.578  28.834  0.00  0.00    +0.002 A 
ATOM     15  C   UNL A   1     -24.160  -4.914  28.605  0.00  0.00    +0.000 A 
ATOM     16  C   UNL A   1     -25.459  -5.319  28.984  0.00  0.00    +0.002 A 
ATOM     17  F   UNL A   1     -26.758  -2.310  30.436  0.00  0.00    -0.204 F 
ENDBRANCH   4  11
BRANCH   7  18
ATOM     18  C   UNL A   1     -23.898   2.753  25.851  0.00  0.00    +0.388 C 
ATOM     19  O   UNL A   1     -24.540   3.658  25.736  0.00  0.00    -0.241 OA
ATOM     20  O   UNL A   1     -22.768   2.602  25.066  0.00  0.00    -0.241 OA
ENDBRANCH   7  18
TORSDOF 2
ENDMDL
ENDMDL
