MODEL 4274
MODEL 1
REMARK VINA RESULT:    -4.342      0.000      0.000
REMARK INTER + INTRA:          -4.342
REMARK INTER:                  -4.342
REMARK INTRA:                   0.000
REMARK UNBOUND:                 0.000
REMARK  Name = No_4274-gen_results/8p0m/2024-11-26-14-13-15/
REMARK  0 active torsions:
REMARK  status: ('A' for Active; 'I' for Inactive)
REMARK                            x       y       z     vdW  Elec       q    Type
REMARK                         _______ _______ _______ _____ _____    ______ ____
ROOT
ATOM      1  C   UNL A   1     -24.955  -5.365  29.027  0.00  0.00    +0.000 A 
ATOM      2  C   UNL A   1     -24.213  -4.694  28.695  0.00  0.00    +0.000 A 
ATOM      3  C   UNL A   1     -26.128  -4.701  29.608  0.00  0.00    +0.000 A 
ATOM      4  C   UNL A   1     -26.159  -3.391  29.855  0.00  0.00    +0.000 A 
ATOM      5  C   UNL A   1     -24.019  -3.275  28.865  0.00  0.00    +0.000 A 
ATOM      6  C   UNL A   1     -25.109  -2.679  29.429  0.00  0.00    +0.000 A 
ENDROOT
TORSDOF 0
ENDMDL
ENDMDL
