REMARK  Name = No_4275-gen_results/8p0m/2024-11-26-14-13-15/
REMARK  6 active torsions:
REMARK  status: ('A' for Active; 'I' for Inactive)
REMARK    1  A    between atoms: C_1  and  O_30
REMARK    2  A    between atoms: C_2  and  O_14
REMARK    3  A    between atoms: C_3  and  C_7
REMARK    4  A    between atoms: O_14  and  C_15
REMARK    5  A    between atoms: C_15  and  C_16
REMARK    6  A    between atoms: C_28  and  O_29
REMARK                            x       y       z     vdW  Elec       q    Type
REMARK                         _______ _______ _______ _____ _____    ______ ____
ROOT
ATOM      1  C   UNL A   1     -28.384   1.403  27.387  0.00  0.00    +0.236 C 
ATOM      2  C   UNL A   1     -28.246   2.062  25.982  0.00  0.00    +0.053 C 
ATOM      3  C   UNL A   1     -28.413   1.573  25.083  0.00  0.00    +0.004 C 
ATOM      4  C   UNL A   1     -28.388   0.167  24.808  0.00  0.00    +0.004 C 
ATOM      5  C   UNL A   1     -28.094  -0.652  25.795  0.00  0.00    +0.047 C 
ATOM      6  C   UNL A   1     -28.642  -0.146  27.097  0.00  0.00    +0.199 C 
ATOM      7 CL   UNL A   1     -28.766  -1.139  27.589  0.00  0.00    -0.082 Cl
ENDROOT
BRANCH   1   8
ATOM      8  C   UNL A   1     -29.009   2.177  28.189  0.00  0.00    +0.266 C 
ATOM      9  O   UNL A   1     -28.374   2.826  29.029  0.00  0.00    -0.271 OA
ATOM     10  N   UNL A   1     -30.346   2.197  28.258  0.00  0.00    -0.277 N 
ATOM     11  C   UNL A   1     -31.123   3.050  29.232  0.00  0.00    +0.093 C 
ATOM     12  C   UNL A   1     -31.185   1.437  27.381  0.00  0.00    +0.093 C 
ATOM     13  C   UNL A   1     -32.515   1.388  27.746  0.00  0.00    +0.022 C 
ATOM     14  C   UNL A   1     -33.028   2.161  28.532  0.00  0.00    +0.004 C 
ATOM     15  C   UNL A   1     -32.389   2.952  29.411  0.00  0.00    +0.022 C 
ENDBRANCH   1   8
BRANCH   6  16
ATOM     16  O   UNL A   1     -29.707  -0.550  27.494  0.00  0.00    -0.338 OA
ATOM     17  C   UNL A   1     -30.722  -1.115  27.286  0.00  0.00    +0.176 C 
ENDBRANCH   6  16
BRANCH   1  18
ATOM     18  O   UNL A   1     -27.150   0.908  27.709  0.00  0.00    -0.467 OA
BRANCH  18  20
ATOM     19  C   UNL A   1     -28.016  -0.814  28.878  0.00  0.00    +0.183 A 
ATOM     20  C   UNL A   1     -27.064  -0.119  28.608  0.00  0.00    +0.173 A 
ATOM     21  C   UNL A   1     -25.765  -0.390  29.036  0.00  0.00    +0.037 A 
ATOM     22  C   UNL A   1     -25.530  -1.530  29.901  0.00  0.00    +0.004 A 
ATOM     23  C   UNL A   1     -26.658  -2.292  30.203  0.00  0.00    +0.015 A 
ATOM     24  C   UNL A   1     -27.855  -1.956  29.763  0.00  0.00    +0.095 A 
ATOM     25 CL   UNL A   1     -29.217  -2.893  30.251  0.00  0.00    -0.079 Cl
BRANCH  21  26
ATOM     26  C   UNL A   1     -24.439   0.180  28.728  0.00  0.00    +0.003 A 
ATOM     27  C   UNL A   1     -24.345   1.184  27.768  0.00  0.00    +0.000 A 
ATOM     28  C   UNL A   1     -23.109   1.762  27.432  0.00  0.00    +0.000 A 
ATOM     29  C   UNL A   1     -21.908   1.376  28.066  0.00  0.00    +0.000 A 
ATOM     30  C   UNL A   1     -23.182  -0.223  29.314  0.00  0.00    +0.000 A 
ATOM     31  C   UNL A   1     -21.959   0.402  28.971  0.00  0.00    +0.000 A 
ENDBRANCH  21  26
BRANCH  19  32
ATOM     32  O   UNL A   1     -29.148  -0.486  29.007  0.00  0.00    -0.468 OA
ATOM     33  C   UNL A   1     -30.104  -0.058  29.897  0.00  0.00    +0.253 C 
ENDBRANCH  19  32
ENDBRANCH  18  20
ENDBRANCH   1  18
TORSDOF 6
