REMARK  Name = No_4276-gen_results/8p0m/2024-11-26-14-13-15/
REMARK  6 active torsions:
REMARK  status: ('A' for Active; 'I' for Inactive)
REMARK    1  A    between atoms: C_2  and  C_14
REMARK    2  A    between atoms: C_4  and  C_5
REMARK    3  A    between atoms: C_5  and  C_8
REMARK    4  A    between atoms: C_6  and  C_9
REMARK    5  A    between atoms: C_14  and  N_15
REMARK    6  A    between atoms: N_15  and  C_16
REMARK                            x       y       z     vdW  Elec       q    Type
REMARK                         _______ _______ _______ _____ _____    ______ ____
ROOT
ATOM      1  C   UNL A   1     -28.016  -0.814  28.878  0.00  0.00    -0.002 A 
ATOM      2  C   UNL A   1     -27.064  -0.119  28.608  0.00  0.00    +0.024 A 
ATOM      3  C   UNL A   1     -25.765  -0.390  29.036  0.00  0.00    -0.004 A 
ATOM      4  C   UNL A   1     -25.530  -1.530  29.901  0.00  0.00    -0.014 A 
ATOM      5  C   UNL A   1     -27.908  -1.922  29.828  0.00  0.00    +0.010 A 
ATOM      6  C   UNL A   1     -26.651  -2.290  30.307  0.00  0.00    -0.006 A 
ENDROOT
BRANCH   5   7
ATOM      7  C   UNL A   1     -29.123  -2.533  30.328  0.00  0.00    +0.209 C 
ATOM      8  O   UNL A   1     -29.412  -2.427  31.596  0.00  0.00    -0.215 OA
ENDBRANCH   5   7
BRANCH   4   9
ATOM      9  C   UNL A   1     -24.291  -1.875  30.380  0.00  0.00    +0.130 C 
BRANCH   9  10
ATOM     10  C   UNL A   1     -23.603  -0.849  31.156  0.00  0.00    +0.402 C 
ATOM     11  F   UNL A   1     -23.834  -0.819  32.347  0.00  0.00    -0.170 F 
ATOM     12  F   UNL A   1     -22.191  -0.951  31.085  0.00  0.00    -0.170 F 
ATOM     13  F   UNL A   1     -23.812   0.386  30.616  0.00  0.00    -0.170 F 
ENDBRANCH   9  10
ENDBRANCH   4   9
BRANCH   2  14
ATOM     14  C   UNL A   1     -27.324   1.059  27.823  0.00  0.00    +0.230 C 
BRANCH  14  15
ATOM     15  N   UNL A   1     -26.523   2.128  27.945  0.00  0.00    -0.177 N 
ATOM     16  C   UNL A   1     -25.562   2.271  26.809  0.00  0.00    +0.254 C 
BRANCH  15  17
ATOM     17  C   UNL A   1     -26.428   2.870  28.756  0.00  0.00    +0.367 C 
ATOM     18  C   UNL A   1     -26.180   3.993  28.987  0.00  0.00    +0.083 C 
ATOM     19  N   UNL A   1     -25.987   4.654  30.178  0.00  0.00    -0.170 NA
ATOM     20  N   UNL A   1     -26.503   2.446  30.242  0.00  0.00    +0.002 NA
ATOM     21  C   UNL A   1     -26.241   3.547  30.983  0.00  0.00    +0.388 C 
ENDBRANCH  15  17
ENDBRANCH  14  15
ENDBRANCH   2  14
TORSDOF 6
