MODEL 4276
MODEL 1
REMARK VINA RESULT:    -6.136      0.000      0.000
REMARK INTER + INTRA:          -9.180
REMARK INTER:                  -8.289
REMARK INTRA:                  -0.892
REMARK UNBOUND:                -0.892
REMARK  Name = No_4276-gen_results/8p0m/2024-11-26-14-13-15/
REMARK  6 active torsions:
REMARK  status: ('A' for Active; 'I' for Inactive)
REMARK    1  A    between atoms: C_2  and  C_14
REMARK    2  A    between atoms: C_4  and  C_5
REMARK    3  A    between atoms: C_5  and  C_8
REMARK    4  A    between atoms: C_6  and  C_9
REMARK    5  A    between atoms: C_14  and  N_15
REMARK    6  A    between atoms: N_15  and  C_16
REMARK                            x       y       z     vdW  Elec       q    Type
REMARK                         _______ _______ _______ _____ _____    ______ ____
ROOT
ATOM      1  C   UNL A   1     -23.907   0.402  28.016  0.00  0.00    -0.002 A 
ATOM      2  C   UNL A   1     -24.905  -0.276  28.084  0.00  0.00    +0.024 A 
ATOM      3  C   UNL A   1     -25.710  -0.576  26.985  0.00  0.00    -0.004 A 
ATOM      4  C   UNL A   1     -25.382  -0.006  25.693  0.00  0.00    -0.014 A 
ATOM      5  C   UNL A   1     -23.547   1.111  26.787  0.00  0.00    +0.010 A 
ATOM      6  C   UNL A   1     -24.276   0.872  25.623  0.00  0.00    -0.006 A 
ENDROOT
BRANCH   5   7
ATOM      7  C   UNL A   1     -22.512   2.124  26.844  0.00  0.00    +0.209 C 
ATOM      8  O   UNL A   1     -21.383   1.847  27.437  0.00  0.00    -0.215 OA
ENDBRANCH   5   7
BRANCH   4   9
ATOM      9  C   UNL A   1     -26.115  -0.235  24.555  0.00  0.00    +0.130 C 
BRANCH   9  10
ATOM     10  C   UNL A   1     -27.396   0.459  24.476  0.00  0.00    +0.402 C 
ATOM     11  F   UNL A   1     -28.378  -0.169  24.812  0.00  0.00    -0.170 F 
ATOM     12  F   UNL A   1     -27.447   1.627  25.278  0.00  0.00    -0.170 F 
ATOM     13  F   UNL A   1     -27.586   0.979  23.229  0.00  0.00    -0.170 F 
ENDBRANCH   9  10
ENDBRANCH   4   9
BRANCH   2  14
ATOM     14  C   UNL A   1     -25.271  -0.763  29.388  0.00  0.00    +0.230 C 
BRANCH  14  15
ATOM     15  N   UNL A   1     -24.611  -1.804  29.916  0.00  0.00    -0.177 N 
ATOM     16  C   UNL A   1     -23.832  -1.443  31.140  0.00  0.00    +0.254 C 
BRANCH  15  17
ATOM     17  C   UNL A   1     -24.512  -2.847  29.570  0.00  0.00    +0.367 C 
ATOM     18  C   UNL A   1     -23.825  -3.585  28.970  0.00  0.00    +0.083 C 
ATOM     19  N   UNL A   1     -24.030  -4.878  28.548  0.00  0.00    -0.170 NA
ATOM     20  N   UNL A   1     -25.669  -3.861  29.742  0.00  0.00    +0.002 NA
ATOM     21  C   UNL A   1     -25.291  -5.003  29.124  0.00  0.00    +0.388 C 
ENDBRANCH  15  17
ENDBRANCH  14  15
ENDBRANCH   2  14
TORSDOF 6
ENDMDL
ENDMDL
