MODEL 4277
MODEL 1
REMARK VINA RESULT:    -6.538      0.000      0.000
REMARK INTER + INTRA:          -7.667
REMARK INTER:                  -7.302
REMARK INTRA:                  -0.365
REMARK UNBOUND:                -0.365
REMARK  Name = No_4277-gen_results/8p0m/2024-11-26-14-13-15/
REMARK  2 active torsions:
REMARK  status: ('A' for Active; 'I' for Inactive)
REMARK    1  A    between atoms: C_2  and  C_9
REMARK    2  A    between atoms: C_13  and  C_17
REMARK                            x       y       z     vdW  Elec       q    Type
REMARK                         _______ _______ _______ _____ _____    ______ ____
ROOT
ATOM      1  C   UNL A   1      -7.547   0.999  10.243  0.00  0.00    -0.032 C 
ATOM      2  C   UNL A   1      -6.741   0.466  10.662  0.00  0.00    +0.106 C 
ATOM      3  C   UNL A   1      -7.763   2.324  10.750  0.00  0.00    +0.023 C 
ATOM      4  C   UNL A   1      -8.725   3.238  10.100  0.00  0.00    +0.007 C 
ATOM      5  C   UNL A   1      -8.963   3.110   8.719  0.00  0.00    +0.018 C 
ATOM      6  C   UNL A   1      -8.429   2.000   8.034  0.00  0.00    +0.006 C 
ATOM      7  C   UNL A   1      -7.682   1.086   8.680  0.00  0.00    +0.023 C 
ATOM      8 BR   UNL A   1      -6.263   0.426  12.305  0.00  0.00    -0.043 Br
ATOM      9  C   UNL A   1      -9.275   4.430  10.706  0.00  0.00    +0.020 C 
ATOM     10  C   UNL A   1      -9.576   4.312  11.999  0.00  0.00    +0.023 C 
ATOM     11  C   UNL A   1     -10.361   4.968   9.883  0.00  0.00    +0.089 C 
ATOM     12  C   UNL A   1      -8.108   5.566  10.494  0.00  0.00    +0.002 C 
ATOM     13  C   UNL A   1      -8.796   4.622  13.028  0.00  0.00    +0.004 C 
ATOM     14  C   UNL A   1      -7.846   5.716  13.003  0.00  0.00    +0.000 C 
ATOM     15  C   UNL A   1      -7.259   5.947  11.618  0.00  0.00    +0.000 C 
ATOM     16  C   UNL A   1      -9.835   3.960   8.047  0.00  0.00    +0.089 C 
ATOM     17  N   UNL A   1     -10.460   4.859   8.583  0.00  0.00    -0.218 NA
ENDROOT
BRANCH   2  18
ATOM     18  C   UNL A   1      -6.330  -0.990   9.994  0.00  0.00    +0.393 C 
ATOM     19  O   UNL A   1      -5.453  -1.177   9.531  0.00  0.00    -0.240 OA
ATOM     20  O   UNL A   1      -7.311  -1.867  10.233  0.00  0.00    -0.240 OA
ENDBRANCH   2  18
BRANCH  10  21
ATOM     21  C   UNL A   1     -10.750   3.626  12.397  0.00  0.00    -0.026 C 
ATOM     22  C   UNL A   1     -10.873   2.711  13.024  0.00  0.00    -0.005 C 
ENDBRANCH  10  21
TORSDOF 2
ENDMDL
ENDMDL
