REMARK  Name = No_4277-gen_results/8p0m/2024-11-26-14-13-15/
REMARK  2 active torsions:
REMARK  status: ('A' for Active; 'I' for Inactive)
REMARK    1  A    between atoms: C_2  and  C_9
REMARK    2  A    between atoms: C_13  and  C_17
REMARK                            x       y       z     vdW  Elec       q    Type
REMARK                         _______ _______ _______ _____ _____    ______ ____
ROOT
ATOM      1  C   UNL A   1     -28.016  -0.814  28.878  0.00  0.00    -0.032 C 
ATOM      2  C   UNL A   1     -28.469  -0.785  29.829  0.00  0.00    +0.106 C 
ATOM      3  C   UNL A   1     -28.196   0.348  28.055  0.00  0.00    +0.023 C 
ATOM      4  C   UNL A   1     -27.442   0.510  26.795  0.00  0.00    +0.007 C 
ATOM      5  C   UNL A   1     -26.169  -0.079  26.679  0.00  0.00    +0.018 C 
ATOM      6  C   UNL A   1     -25.731  -0.961  27.688  0.00  0.00    +0.006 C 
ATOM      7  C   UNL A   1     -26.504  -1.222  28.758  0.00  0.00    +0.023 C 
ATOM      8 BR   UNL A   1     -30.011  -0.159  30.228  0.00  0.00    -0.043 Br
ATOM      9  C   UNL A   1     -27.786   1.433  25.736  0.00  0.00    +0.020 C 
ATOM     10  C   UNL A   1     -29.091   1.543  25.492  0.00  0.00    +0.023 C 
ATOM     11  C   UNL A   1     -26.972   1.173  24.546  0.00  0.00    +0.089 C 
ATOM     12  C   UNL A   1     -27.177   2.872  26.242  0.00  0.00    +0.002 C 
ATOM     13  C   UNL A   1     -29.924   2.439  26.010  0.00  0.00    +0.004 C 
ATOM     14  C   UNL A   1     -29.528   3.794  26.339  0.00  0.00    +0.000 C 
ATOM     15  C   UNL A   1     -28.076   3.885  26.786  0.00  0.00    +0.000 C 
ATOM     16  C   UNL A   1     -25.401   0.064  25.529  0.00  0.00    +0.089 C 
ATOM     17  N   UNL A   1     -25.758   0.686  24.543  0.00  0.00    -0.218 NA
ENDROOT
BRANCH   2  18
ATOM     18  C   UNL A   1     -28.146  -2.012  30.889  0.00  0.00    +0.393 C 
ATOM     19  O   UNL A   1     -28.542  -2.938  30.826  0.00  0.00    -0.240 OA
ATOM     20  O   UNL A   1     -27.238  -1.589  31.776  0.00  0.00    -0.240 OA
ENDBRANCH   2  18
BRANCH  10  21
ATOM     21  C   UNL A   1     -29.768   0.533  24.765  0.00  0.00    -0.026 C 
ATOM     22  C   UNL A   1     -29.693   0.245  23.690  0.00  0.00    -0.005 C 
ENDBRANCH  10  21
TORSDOF 2
