MODEL 4278
MODEL 1
REMARK VINA RESULT:    -4.852      0.000      0.000
REMARK INTER + INTRA:          -5.901
REMARK INTER:                  -5.703
REMARK INTRA:                  -0.198
REMARK UNBOUND:                -0.198
REMARK  Name = No_4278-gen_results/8p0m/2024-11-26-14-13-15/
REMARK  3 active torsions:
REMARK  status: ('A' for Active; 'I' for Inactive)
REMARK    1  A    between atoms: C_2  and  C_7
REMARK    2  A    between atoms: C_7  and  N_8
REMARK    3  A    between atoms: N_8  and  C_9
REMARK                            x       y       z     vdW  Elec       q    Type
REMARK                         _______ _______ _______ _____ _____    ______ ____
ROOT
ATOM      1  C   UNL A   1     -23.887  -3.247  28.734  0.00  0.00    -0.003 A 
ATOM      2  C   UNL A   1     -24.658  -2.753  29.254  0.00  0.00    -0.001 A 
ATOM      3  C   UNL A   1     -24.042  -4.747  28.612  0.00  0.00    -0.000 A 
ATOM      4  C   UNL A   1     -25.235  -5.356  29.054  0.00  0.00    -0.000 A 
ATOM      5  C   UNL A   1     -25.992  -3.135  29.771  0.00  0.00    -0.003 A 
ATOM      6  C   UNL A   1     -26.174  -4.507  29.670  0.00  0.00    -0.000 A 
ENDROOT
BRANCH   2   7
ATOM      7  C   UNL A   1     -24.526  -1.158  29.387  0.00  0.00    +0.139 C 
BRANCH   7   8
ATOM      8  N   UNL A   1     -23.815  -0.609  28.517  0.00  0.00    -0.232 NA
BRANCH   8   9
ATOM      9  C   UNL A   1     -22.842   0.249  28.763  0.00  0.00    +0.081 C 
ATOM     10  C   UNL A   1     -21.478  -0.168  28.857  0.00  0.00    +0.019 C 
ENDBRANCH   8   9
ENDBRANCH   7   8
ENDBRANCH   2   7
TORSDOF 3
ENDMDL
ENDMDL
