MODEL 4279
MODEL 1
REMARK VINA RESULT:    -6.724      0.000      0.000
REMARK INTER + INTRA:          -8.483
REMARK INTER:                  -7.904
REMARK INTRA:                  -0.579
REMARK UNBOUND:                -0.579
REMARK  Name = No_4279-gen_results/8p0m/2024-11-26-14-13-15/
REMARK  3 active torsions:
REMARK  status: ('A' for Active; 'I' for Inactive)
REMARK    1  A    between atoms: C_3  and  C_7
REMARK    2  A    between atoms: C_7  and  C_8
REMARK    3  A    between atoms: C_9  and  C_10
REMARK                            x       y       z     vdW  Elec       q    Type
REMARK                         _______ _______ _______ _____ _____    ______ ____
ROOT
ATOM      1  C   UNL A   1     -23.431  -0.543  28.536  0.00  0.00    -0.021 C 
ATOM      2  C   UNL A   1     -24.418  -1.140  29.281  0.00  0.00    -0.004 C 
ENDROOT
BRANCH   2   3
ATOM      3  C   UNL A   1     -24.892  -2.441  29.015  0.00  0.00    -0.000 A 
ATOM      4  C   UNL A   1     -25.988  -3.019  29.778  0.00  0.00    -0.000 A 
ATOM      5  C   UNL A   1     -26.244  -4.395  29.701  0.00  0.00    -0.000 A 
ATOM      6  C   UNL A   1     -25.314  -5.244  29.068  0.00  0.00    -0.000 A 
ATOM      7  C   UNL A   1     -24.083  -4.701  28.616  0.00  0.00    -0.000 A 
ATOM      8  C   UNL A   1     -23.881  -3.346  28.665  0.00  0.00    -0.000 A 
ENDBRANCH   2   3
BRANCH   1   9
ATOM      9  C   UNL A   1     -22.918   0.675  28.684  0.00  0.00    +0.052 C 
BRANCH   9  12
ATOM     10  C   UNL A   1     -24.540   2.462  27.888  0.00  0.00    -0.004 A 
ATOM     11  C   UNL A   1     -24.793   3.190  27.171  0.00  0.00    -0.000 A 
ATOM     12  C   UNL A   1     -23.374   1.673  27.606  0.00  0.00    -0.018 A 
ATOM     13  C   UNL A   1     -22.727   1.721  26.438  0.00  0.00    -0.004 A 
ATOM     14  C   UNL A   1     -23.172   2.645  25.534  0.00  0.00    -0.000 A 
ATOM     15  C   UNL A   1     -24.244   3.437  25.855  0.00  0.00    -0.000 A 
ENDBRANCH   9  12
ENDBRANCH   1   9
TORSDOF 3
ENDMDL
ENDMDL
