REMARK  Name = No_4279-gen_results/8p0m/2024-11-26-14-13-15/
REMARK  3 active torsions:
REMARK  status: ('A' for Active; 'I' for Inactive)
REMARK    1  A    between atoms: C_3  and  C_7
REMARK    2  A    between atoms: C_7  and  C_8
REMARK    3  A    between atoms: C_9  and  C_10
REMARK                            x       y       z     vdW  Elec       q    Type
REMARK                         _______ _______ _______ _____ _____    ______ ____
ROOT
ATOM      1  C   UNL A   1     -26.135   0.356  26.818  0.00  0.00    -0.021 C 
ATOM      2  C   UNL A   1     -25.387   0.026  27.921  0.00  0.00    -0.004 C 
ENDROOT
BRANCH   2   3
ATOM      3  C   UNL A   1     -23.977   0.024  27.913  0.00  0.00    -0.000 A 
ATOM      4  C   UNL A   1     -23.212  -0.370  29.087  0.00  0.00    -0.000 A 
ATOM      5  C   UNL A   1     -21.841  -0.087  29.156  0.00  0.00    -0.000 A 
ATOM      6  C   UNL A   1     -21.255   0.766  28.199  0.00  0.00    -0.000 A 
ATOM      7  C   UNL A   1     -22.089   1.408  27.247  0.00  0.00    -0.000 A 
ATOM      8  C   UNL A   1     -23.418   1.077  27.177  0.00  0.00    -0.000 A 
ENDBRANCH   2   3
BRANCH   1   9
ATOM      9  C   UNL A   1     -27.459   0.379  26.705  0.00  0.00    +0.052 C 
BRANCH   9  12
ATOM     10  C   UNL A   1     -28.016  -0.814  28.878  0.00  0.00    -0.004 A 
ATOM     11  C   UNL A   1     -28.469  -0.785  29.829  0.00  0.00    -0.000 A 
ATOM     12  C   UNL A   1     -28.196   0.348  28.055  0.00  0.00    -0.018 A 
ATOM     13  C   UNL A   1     -29.019   1.350  28.378  0.00  0.00    -0.004 A 
ATOM     14  C   UNL A   1     -29.625   1.268  29.601  0.00  0.00    -0.000 A 
ATOM     15  C   UNL A   1     -29.382   0.182  30.400  0.00  0.00    -0.000 A 
ENDBRANCH   9  12
ENDBRANCH   1   9
TORSDOF 3
