MODEL 427
MODEL 1
REMARK VINA RESULT:    -6.584      0.000      0.000
REMARK INTER + INTRA:          -9.634
REMARK INTER:                  -8.508
REMARK INTRA:                  -1.126
REMARK UNBOUND:                -1.126
REMARK  Name = No_427-gen_results/8p0m/2024-11-26-14-13-15/
REMARK  5 active torsions:
REMARK  status: ('A' for Active; 'I' for Inactive)
REMARK    1  A    between atoms: C_3  and  C_7
REMARK    2  A    between atoms: C_7  and  C_8
REMARK    3  A    between atoms: C_7  and  C_14
REMARK    4  A    between atoms: C_8  and  C_9
REMARK    5  A    between atoms: C_14  and  N_16
REMARK                            x       y       z     vdW  Elec       q    Type
REMARK                         _______ _______ _______ _____ _____    ______ ____
ROOT
ATOM      1  C   UNL A   1     -24.509  -1.253  29.692  0.00  0.00    +0.072 C 
ENDROOT
BRANCH   1   4
ATOM      2  C   UNL A   1     -23.867  -3.529  28.774  0.00  0.00    -0.004 A 
ATOM      3  C   UNL A   1     -24.070  -4.561  28.706  0.00  0.00    -0.000 A 
ATOM      4  C   UNL A   1     -24.831  -2.739  29.485  0.00  0.00    -0.018 A 
ATOM      5  C   UNL A   1     -26.005  -3.222  29.902  0.00  0.00    -0.004 A 
ATOM      6  C   UNL A   1     -25.276  -5.293  29.065  0.00  0.00    -0.000 A 
ATOM      7  C   UNL A   1     -26.187  -4.571  29.704  0.00  0.00    -0.000 A 
ENDBRANCH   1   4
BRANCH   1   8
ATOM      8  C   UNL A   1     -23.647  -0.838  30.667  0.00  0.00    +0.197 C 
ATOM      9  F   UNL A   1     -23.393  -1.709  31.535  0.00  0.00    -0.222 F 
ATOM     10  C   UNL A   1     -24.309   0.379  31.482  0.00  0.00    +0.054 C 
BRANCH   8  11
ATOM     11  N   UNL A   1     -22.398  -0.287  30.185  0.00  0.00    -0.189 NA
ATOM     12  C   UNL A   1     -21.657  -0.628  29.160  0.00  0.00    +0.110 C 
ENDBRANCH   8  11
ENDBRANCH   1   8
BRANCH   1  13
ATOM     13  C   UNL A   1     -25.096  -0.294  28.774  0.00  0.00    +0.033 C 
BRANCH  13  14
ATOM     14  C   UNL A   1     -24.750  -0.266  27.435  0.00  0.00    -0.018 C 
ATOM     15  C   UNL A   1     -25.750  -0.370  26.446  0.00  0.00    +0.014 C 
ATOM     16  C   UNL A   1     -25.566   0.242  25.189  0.00  0.00    +0.093 C 
ATOM     17  N   UNL A   1     -24.371   0.764  25.005  0.00  0.00    -0.264 NA
ATOM     18  C   UNL A   1     -24.015   1.014  26.769  0.00  0.00    +0.148 C 
ENDBRANCH  13  14
ENDBRANCH   1  13
TORSDOF 5
ENDMDL
ENDMDL
