REMARK  Name = No_428-gen_results/8p0m/2024-11-26-14-13-15/
REMARK  5 active torsions:
REMARK  status: ('A' for Active; 'I' for Inactive)
REMARK    1  A    between atoms: C_1  and  C_2
REMARK    2  A    between atoms: C_1  and  C_8
REMARK    3  A    between atoms: C_5  and  C_10
REMARK    4  A    between atoms: C_9  and  C_13
REMARK    5  A    between atoms: C_14  and  C_15
REMARK                            x       y       z     vdW  Elec       q    Type
REMARK                         _______ _______ _______ _____ _____    ______ ____
ROOT
ATOM      1  C   UNL A   1     -27.064  -0.119  28.608  0.00  0.00    -0.018 A 
ATOM      2  C   UNL A   1     -25.765  -0.390  29.036  0.00  0.00    -0.004 A 
ATOM      3  C   UNL A   1     -24.552   0.406  28.765  0.00  0.00    +0.006 A 
ATOM      4  C   UNL A   1     -24.696   1.448  27.799  0.00  0.00    +0.080 A 
ATOM      5  C   UNL A   1     -25.976   1.725  27.308  0.00  0.00    +0.006 A 
ATOM      6  C   UNL A   1     -27.072   1.013  27.654  0.00  0.00    -0.004 A 
ENDROOT
BRANCH   4   7
ATOM      7  C   UNL A   1     -23.486   2.179  27.480  0.00  0.00    +0.388 C 
ATOM      8  O   UNL A   1     -23.553   3.113  26.653  0.00  0.00    -0.241 OA
ATOM      9  O   UNL A   1     -22.292   1.810  27.869  0.00  0.00    -0.241 OA
ENDBRANCH   4   7
BRANCH   1  10
ATOM     10  C   UNL A   1     -28.016  -0.814  28.878  0.00  0.00    +0.052 C 
BRANCH  10  11
ATOM     11  C   UNL A   1     -29.226  -0.068  29.315  0.00  0.00    -0.021 C 
ATOM     12  C   UNL A   1     -30.490  -0.730  29.181  0.00  0.00    -0.004 C 
BRANCH  12  13
ATOM     13  C   UNL A   1     -31.432  -0.482  29.765  0.00  0.00    -0.000 C 
ATOM     14  C   UNL A   1     -32.694  -1.214  29.698  0.00  0.00    -0.000 C 
BRANCH  14  15
ATOM     15  C   UNL A   1     -32.676  -2.254  28.744  0.00  0.00    -0.000 C 
ATOM     16  C   UNL A   1     -31.604  -2.503  27.978  0.00  0.00    -0.000 C 
ENDBRANCH  14  15
ENDBRANCH  12  13
ENDBRANCH  10  11
ENDBRANCH   1  10
TORSDOF 5
