MODEL 4280
MODEL 1
REMARK VINA RESULT:    -7.476      0.000      0.000
REMARK INTER + INTRA:          -9.018
REMARK INTER:                  -8.351
REMARK INTRA:                  -0.668
REMARK UNBOUND:                -0.668
REMARK  Name = No_4280-gen_results/8p0m/2024-11-26-14-13-15/
REMARK  2 active torsions:
REMARK  status: ('A' for Active; 'I' for Inactive)
REMARK    1  A    between atoms: C_2  and  C_14
REMARK    2  A    between atoms: C_3  and  C_8
REMARK                            x       y       z     vdW  Elec       q    Type
REMARK                         _______ _______ _______ _____ _____    ______ ____
ROOT
ATOM      1  C   UNL A   1     -23.506   0.794  27.331  0.00  0.00    +0.030 A 
ATOM      2  C   UNL A   1     -24.208  -0.177  27.492  0.00  0.00    +0.002 A 
ATOM      3  C   UNL A   1     -23.897  -1.138  28.449  0.00  0.00    +0.000 A 
ATOM      4  C   UNL A   1     -22.702  -1.029  29.246  0.00  0.00    +0.002 A 
ATOM      5  C   UNL A   1     -21.936   0.113  28.978  0.00  0.00    +0.030 A 
ATOM      6  C   UNL A   1     -22.266   0.983  28.050  0.00  0.00    +0.140 A 
ATOM      7  F   UNL A   1     -21.492   2.034  27.854  0.00  0.00    -0.204 F 
ENDROOT
BRANCH   3   8
ATOM      8  C   UNL A   1     -24.697  -2.384  28.739  0.00  0.00    +0.000 A 
ATOM      9  C   UNL A   1     -25.870  -2.327  29.464  0.00  0.00    +0.000 A 
ATOM     10  C   UNL A   1     -26.403  -3.166  29.936  0.00  0.00    +0.000 A 
ATOM     11  C   UNL A   1     -26.038  -4.608  29.649  0.00  0.00    +0.000 A 
ATOM     12  C   UNL A   1     -24.822  -4.772  28.964  0.00  0.00    +0.000 A 
ATOM     13  C   UNL A   1     -24.164  -3.682  28.557  0.00  0.00    +0.000 A 
ENDBRANCH   3   8
BRANCH   2  14
ATOM     14  C   UNL A   1     -25.524  -0.341  26.782  0.00  0.00    -0.004 C 
ATOM     15  C   UNL A   1     -25.589  -0.029  25.474  0.00  0.00    -0.026 C 
ATOM     16  C   UNL A   1     -26.758  -0.215  24.763  0.00  0.00    +0.031 C 
ENDBRANCH   2  14
TORSDOF 2
ENDMDL
ENDMDL
