REMARK  Name = No_4280-gen_results/8p0m/2024-11-26-14-13-15/
REMARK  2 active torsions:
REMARK  status: ('A' for Active; 'I' for Inactive)
REMARK    1  A    between atoms: C_2  and  C_14
REMARK    2  A    between atoms: C_3  and  C_8
REMARK                            x       y       z     vdW  Elec       q    Type
REMARK                         _______ _______ _______ _____ _____    ______ ____
ROOT
ATOM      1  C   UNL A   1     -28.016  -0.814  28.878  0.00  0.00    +0.030 A 
ATOM      2  C   UNL A   1     -27.064  -0.119  28.608  0.00  0.00    +0.002 A 
ATOM      3  C   UNL A   1     -25.792  -0.430  29.076  0.00  0.00    +0.000 A 
ATOM      4  C   UNL A   1     -25.576  -1.565  29.936  0.00  0.00    +0.002 A 
ATOM      5  C   UNL A   1     -26.735  -2.300  30.217  0.00  0.00    +0.030 A 
ATOM      6  C   UNL A   1     -27.918  -1.954  29.763  0.00  0.00    +0.140 A 
ATOM      7  F   UNL A   1     -28.965  -2.696  30.072  0.00  0.00    -0.204 F 
ENDROOT
BRANCH   3   8
ATOM      8  C   UNL A   1     -24.535   0.360  28.802  0.00  0.00    +0.000 A 
ATOM      9  C   UNL A   1     -24.109   1.346  29.668  0.00  0.00    +0.000 A 
ATOM     10  C   UNL A   1     -23.367   2.134  29.468  0.00  0.00    +0.000 A 
ATOM     11  C   UNL A   1     -22.490   2.111  28.232  0.00  0.00    +0.000 A 
ATOM     12  C   UNL A   1     -22.884   1.175  27.260  0.00  0.00    +0.000 A 
ATOM     13  C   UNL A   1     -23.901   0.353  27.537  0.00  0.00    +0.000 A 
ENDBRANCH   3   8
BRANCH   2  14
ATOM     14  C   UNL A   1     -27.161   1.032  27.644  0.00  0.00    -0.004 C 
ATOM     15  C   UNL A   1     -27.791   0.834  26.471  0.00  0.00    -0.026 C 
ATOM     16  C   UNL A   1     -27.956   1.873  25.576  0.00  0.00    +0.031 C 
ENDBRANCH   2  14
TORSDOF 2
