MODEL 4281
MODEL 1
REMARK VINA RESULT:    -4.998      0.000      0.000
REMARK INTER + INTRA:          -4.998
REMARK INTER:                  -4.998
REMARK INTRA:                   0.000
REMARK UNBOUND:                 0.000
REMARK  Name = No_4281-gen_results/8p0m/2024-11-26-14-13-15/
REMARK  0 active torsions:
REMARK  status: ('A' for Active; 'I' for Inactive)
REMARK                            x       y       z     vdW  Elec       q    Type
REMARK                         _______ _______ _______ _____ _____    ______ ____
ROOT
ATOM      1  C   UNL A   1     -10.552  -9.319  19.142  0.00  0.00    +0.042 A 
ATOM      2  C   UNL A   1      -9.832  -9.103  20.089  0.00  0.00    +0.003 A 
ATOM      3  C   UNL A   1      -8.526  -9.578  20.120  0.00  0.00    +0.000 A 
ATOM      4  C   UNL A   1      -8.003 -10.382  19.046  0.00  0.00    +0.003 A 
ATOM      5  C   UNL A   1      -8.911 -10.603  18.002  0.00  0.00    +0.042 A 
ATOM      6  C   UNL A   1     -10.142 -10.145  18.028  0.00  0.00    +0.196 A 
ATOM      7  O   UNL A   1     -10.973 -10.438  16.990  0.00  0.00    -0.287 OA
ENDROOT
TORSDOF 0
ENDMDL
ENDMDL
