MODEL 4282
MODEL 1
REMARK VINA RESULT:    -4.988      0.000      0.000
REMARK INTER + INTRA:          -5.442
REMARK INTER:                  -5.280
REMARK INTRA:                  -0.162
REMARK UNBOUND:                -0.162
REMARK  Name = No_4282-gen_results/8p0m/2024-11-26-14-13-15/
REMARK  1 active torsions:
REMARK  status: ('A' for Active; 'I' for Inactive)
REMARK    1  A    between atoms: C_5  and  C_8
REMARK                            x       y       z     vdW  Elec       q    Type
REMARK                         _______ _______ _______ _____ _____    ______ ____
ROOT
ATOM      1 CL   UNL A   1     -24.222   3.188  25.637  0.00  0.00    -0.082 Cl
ATOM      2  C   UNL A   1     -23.794   2.161  26.555  0.00  0.00    +0.058 A 
ATOM      3  C   UNL A   1     -24.377   1.247  26.999  0.00  0.00    +0.011 A 
ATOM      4  C   UNL A   1     -23.902   0.200  27.924  0.00  0.00    +0.005 A 
ATOM      5  C   UNL A   1     -22.536   0.279  28.274  0.00  0.00    +0.071 A 
ATOM      6  C   UNL A   1     -21.822   1.312  27.766  0.00  0.00    +0.005 A 
ATOM      7  C   UNL A   1     -22.348   2.202  26.928  0.00  0.00    +0.011 A 
ENDROOT
BRANCH   5   8
ATOM      8  C   UNL A   1     -22.017  -0.743  29.170  0.00  0.00    +0.419 C 
ATOM      9  F   UNL A   1     -21.005  -0.967  28.891  0.00  0.00    -0.166 F 
ATOM     10  F   UNL A   1     -22.690  -1.957  29.061  0.00  0.00    -0.166 F 
ATOM     11  F   UNL A   1     -22.039  -0.357  30.512  0.00  0.00    -0.166 F 
ENDBRANCH   5   8
TORSDOF 1
ENDMDL
ENDMDL
