REMARK  Name = No_4283-gen_results/8p0m/2024-11-26-14-13-15/
REMARK  4 active torsions:
REMARK  status: ('A' for Active; 'I' for Inactive)
REMARK    1  A    between atoms: C_3  and  N_7
REMARK    2  A    between atoms: N_7  and  C_9
REMARK    3  A    between atoms: C_9  and  C_10
REMARK    4  A    between atoms: C_11  and  C_18
REMARK                            x       y       z     vdW  Elec       q    Type
REMARK                         _______ _______ _______ _____ _____    ______ ____
ROOT
ATOM      1  C   UNL A   1     -26.036   0.072  26.891  0.00  0.00    +0.127 C 
ENDROOT
BRANCH   1   2
ATOM      2  C   UNL A   1     -25.155   1.136  27.288  0.00  0.00    +0.002 A 
ATOM      3  C   UNL A   1     -23.994   0.873  27.951  0.00  0.00    +0.069 A 
ATOM      4  C   UNL A   1     -23.037   1.945  28.128  0.00  0.00    +0.004 A 
ATOM      5  C   UNL A   1     -23.258   3.092  27.406  0.00  0.00    -0.000 A 
ATOM      6  C   UNL A   1     -25.037   2.433  26.613  0.00  0.00    -0.003 A 
ATOM      7  C   UNL A   1     -24.190   3.304  26.623  0.00  0.00    -0.000 A 
BRANCH   3   8
ATOM      8  C   UNL A   1     -23.711  -0.357  28.693  0.00  0.00    +0.418 C 
ATOM      9  F   UNL A   1     -22.529  -0.596  28.867  0.00  0.00    -0.166 F 
ATOM     10  F   UNL A   1     -24.384  -0.206  29.924  0.00  0.00    -0.166 F 
ATOM     11  F   UNL A   1     -24.261  -1.415  28.090  0.00  0.00    -0.166 F 
ENDBRANCH   3   8
ENDBRANCH   1   2
BRANCH   1  12
ATOM     12  N   UNL A   1     -27.506   0.364  26.796  0.00  0.00    -0.227 N 
ATOM     13  C   UNL A   1     -27.819   0.625  25.782  0.00  0.00    +0.397 C 
ATOM     14  O   UNL A   1     -27.445   0.179  24.670  0.00  0.00    -0.236 OA
ATOM     15  F   UNL A   1     -28.461   1.899  25.598  0.00  0.00    -0.143 F 
BRANCH  12  18
ATOM     16  C   UNL A   1     -28.016  -0.814  28.878  0.00  0.00    +0.015 A 
ATOM     17  C   UNL A   1     -28.469  -0.785  29.829  0.00  0.00    +0.001 A 
ATOM     18  C   UNL A   1     -28.196   0.348  28.055  0.00  0.00    +0.057 A 
ATOM     19  C   UNL A   1     -29.019   1.350  28.378  0.00  0.00    +0.015 A 
ATOM     20  C   UNL A   1     -29.411   0.180  30.378  0.00  0.00    +0.000 A 
ATOM     21  C   UNL A   1     -29.606   1.250  29.619  0.00  0.00    +0.001 A 
ENDBRANCH  12  18
ENDBRANCH   1  12
TORSDOF 4
