MODEL 4283
MODEL 1
REMARK VINA RESULT:    -7.872      0.000      0.000
REMARK INTER + INTRA:         -10.349
REMARK INTER:                  -9.713
REMARK INTRA:                  -0.636
REMARK UNBOUND:                -0.636
REMARK  Name = No_4283-gen_results/8p0m/2024-11-26-14-13-15/
REMARK  4 active torsions:
REMARK  status: ('A' for Active; 'I' for Inactive)
REMARK    1  A    between atoms: C_3  and  N_7
REMARK    2  A    between atoms: N_7  and  C_9
REMARK    3  A    between atoms: C_9  and  C_10
REMARK    4  A    between atoms: C_11  and  C_18
REMARK                            x       y       z     vdW  Elec       q    Type
REMARK                         _______ _______ _______ _____ _____    ______ ____
ROOT
ATOM      1  C   UNL A   1     -23.814  -0.591  28.931  0.00  0.00    +0.127 C 
ENDROOT
BRANCH   1   2
ATOM      2  C   UNL A   1     -24.328   0.014  27.733  0.00  0.00    +0.002 A 
ATOM      3  C   UNL A   1     -23.544   0.820  26.963  0.00  0.00    +0.069 A 
ATOM      4  C   UNL A   1     -24.028   1.220  25.659  0.00  0.00    +0.004 A 
ATOM      5  C   UNL A   1     -25.138   0.564  25.187  0.00  0.00    -0.000 A 
ATOM      6  C   UNL A   1     -25.409  -0.533  26.905  0.00  0.00    -0.003 A 
ATOM      7  C   UNL A   1     -25.768  -0.329  25.762  0.00  0.00    -0.000 A 
BRANCH   3   8
ATOM      8  C   UNL A   1     -22.330   1.498  27.423  0.00  0.00    +0.418 C 
ATOM      9  F   UNL A   1     -21.822   2.254  26.615  0.00  0.00    -0.166 F 
ATOM     10  F   UNL A   1     -22.717   2.189  28.591  0.00  0.00    -0.166 F 
ATOM     11  F   UNL A   1     -21.403   0.612  27.799  0.00  0.00    -0.166 F 
ENDBRANCH   3   8
ENDBRANCH   1   2
BRANCH   1  12
ATOM     12  N   UNL A   1     -24.768  -1.344  29.813  0.00  0.00    -0.227 N 
ATOM     13  C   UNL A   1     -25.170  -0.729  30.622  0.00  0.00    +0.397 C 
ATOM     14  O   UNL A   1     -25.505   0.481  30.641  0.00  0.00    -0.236 OA
ATOM     15  F   UNL A   1     -24.958  -1.190  31.968  0.00  0.00    -0.143 F 
BRANCH  12  18
ATOM     16  C   UNL A   1     -26.097  -3.395  29.920  0.00  0.00    +0.015 A 
ATOM     17  C   UNL A   1     -26.210  -4.399  29.621  0.00  0.00    +0.001 A 
ATOM     18  C   UNL A   1     -24.893  -2.739  29.496  0.00  0.00    +0.057 A 
ATOM     19  C   UNL A   1     -23.884  -3.381  28.901  0.00  0.00    +0.015 A 
ATOM     20  C   UNL A   1     -25.247  -5.293  28.994  0.00  0.00    +0.000 A 
ATOM     21  C   UNL A   1     -24.119  -4.707  28.616  0.00  0.00    +0.001 A 
ENDBRANCH  12  18
ENDBRANCH   1  12
TORSDOF 4
ENDMDL
ENDMDL
