MODEL 4284
MODEL 1
REMARK VINA RESULT:    -4.351      0.000      0.000
REMARK INTER + INTRA:          -4.351
REMARK INTER:                  -4.351
REMARK INTRA:                   0.000
REMARK UNBOUND:                 0.000
REMARK  Name = No_4284-gen_results/8p0m/2024-11-26-14-13-15/
REMARK  0 active torsions:
REMARK  status: ('A' for Active; 'I' for Inactive)
REMARK                            x       y       z     vdW  Elec       q    Type
REMARK                         _______ _______ _______ _____ _____    ______ ____
ROOT
ATOM      1  C   UNL A   1     -24.142  -4.869  28.608  0.00  0.00    +0.000 A 
ATOM      2  C   UNL A   1     -24.992  -5.299  29.059  0.00  0.00    +0.000 A 
ATOM      3  C   UNL A   1     -24.063  -3.413  28.776  0.00  0.00    +0.000 A 
ATOM      4  C   UNL A   1     -25.065  -2.696  29.287  0.00  0.00    +0.000 A 
ATOM      5  C   UNL A   1     -26.191  -4.742  29.637  0.00  0.00    +0.000 A 
ATOM      6  C   UNL A   1     -26.109  -3.386  29.762  0.00  0.00    +0.000 A 
ENDROOT
TORSDOF 0
ENDMDL
ENDMDL
