REMARK  Name = No_4285-gen_results/8p0m/2024-11-26-14-13-15/
REMARK  6 active torsions:
REMARK  status: ('A' for Active; 'I' for Inactive)
REMARK    1  A    between atoms: C_2  and  C_13
REMARK    2  A    between atoms: C_4  and  C_7
REMARK    3  A    between atoms: C_13  and  O_15
REMARK    4  A    between atoms: O_15  and  C_16
REMARK    5  A    between atoms: C_16  and  C_17
REMARK    6  A    between atoms: C_17  and  C_18
REMARK                            x       y       z     vdW  Elec       q    Type
REMARK                         _______ _______ _______ _____ _____    ______ ____
ROOT
ATOM      1  C   UNL A   1     -28.016  -0.814  28.878  0.00  0.00    +0.006 A 
ATOM      2  C   UNL A   1     -28.469  -0.785  29.829  0.00  0.00    +0.076 A 
ATOM      3  C   UNL A   1     -26.546  -0.876  28.850  0.00  0.00    +0.000 A 
ATOM      4  C   UNL A   1     -25.804  -1.032  30.057  0.00  0.00    +0.000 A 
ATOM      5  C   UNL A   1     -27.944  -0.987  31.207  0.00  0.00    +0.006 A 
ATOM      6  C   UNL A   1     -26.582  -1.039  31.223  0.00  0.00    +0.000 A 
ENDROOT
BRANCH   4   7
ATOM      7  C   UNL A   1     -24.381  -1.108  30.085  0.00  0.00    +0.000 A 
ATOM      8  C   UNL A   1     -23.759  -1.132  30.896  0.00  0.00    +0.000 A 
ATOM      9  C   UNL A   1     -22.265  -1.013  30.945  0.00  0.00    +0.000 A 
ATOM     10  C   UNL A   1     -21.740  -0.818  29.726  0.00  0.00    +0.000 A 
ATOM     11  C   UNL A   1     -23.811  -1.094  28.697  0.00  0.00    +0.000 A 
ATOM     12  C   UNL A   1     -22.456  -0.836  28.592  0.00  0.00    +0.000 A 
ENDBRANCH   4   7
BRANCH   2  13
ATOM     13  C   UNL A   1     -30.081  -0.668  29.877  0.00  0.00    +0.341 C 
ATOM     14  O   UNL A   1     -30.770  -1.464  30.344  0.00  0.00    -0.245 OA
BRANCH  13  15
ATOM     15  O   UNL A   1     -30.543   0.363  29.271  0.00  0.00    -0.445 OA
BRANCH  15  16
ATOM     16  C   UNL A   1     -31.609   0.826  29.221  0.00  0.00    +0.213 C 
BRANCH  16  17
ATOM     17  C   UNL A   1     -32.094   1.017  28.078  0.00  0.00    +0.074 C 
BRANCH  17  18
ATOM     18  C   UNL A   1     -31.286   1.516  27.080  0.00  0.00    -0.018 A 
ATOM     19  C   UNL A   1     -30.713   2.686  27.282  0.00  0.00    -0.004 A 
ATOM     20  C   UNL A   1     -29.611   3.065  27.211  0.00  0.00    -0.000 A 
ATOM     21  C   UNL A   1     -28.537   2.140  26.805  0.00  0.00    -0.000 A 
ATOM     22  C   UNL A   1     -29.011   1.052  26.008  0.00  0.00    -0.000 A 
ATOM     23  C   UNL A   1     -30.348   0.628  26.476  0.00  0.00    -0.004 A 
ENDBRANCH  17  18
ENDBRANCH  16  17
ENDBRANCH  15  16
ENDBRANCH  13  15
ENDBRANCH   2  13
TORSDOF 6
