MODEL 4285
MODEL 1
REMARK VINA RESULT:    -6.314      0.000      0.000
REMARK INTER + INTRA:         -11.214
REMARK INTER:                  -8.528
REMARK INTRA:                  -2.686
REMARK UNBOUND:                -2.686
REMARK  Name = No_4285-gen_results/8p0m/2024-11-26-14-13-15/
REMARK  6 active torsions:
REMARK  status: ('A' for Active; 'I' for Inactive)
REMARK    1  A    between atoms: C_2  and  C_13
REMARK    2  A    between atoms: C_4  and  C_7
REMARK    3  A    between atoms: C_13  and  O_15
REMARK    4  A    between atoms: O_15  and  C_16
REMARK    5  A    between atoms: C_16  and  C_17
REMARK    6  A    between atoms: C_17  and  C_18
REMARK                            x       y       z     vdW  Elec       q    Type
REMARK                         _______ _______ _______ _____ _____    ______ ____
ROOT
ATOM      1  C   UNL A   1     -23.774  -0.473  30.120  0.00  0.00    +0.006 A 
ATOM      2  C   UNL A   1     -23.271  -1.034  29.383  0.00  0.00    +0.076 A 
ATOM      3  C   UNL A   1     -25.108  -0.951  30.515  0.00  0.00    +0.000 A 
ATOM      4  C   UNL A   1     -25.612  -2.189  30.018  0.00  0.00    +0.000 A 
ATOM      5  C   UNL A   1     -23.539  -2.359  28.760  0.00  0.00    +0.006 A 
ATOM      6  C   UNL A   1     -24.774  -2.831  29.095  0.00  0.00    +0.000 A 
ENDROOT
BRANCH   4   7
ATOM      7  C   UNL A   1     -26.892  -2.703  30.376  0.00  0.00    +0.000 A 
ATOM      8  C   UNL A   1     -27.640  -2.243  30.900  0.00  0.00    +0.000 A 
ATOM      9  C   UNL A   1     -28.905  -2.829  31.453  0.00  0.00    +0.000 A 
ATOM     10  C   UNL A   1     -28.985  -4.148  31.222  0.00  0.00    +0.000 A 
ATOM     11  C   UNL A   1     -27.048  -4.126  29.930  0.00  0.00    +0.000 A 
ATOM     12  C   UNL A   1     -28.095  -4.835  30.491  0.00  0.00    +0.000 A 
ENDBRANCH   4   7
BRANCH   2  13
ATOM     13  C   UNL A   1     -21.824  -0.495  28.903  0.00  0.00    +0.341 C 
ATOM     14  O   UNL A   1     -20.858  -1.121  28.943  0.00  0.00    -0.245 OA
BRANCH  13  15
ATOM     15  O   UNL A   1     -21.824   0.735  28.543  0.00  0.00    -0.445 OA
BRANCH  15  16
ATOM     16  C   UNL A   1     -21.953   1.244  27.504  0.00  0.00    +0.213 C 
BRANCH  16  17
ATOM     17  C   UNL A   1     -22.737   2.224  27.443  0.00  0.00    +0.074 C 
BRANCH  17  18
ATOM     18  C   UNL A   1     -24.002   2.041  26.928  0.00  0.00    -0.018 A 
ATOM     19  C   UNL A   1     -24.166   1.092  26.028  0.00  0.00    -0.004 A 
ATOM     20  C   UNL A   1     -24.907   0.194  25.931  0.00  0.00    -0.000 A 
ATOM     21  C   UNL A   1     -25.937  -0.027  26.963  0.00  0.00    -0.000 A 
ATOM     22  C   UNL A   1     -26.291   1.169  27.662  0.00  0.00    -0.000 A 
ATOM     23  C   UNL A   1     -25.097   2.022  27.841  0.00  0.00    -0.004 A 
ENDBRANCH  17  18
ENDBRANCH  16  17
ENDBRANCH  15  16
ENDBRANCH  13  15
ENDBRANCH   2  13
TORSDOF 6
ENDMDL
ENDMDL
