REMARK  Name = No_4286-gen_results/8p0m/2024-11-26-14-13-15/
REMARK  4 active torsions:
REMARK  status: ('A' for Active; 'I' for Inactive)
REMARK    1  A    between atoms: C_3  and  C_7
REMARK    2  A    between atoms: C_7  and  C_10
REMARK    3  A    between atoms: C_11  and  C_12
REMARK    4  A    between atoms: C_13  and  C_14
REMARK                            x       y       z     vdW  Elec       q    Type
REMARK                         _______ _______ _______ _____ _____    ______ ____
ROOT
ATOM      1  C   UNL A   1     -27.445   0.487  26.773  0.00  0.00    -0.004 C 
ATOM      2  C   UNL A   1     -27.863   0.805  25.756  0.00  0.00    -0.026 C 
ATOM      3  C   UNL A   1     -29.271   1.143  25.669  0.00  0.00    +0.031 C 
ENDROOT
BRANCH   1   6
ATOM      4  C   UNL A   1     -28.016  -0.814  28.878  0.00  0.00    -0.000 A 
ATOM      5  C   UNL A   1     -28.469  -0.785  29.829  0.00  0.00    -0.000 A 
ATOM      6  C   UNL A   1     -28.182   0.428  28.113  0.00  0.00    -0.000 A 
ATOM      7  C   UNL A   1     -28.984   1.415  28.515  0.00  0.00    -0.000 A 
ATOM      8  C   UNL A   1     -29.380   0.138  30.461  0.00  0.00    -0.000 A 
ATOM      9  C   UNL A   1     -29.541   1.274  29.724  0.00  0.00    -0.000 A 
ENDBRANCH   1   6
BRANCH   1  10
ATOM     10  C   UNL A   1     -25.967   0.035  26.922  0.00  0.00    -0.000 C 
ATOM     11  C   UNL A   1     -25.324  -0.201  28.133  0.00  0.00    -0.000 C 
BRANCH  11  12
ATOM     12  C   UNL A   1     -23.936  -0.331  28.151  0.00  0.00    -0.000 C 
ATOM     13  C   UNL A   1     -23.267  -0.816  29.330  0.00  0.00    -0.000 C 
BRANCH  13  14
ATOM     14  C   UNL A   1     -23.977  -0.964  30.492  0.00  0.00    +0.000 C 
ATOM     15  C   UNL A   1     -25.325  -0.795  30.556  0.00  0.00    +0.000 C 
ENDBRANCH  13  14
ENDBRANCH  11  12
ENDBRANCH   1  10
TORSDOF 4
