MODEL 4287
MODEL 1
REMARK VINA RESULT:    -6.707      0.000      0.000
REMARK INTER + INTRA:          -7.959
REMARK INTER:                  -7.491
REMARK INTRA:                  -0.469
REMARK UNBOUND:                -0.469
REMARK  Name = No_4287-gen_results/8p0m/2024-11-26-14-13-15/
REMARK  2 active torsions:
REMARK  status: ('A' for Active; 'I' for Inactive)
REMARK    1  A    between atoms: C_3  and  C_4
REMARK    2  A    between atoms: C_4  and  C_8
REMARK                            x       y       z     vdW  Elec       q    Type
REMARK                         _______ _______ _______ _____ _____    ______ ____
ROOT
ATOM      1  C   UNL A   1     -23.425  -1.575  29.561  0.00  0.00    +0.053 C 
ENDROOT
BRANCH   1   4
ATOM      2  C   UNL A   1     -23.945  -4.005  28.813  0.00  0.00    -0.004 A 
ATOM      3  C   UNL A   1     -24.693  -4.745  28.865  0.00  0.00    -0.000 A 
ATOM      4  C   UNL A   1     -24.337  -2.732  29.417  0.00  0.00    -0.018 A 
ATOM      5  C   UNL A   1     -26.045  -4.806  29.403  0.00  0.00    -0.000 A 
ATOM      6  C   UNL A   1     -26.457  -3.618  29.971  0.00  0.00    -0.000 A 
ATOM      7  C   UNL A   1     -25.604  -2.580  30.039  0.00  0.00    -0.004 A 
ENDBRANCH   1   4
BRANCH   1   8
ATOM      8  C   UNL A   1     -22.986  -0.797  28.821  0.00  0.00    -0.018 A 
ATOM      9  C   UNL A   1     -21.589  -0.395  29.078  0.00  0.00    -0.004 A 
ATOM     10  C   UNL A   1     -21.169   0.673  28.132  0.00  0.00    -0.000 A 
ATOM     11  C   UNL A   1     -22.038   1.467  27.458  0.00  0.00    -0.000 A 
ATOM     12  C   UNL A   1     -23.368   1.142  27.436  0.00  0.00    -0.000 A 
ATOM     13  C   UNL A   1     -23.841   0.066  28.105  0.00  0.00    -0.004 A 
ENDBRANCH   1   8
TORSDOF 2
ENDMDL
ENDMDL
