REMARK  Name = No_4288-gen_results/8p0m/2024-11-26-14-13-15/
REMARK  5 active torsions:
REMARK  status: ('A' for Active; 'I' for Inactive)
REMARK    1  A    between atoms: C_3  and  C_8
REMARK    2  A    between atoms: C_6  and  O_7
REMARK    3  A    between atoms: O_7  and  C_14
REMARK    4  A    between atoms: C_16  and  C_23
REMARK    5  A    between atoms: C_18  and  C_20
REMARK                            x       y       z     vdW  Elec       q    Type
REMARK                         _______ _______ _______ _____ _____    ______ ____
ROOT
ATOM      1  O   UNL A   1     -29.000  -2.701  30.115  0.00  0.00    -0.454 OA
ENDROOT
BRANCH   1   7
ATOM      2  C   UNL A   1     -28.016  -0.814  28.878  0.00  0.00    +0.037 A 
ATOM      3  C   UNL A   1     -27.064  -0.119  28.608  0.00  0.00    +0.003 A 
ATOM      4  C   UNL A   1     -25.792  -0.430  29.076  0.00  0.00    +0.000 A 
ATOM      5  C   UNL A   1     -25.576  -1.565  29.936  0.00  0.00    +0.003 A 
ATOM      6  C   UNL A   1     -26.735  -2.300  30.217  0.00  0.00    +0.037 A 
ATOM      7  C   UNL A   1     -27.918  -1.954  29.763  0.00  0.00    +0.145 A 
BRANCH   4   8
ATOM      8  C   UNL A   1     -24.529   0.349  28.800  0.00  0.00    +0.000 A 
ATOM      9  C   UNL A   1     -23.344   0.006  29.166  0.00  0.00    +0.000 A 
ATOM     10  C   UNL A   1     -22.178   0.781  28.778  0.00  0.00    +0.000 A 
ATOM     11  C   UNL A   1     -22.322   1.750  27.773  0.00  0.00    +0.000 A 
ATOM     12  C   UNL A   1     -24.610   1.356  27.748  0.00  0.00    +0.000 A 
ATOM     13  C   UNL A   1     -23.515   2.034  27.307  0.00  0.00    +0.000 A 
ENDBRANCH   4   8
ENDBRANCH   1   7
BRANCH   1  14
ATOM     14  C   UNL A   1     -30.126  -2.134  30.584  0.00  0.00    +0.145 A 
ATOM     15  C   UNL A   1     -31.195  -2.717  30.135  0.00  0.00    +0.041 A 
ATOM     16  C   UNL A   1     -32.483  -2.104  30.333  0.00  0.00    +0.075 A 
ATOM     17  C   UNL A   1     -32.481  -0.951  31.161  0.00  0.00    +0.011 A 
ATOM     18  C   UNL A   1     -31.336  -0.440  31.658  0.00  0.00    +0.083 A 
ATOM     19  C   UNL A   1     -30.087  -0.988  31.355  0.00  0.00    +0.044 A 
BRANCH  16  20
ATOM     20  C   UNL A   1     -33.682  -2.715  29.904  0.00  0.00    +0.419 C 
ATOM     21  F   UNL A   1     -33.651  -3.250  28.964  0.00  0.00    -0.166 F 
ATOM     22  F   UNL A   1     -34.626  -1.653  29.745  0.00  0.00    -0.166 F 
ATOM     23  F   UNL A   1     -34.218  -3.476  30.870  0.00  0.00    -0.166 F 
ENDBRANCH  16  20
BRANCH  18  24
ATOM     24  C   UNL A   1     -31.347   0.771  32.552  0.00  0.00    +0.388 C 
ATOM     25  O   UNL A   1     -32.190   1.302  33.040  0.00  0.00    -0.241 OA
ATOM     26  O   UNL A   1     -30.089   1.476  32.470  0.00  0.00    -0.241 OA
ENDBRANCH  18  24
ENDBRANCH   1  14
TORSDOF 5
