MODEL 4289
MODEL 1
REMARK VINA RESULT:    -3.773      0.000      0.000
REMARK INTER + INTRA:          -4.333
REMARK INTER:                  -4.214
REMARK INTRA:                  -0.119
REMARK UNBOUND:                -0.119
REMARK  Name = No_4289-gen_results/8p0m/2024-11-26-14-13-15/
REMARK  2 active torsions:
REMARK  status: ('A' for Active; 'I' for Inactive)
REMARK    1  A    between atoms: C_3  and  C_4
REMARK    2  A    between atoms: C_5  and  C_6
REMARK                            x       y       z     vdW  Elec       q    Type
REMARK                         _______ _______ _______ _____ _____    ______ ____
ROOT
ATOM      1  C   UNL A   1     -27.979 -12.127  31.333  0.00  0.00    -0.001 C 
ATOM      2  C   UNL A   1     -27.151 -12.356  32.473  0.00  0.00    +0.009 C 
ENDROOT
BRANCH   1   5
ATOM      3 CL   UNL A   1     -29.482 -11.057  29.233  0.00  0.00    -0.081 Cl
ATOM      4  C   UNL A   1     -29.677 -10.568  30.488  0.00  0.00    +0.068 C 
ATOM      5  C   UNL A   1     -28.957 -11.050  31.538  0.00  0.00    +0.012 C 
ENDBRANCH   1   5
BRANCH   2   6
ATOM      6  C   UNL A   1     -27.210 -11.739  33.578  0.00  0.00    +0.208 C 
ATOM      7  O   UNL A   1     -27.619 -12.439  34.685  0.00  0.00    -0.215 OA
ENDBRANCH   2   6
TORSDOF 2
ENDMDL
ENDMDL
