MODEL 428
MODEL 1
REMARK VINA RESULT:    -5.502      0.000      0.000
REMARK INTER + INTRA:          -8.465
REMARK INTER:                  -7.110
REMARK INTRA:                  -1.355
REMARK UNBOUND:                -1.355
REMARK  Name = No_428-gen_results/8p0m/2024-11-26-14-13-15/
REMARK  5 active torsions:
REMARK  status: ('A' for Active; 'I' for Inactive)
REMARK    1  A    between atoms: C_1  and  C_2
REMARK    2  A    between atoms: C_1  and  C_8
REMARK    3  A    between atoms: C_5  and  C_10
REMARK    4  A    between atoms: C_9  and  C_13
REMARK    5  A    between atoms: C_14  and  C_15
REMARK                            x       y       z     vdW  Elec       q    Type
REMARK                         _______ _______ _______ _____ _____    ______ ____
ROOT
ATOM      1  C   UNL A   1     -23.340  -0.647  29.484  0.00  0.00    -0.018 A 
ATOM      2  C   UNL A   1     -23.098  -1.932  29.001  0.00  0.00    -0.004 A 
ATOM      3  C   UNL A   1     -24.048  -3.060  28.952  0.00  0.00    +0.006 A 
ATOM      4  C   UNL A   1     -25.276  -2.869  29.655  0.00  0.00    +0.080 A 
ATOM      5  C   UNL A   1     -25.541  -1.607  30.196  0.00  0.00    +0.006 A 
ATOM      6  C   UNL A   1     -24.665  -0.579  30.141  0.00  0.00    -0.004 A 
ENDROOT
BRANCH   4   7
ATOM      7  C   UNL A   1     -26.175  -4.006  29.668  0.00  0.00    +0.388 C 
ATOM      8  O   UNL A   1     -27.396  -3.800  29.826  0.00  0.00    -0.241 OA
ATOM      9  O   UNL A   1     -25.770  -5.250  29.702  0.00  0.00    -0.241 OA
ENDBRANCH   4   7
BRANCH   1  10
ATOM     10  C   UNL A   1     -22.513   0.235  29.483  0.00  0.00    +0.052 C 
BRANCH  10  11
ATOM     11  C   UNL A   1     -22.920   1.469  28.760  0.00  0.00    -0.021 C 
ATOM     12  C   UNL A   1     -22.720   1.496  27.341  0.00  0.00    -0.004 C 
BRANCH  12  13
ATOM     13  C   UNL A   1     -23.272   2.164  26.607  0.00  0.00    -0.000 C 
ATOM     14  C   UNL A   1     -24.390   1.758  25.760  0.00  0.00    -0.000 C 
BRANCH  14  15
ATOM     15  C   UNL A   1     -24.692   0.384  25.871  0.00  0.00    -0.000 C 
ATOM     16  C   UNL A   1     -25.753  -0.062  26.560  0.00  0.00    -0.000 C 
ENDBRANCH  14  15
ENDBRANCH  12  13
ENDBRANCH  10  11
ENDBRANCH   1  10
TORSDOF 5
ENDMDL
ENDMDL
