REMARK  Name = No_429-gen_results/8p0m/2024-11-26-14-13-15/
REMARK  3 active torsions:
REMARK  status: ('A' for Active; 'I' for Inactive)
REMARK    1  A    between atoms: C_3  and  C_4
REMARK    2  A    between atoms: C_6  and  C_13
REMARK    3  A    between atoms: N_15  and  C_16
REMARK                            x       y       z     vdW  Elec       q    Type
REMARK                         _______ _______ _______ _____ _____    ______ ____
ROOT
ATOM      1  C   UNL A   1     -28.016  -0.814  28.878  0.00  0.00    +0.005 A 
ATOM      2  C   UNL A   1     -27.064  -0.119  28.608  0.00  0.00    +0.000 A 
ATOM      3  C   UNL A   1     -26.929   1.171  29.008  0.00  0.00    +0.000 A 
ATOM      4  C   UNL A   1     -29.071  -0.334  29.769  0.00  0.00    +0.055 A 
ATOM      5  C   UNL A   1     -29.013   0.933  30.172  0.00  0.00    +0.005 A 
ATOM      6  C   UNL A   1     -27.899   1.776  29.859  0.00  0.00    +0.000 A 
ENDROOT
BRANCH   3   7
ATOM      7  C   UNL A   1     -25.770   2.034  28.688  0.00  0.00    +0.000 A 
ATOM      8  C   UNL A   1     -25.619   3.348  29.092  0.00  0.00    +0.000 A 
ATOM      9  C   UNL A   1     -24.764   1.528  27.780  0.00  0.00    +0.000 A 
ATOM     10  C   UNL A   1     -23.656   2.338  27.416  0.00  0.00    +0.000 A 
ATOM     11  C   UNL A   1     -24.619   4.223  28.523  0.00  0.00    +0.000 A 
ATOM     12  C   UNL A   1     -23.624   3.659  27.723  0.00  0.00    +0.000 A 
ENDBRANCH   3   7
BRANCH   4  13
ATOM     13  C   UNL A   1     -30.148  -1.268  30.087  0.00  0.00    +0.269 C 
ATOM     14  O   UNL A   1     -29.935  -2.422  30.374  0.00  0.00    -0.268 OA
ATOM     15  N   UNL A   1     -31.392  -0.800  30.201  0.00  0.00    -0.175 NA
BRANCH  15  16
ATOM     16  C   UNL A   1     -32.487  -1.645  30.546  0.00  0.00    +0.074 A 
ATOM     17  C   UNL A   1     -32.528  -2.493  31.332  0.00  0.00    +0.017 A 
ATOM     18  C   UNL A   1     -33.639  -1.265  29.710  0.00  0.00    +0.017 A 
ATOM     19  C   UNL A   1     -33.721  -3.255  31.609  0.00  0.00    +0.001 A 
ATOM     20  C   UNL A   1     -34.807  -2.018  29.970  0.00  0.00    +0.001 A 
ATOM     21  C   UNL A   1     -34.835  -2.958  30.902  0.00  0.00    +0.000 A 
ENDBRANCH  15  16
ENDBRANCH   4  13
TORSDOF 3
