MODEL 4290
MODEL 1
REMARK VINA RESULT:    -5.171      0.000      0.000
REMARK INTER + INTRA:          -5.568
REMARK INTER:                  -5.473
REMARK INTRA:                  -0.095
REMARK UNBOUND:                -0.095
REMARK  Name = No_4290-gen_results/8p0m/2024-11-26-14-13-15/
REMARK  1 active torsions:
REMARK  status: ('A' for Active; 'I' for Inactive)
REMARK    1  A    between atoms: C_5  and  C_6
REMARK                            x       y       z     vdW  Elec       q    Type
REMARK                         _______ _______ _______ _____ _____    ______ ____
ROOT
ATOM      1  O   UNL A   1     -27.569  -3.685  30.017  0.00  0.00    -0.273 OA
ATOM      2  C   UNL A   1     -26.481  -4.010  29.820  0.00  0.00    +0.242 C 
ATOM      3  C   UNL A   1     -25.895  -4.883  29.556  0.00  0.00    +0.087 C 
ATOM      4  N   UNL A   1     -25.656  -2.799  29.660  0.00  0.00    -0.203 NA
ATOM      5  C   UNL A   1     -24.266  -2.905  29.336  0.00  0.00    +0.117 C 
ATOM      6  C   UNL A   1     -23.976  -4.159  28.791  0.00  0.00    +0.027 C 
ATOM      7  C   UNL A   1     -24.681  -5.252  28.950  0.00  0.00    +0.012 C 
ENDROOT
BRANCH   5   8
ATOM      8  C   UNL A   1     -23.446  -1.821  28.982  0.00  0.00    -0.009 C 
ATOM      9  C   UNL A   1     -22.996  -0.902  29.918  0.00  0.00    -0.029 C 
ATOM     10  C   UNL A   1     -23.175  -1.145  31.285  0.00  0.00    +0.030 C 
ENDBRANCH   5   8
TORSDOF 1
ENDMDL
ENDMDL
