REMARK  Name = No_4290-gen_results/8p0m/2024-11-26-14-13-15/
REMARK  1 active torsions:
REMARK  status: ('A' for Active; 'I' for Inactive)
REMARK    1  A    between atoms: C_5  and  C_6
REMARK                            x       y       z     vdW  Elec       q    Type
REMARK                         _______ _______ _______ _____ _____    ______ ____
ROOT
ATOM      1  O   UNL A   1     -28.123  -1.335  28.487  0.00  0.00    -0.273 OA
ATOM      2  C   UNL A   1     -27.481  -0.404  28.709  0.00  0.00    +0.242 C 
ATOM      3  C   UNL A   1     -27.190   0.246  29.527  0.00  0.00    +0.087 C 
ATOM      4  N   UNL A   1     -26.602  -0.158  27.552  0.00  0.00    -0.203 NA
ATOM      5  C   UNL A   1     -25.642   0.903  27.582  0.00  0.00    +0.117 C 
ATOM      6  C   UNL A   1     -25.378   1.299  28.896  0.00  0.00    +0.027 C 
ATOM      7  C   UNL A   1     -26.162   1.117  29.930  0.00  0.00    +0.012 C 
ENDROOT
BRANCH   5   8
ATOM      8  C   UNL A   1     -24.641   1.099  26.616  0.00  0.00    -0.009 C 
ATOM      9  C   UNL A   1     -23.539   1.907  26.852  0.00  0.00    -0.029 C 
ATOM     10  C   UNL A   1     -23.283   2.389  28.142  0.00  0.00    +0.030 C 
ENDBRANCH   5   8
TORSDOF 1
