MODEL 4291
MODEL 1
REMARK VINA RESULT:    -6.136      0.000      0.000
REMARK INTER + INTRA:          -7.232
REMARK INTER:                  -6.854
REMARK INTRA:                  -0.378
REMARK UNBOUND:                -0.378
REMARK  Name = No_4291-gen_results/8p0m/2024-11-26-14-13-15/
REMARK  2 active torsions:
REMARK  status: ('A' for Active; 'I' for Inactive)
REMARK    1  A    between atoms: C_2  and  N_7
REMARK    2  A    between atoms: N_7  and  C_8
REMARK                            x       y       z     vdW  Elec       q    Type
REMARK                         _______ _______ _______ _____ _____    ______ ____
ROOT
ATOM      1  N   UNL A   1     -24.115  -1.035  29.617  0.00  0.00    -0.212 NA
ENDROOT
BRANCH   1   3
ATOM      2  C   UNL A   1     -22.734   0.426  28.719  0.00  0.00    +0.017 A 
ATOM      3  C   UNL A   1     -23.764  -0.191  28.577  0.00  0.00    +0.070 A 
ATOM      4  C   UNL A   1     -24.555  -0.017  27.447  0.00  0.00    +0.017 A 
ATOM      5  C   UNL A   1     -24.196   0.939  26.431  0.00  0.00    +0.001 A 
ATOM      6  C   UNL A   1     -23.003   1.627  26.688  0.00  0.00    +0.000 A 
ATOM      7  C   UNL A   1     -22.299   1.437  27.781  0.00  0.00    +0.001 A 
ENDBRANCH   1   3
BRANCH   1   8
ATOM      8  C   UNL A   1     -24.236  -2.328  29.357  0.00  0.00    +0.070 A 
ATOM      9  C   UNL A   1     -23.803  -3.210  28.907  0.00  0.00    +0.017 A 
ATOM     10  C   UNL A   1     -24.177  -4.654  28.715  0.00  0.00    +0.001 A 
ATOM     11  C   UNL A   1     -25.423  -4.961  29.149  0.00  0.00    +0.000 A 
ATOM     12  C   UNL A   1     -26.175  -3.970  29.745  0.00  0.00    +0.001 A 
ATOM     13  C   UNL A   1     -25.704  -2.747  29.902  0.00  0.00    +0.017 A 
ENDBRANCH   1   8
TORSDOF 2
ENDMDL
ENDMDL
