MODEL 4292
MODEL 1
REMARK VINA RESULT:    -7.940      0.000      0.000
REMARK INTER + INTRA:         -10.944
REMARK INTER:                 -10.261
REMARK INTRA:                  -0.683
REMARK UNBOUND:                -0.683
REMARK  Name = No_4292-gen_results/8p0m/2024-11-26-14-13-15/
REMARK  5 active torsions:
REMARK  status: ('A' for Active; 'I' for Inactive)
REMARK    1  A    between atoms: C_6  and  C_16
REMARK    2  A    between atoms: C_12  and  C_15
REMARK    3  A    between atoms: N_18  and  C_19
REMARK    4  A    between atoms: C_19  and  C_20
REMARK    5  A    between atoms: C_23  and  C_27
REMARK                            x       y       z     vdW  Elec       q    Type
REMARK                         _______ _______ _______ _____ _____    ______ ____
ROOT
ATOM      1  C   UNL A   1     -28.681  -2.442  31.029  0.00  0.00    +0.005 A 
ATOM      2  C   UNL A   1     -27.595  -1.912  30.985  0.00  0.00    +0.000 A 
ATOM      3  C   UNL A   1     -26.501  -2.562  30.424  0.00  0.00    +0.000 A 
ATOM      4  C   UNL A   1     -25.115  -2.023  30.320  0.00  0.00    +0.000 A 
ATOM      5  C   UNL A   1     -23.990  -2.718  29.753  0.00  0.00    +0.000 A 
ATOM      6  C   UNL A   1     -28.826  -3.860  30.660  0.00  0.00    +0.055 A 
ATOM      7  C   UNL A   1     -27.816  -4.547  30.033  0.00  0.00    +0.005 A 
ATOM      8  C   UNL A   1     -26.552  -3.945  29.916  0.00  0.00    +0.000 A 
ATOM      9  C   UNL A   1     -24.346  -3.975  29.162  0.00  0.00    +0.000 A 
ATOM     10  C   UNL A   1     -25.496  -4.579  29.278  0.00  0.00    +0.000 A 
ATOM     11  C   UNL A   1     -24.802  -0.644  30.800  0.00  0.00    +0.005 A 
ATOM     12  C   UNL A   1     -24.045   0.173  29.983  0.00  0.00    +0.057 A 
ATOM     13  C   UNL A   1     -23.359  -0.292  28.865  0.00  0.00    +0.005 A 
ATOM     14  C   UNL A   1     -23.047  -1.813  28.933  0.00  0.00    +0.000 A 
ENDROOT
BRANCH  12  15
ATOM     15  C   UNL A   1     -23.911   1.596  30.040  0.00  0.00    +0.284 C 
ATOM     16  N   UNL A   1     -23.468   2.088  28.789  0.00  0.00    -0.084 NA
ATOM     17  O   UNL A   1     -24.177   2.311  30.892  0.00  0.00    -0.267 OA
ENDBRANCH  12  15
BRANCH   6  18
ATOM     18  C   UNL A   1     -30.133  -4.612  30.735  0.00  0.00    +0.265 C 
ATOM     19  O   UNL A   1     -31.095  -4.125  30.554  0.00  0.00    -0.268 OA
ATOM     20  N   UNL A   1     -30.021  -5.969  31.013  0.00  0.00    -0.201 NA
BRANCH  20  21
ATOM     21  C   UNL A   1     -31.198  -6.842  31.009  0.00  0.00    +0.120 C 
BRANCH  21  22
ATOM     22  C   UNL A   1     -30.912  -8.198  30.955  0.00  0.00    +0.044 C 
ATOM     23  C   UNL A   1     -31.003  -8.986  30.047  0.00  0.00    -0.029 C 
ATOM     24  C   UNL A   1     -30.385 -10.211  30.190  0.00  0.00    -0.027 C 
ATOM     25  C   UNL A   1     -29.631 -10.428  31.247  0.00  0.00    +0.044 C 
ATOM     26  C   UNL A   1     -29.897  -8.849  31.857  0.00  0.00    +0.015 C 
BRANCH  25  27
ATOM     27  C   UNL A   1     -28.848 -11.291  31.863  0.00  0.00    -0.027 C 
ATOM     28  C   UNL A   1     -27.963 -11.897  31.618  0.00  0.00    -0.030 C 
ATOM     29  C   UNL A   1     -27.204 -12.809  32.501  0.00  0.00    +0.030 C 
ENDBRANCH  25  27
ENDBRANCH  21  22
ENDBRANCH  20  21
ENDBRANCH   6  18
TORSDOF 5
ENDMDL
ENDMDL
