REMARK  Name = No_4292-gen_results/8p0m/2024-11-26-14-13-15/
REMARK  5 active torsions:
REMARK  status: ('A' for Active; 'I' for Inactive)
REMARK    1  A    between atoms: C_6  and  C_16
REMARK    2  A    between atoms: C_12  and  C_15
REMARK    3  A    between atoms: N_18  and  C_19
REMARK    4  A    between atoms: C_19  and  C_20
REMARK    5  A    between atoms: C_23  and  C_27
REMARK                            x       y       z     vdW  Elec       q    Type
REMARK                         _______ _______ _______ _____ _____    ______ ____
ROOT
ATOM      1  C   UNL A   1     -28.016  -0.814  28.878  0.00  0.00    +0.005 A 
ATOM      2  C   UNL A   1     -27.064  -0.119  28.608  0.00  0.00    +0.000 A 
ATOM      3  C   UNL A   1     -25.792  -0.430  29.076  0.00  0.00    +0.000 A 
ATOM      4  C   UNL A   1     -24.546   0.349  28.823  0.00  0.00    +0.000 A 
ATOM      5  C   UNL A   1     -23.241   0.022  29.332  0.00  0.00    +0.000 A 
ATOM      6  C   UNL A   1     -27.882  -1.899  29.863  0.00  0.00    +0.055 A 
ATOM      7  C   UNL A   1     -26.653  -2.314  30.314  0.00  0.00    +0.005 A 
ATOM      8  C   UNL A   1     -25.515  -1.561  29.979  0.00  0.00    +0.000 A 
ATOM      9  C   UNL A   1     -23.207  -1.229  30.031  0.00  0.00    +0.000 A 
ATOM     10  C   UNL A   1     -24.243  -1.936  30.388  0.00  0.00    +0.000 A 
ATOM     11  C   UNL A   1     -24.577   1.565  27.957  0.00  0.00    +0.005 A 
ATOM     12  C   UNL A   1     -23.596   1.704  26.996  0.00  0.00    +0.057 A 
ATOM     13  C   UNL A   1     -22.453   0.911  26.952  0.00  0.00    +0.005 A 
ATOM     14  C   UNL A   1     -22.098   0.282  28.329  0.00  0.00    +0.000 A 
ENDROOT
BRANCH  12  15
ATOM     15  C   UNL A   1     -23.601   2.557  25.847  0.00  0.00    +0.284 C 
ATOM     16  N   UNL A   1     -24.730   3.410  25.885  0.00  0.00    -0.084 NA
ATOM     17  O   UNL A   1     -22.814   2.660  25.023  0.00  0.00    -0.267 OA
ENDBRANCH  12  15
BRANCH   6  18
ATOM     18  C   UNL A   1     -29.029  -2.780  30.296  0.00  0.00    +0.265 C 
ATOM     19  O   UNL A   1     -30.072  -2.465  30.200  0.00  0.00    -0.268 OA
ATOM     20  N   UNL A   1     -28.666  -4.027  30.789  0.00  0.00    -0.201 NA
BRANCH  20  21
ATOM     21  C   UNL A   1     -29.679  -5.025  31.145  0.00  0.00    +0.120 C 
BRANCH  21  22
ATOM     22  C   UNL A   1     -30.592  -5.306  30.139  0.00  0.00    +0.044 C 
ATOM     23  C   UNL A   1     -30.600  -4.995  28.974  0.00  0.00    -0.029 C 
ATOM     24  C   UNL A   1     -31.484  -5.645  28.139  0.00  0.00    -0.027 C 
ATOM     25  C   UNL A   1     -32.194  -6.648  28.612  0.00  0.00    +0.044 C 
ATOM     26  C   UNL A   1     -31.474  -6.526  30.162  0.00  0.00    +0.015 C 
BRANCH  25  27
ATOM     27  C   UNL A   1     -33.088  -7.574  28.329  0.00  0.00    -0.027 C 
ATOM     28  C   UNL A   1     -33.769  -8.236  28.884  0.00  0.00    -0.030 C 
ATOM     29  C   UNL A   1     -34.738  -9.214  28.345  0.00  0.00    +0.030 C 
ENDBRANCH  25  27
ENDBRANCH  21  22
ENDBRANCH  20  21
ENDBRANCH   6  18
TORSDOF 5
