MODEL 4293
MODEL 1
REMARK VINA RESULT:    -6.398      0.000      0.000
REMARK INTER + INTRA:          -8.425
REMARK INTER:                  -7.521
REMARK INTRA:                  -0.904
REMARK UNBOUND:                -0.904
REMARK  Name = No_4293-gen_results/8p0m/2024-11-26-14-13-15/
REMARK  3 active torsions:
REMARK  status: ('A' for Active; 'I' for Inactive)
REMARK    1  A    between atoms: C_1  and  C_2
REMARK    2  A    between atoms: C_1  and  C_3
REMARK    3  A    between atoms: C_12  and  C_13
REMARK                            x       y       z     vdW  Elec       q    Type
REMARK                         _______ _______ _______ _____ _____    ______ ____
ROOT
ATOM      1  C   UNL A   1     -25.001  -2.449  29.439  0.00  0.00    -0.009 A 
ATOM      2  C   UNL A   1     -26.221  -1.660  29.987  0.00  0.00    +0.014 A 
ATOM      3  C   UNL A   1     -27.441  -2.295  30.114  0.00  0.00    +0.089 A 
ATOM      4  N   UNL A   1     -28.517  -1.788  30.140  0.00  0.00    -0.128 NA
ATOM      5  C   UNL A   1     -27.469  -3.868  30.128  0.00  0.00    +0.018 A 
ATOM      6  C   UNL A   1     -26.373  -4.589  29.772  0.00  0.00    +0.005 A 
ATOM      7  C   UNL A   1     -25.195  -3.897  29.297  0.00  0.00    +0.068 A 
ENDROOT
BRANCH   7   8
ATOM      8  C   UNL A   1     -24.277  -4.793  28.907  0.00  0.00    +0.418 C 
ATOM      9  F   UNL A   1     -23.704  -5.009  27.885  0.00  0.00    -0.166 F 
ATOM     10  F   UNL A   1     -24.606  -6.104  29.533  0.00  0.00    -0.166 F 
ATOM     11  F   UNL A   1     -24.610  -5.361  28.136  0.00  0.00    -0.166 F 
ENDBRANCH   7   8
BRANCH   1  12
ATOM     12  C   UNL A   1     -24.316  -2.016  28.766  0.00  0.00    +0.130 C 
BRANCH  12  13
ATOM     13  C   UNL A   1     -23.213  -1.196  29.397  0.00  0.00    +0.402 C 
ATOM     14  F   UNL A   1     -22.145  -1.497  28.871  0.00  0.00    -0.170 F 
ATOM     15  F   UNL A   1     -23.088  -1.346  30.732  0.00  0.00    -0.170 F 
ATOM     16  F   UNL A   1     -23.382   0.178  29.257  0.00  0.00    -0.170 F 
ENDBRANCH  12  13
ENDBRANCH   1  12
TORSDOF 3
ENDMDL
ENDMDL
