REMARK  Name = No_4293-gen_results/8p0m/2024-11-26-14-13-15/
REMARK  3 active torsions:
REMARK  status: ('A' for Active; 'I' for Inactive)
REMARK    1  A    between atoms: C_1  and  C_2
REMARK    2  A    between atoms: C_1  and  C_3
REMARK    3  A    between atoms: C_12  and  C_13
REMARK                            x       y       z     vdW  Elec       q    Type
REMARK                         _______ _______ _______ _____ _____    ______ ____
ROOT
ATOM      1  C   UNL A   1     -28.469  -0.785  29.829  0.00  0.00    -0.009 A 
ATOM      2  C   UNL A   1     -29.969  -1.133  30.033  0.00  0.00    +0.014 A 
ATOM      3  C   UNL A   1     -30.352  -1.878  31.131  0.00  0.00    +0.089 A 
ATOM      4  N   UNL A   1     -31.335  -2.539  31.245  0.00  0.00    -0.128 NA
ATOM      5  C   UNL A   1     -29.364  -1.977  32.351  0.00  0.00    +0.018 A 
ATOM      6  C   UNL A   1     -28.073  -1.563  32.240  0.00  0.00    +0.005 A 
ATOM      7  C   UNL A   1     -27.586  -1.103  30.958  0.00  0.00    +0.068 A 
ENDROOT
BRANCH   7   8
ATOM      8  C   UNL A   1     -26.274  -0.843  31.046  0.00  0.00    +0.418 C 
ATOM      9  F   UNL A   1     -25.300  -1.510  31.203  0.00  0.00    -0.166 F 
ATOM     10  F   UNL A   1     -26.096   0.415  31.823  0.00  0.00    -0.166 F 
ATOM     11  F   UNL A   1     -25.888  -1.149  31.932  0.00  0.00    -0.166 F 
ENDBRANCH   7   8
BRANCH   1  12
ATOM     12  C   UNL A   1     -28.016  -0.814  28.878  0.00  0.00    +0.130 C 
BRANCH  12  13
ATOM     13  C   UNL A   1     -26.504  -0.778  28.877  0.00  0.00    +0.402 C 
ATOM     14  F   UNL A   1     -26.081  -1.894  29.166  0.00  0.00    -0.170 F 
ATOM     15  F   UNL A   1     -25.958   0.118  29.724  0.00  0.00    -0.170 F 
ATOM     16  F   UNL A   1     -25.951  -0.420  27.651  0.00  0.00    -0.170 F 
ENDBRANCH  12  13
ENDBRANCH   1  12
TORSDOF 3
