MODEL 4294
MODEL 1
REMARK VINA RESULT:    -7.014      0.000      0.000
REMARK INTER + INTRA:         -10.580
REMARK INTER:                  -9.474
REMARK INTRA:                  -1.106
REMARK UNBOUND:                -1.106
REMARK  Name = No_4294-gen_results/8p0m/2024-11-26-14-13-15/
REMARK  6 active torsions:
REMARK  status: ('A' for Active; 'I' for Inactive)
REMARK    1  A    between atoms: C_3  and  C_7
REMARK    2  A    between atoms: N_8  and  C_10
REMARK    3  A    between atoms: C_11  and  C_24
REMARK    4  A    between atoms: C_14  and  C_15
REMARK    5  A    between atoms: C_15  and  C_17
REMARK    6  A    between atoms: C_18  and  C_20
REMARK                            x       y       z     vdW  Elec       q    Type
REMARK                         _______ _______ _______ _____ _____    ______ ____
ROOT
ATOM      1  C   UNL A   1     -25.415   0.856  27.423  0.00  0.00    +0.067 A 
ATOM      2  C   UNL A   1     -25.877   1.769  26.317  0.00  0.00    +0.008 A 
ATOM      3  C   UNL A   1     -26.195   1.142  25.068  0.00  0.00    -0.002 A 
ATOM      4  C   UNL A   1     -25.933  -0.261  24.984  0.00  0.00    -0.001 A 
ATOM      5  C   UNL A   1     -25.345  -0.408  27.097  0.00  0.00    -0.003 A 
ATOM      6  C   UNL A   1     -25.545  -1.023  25.931  0.00  0.00    -0.003 A 
ENDROOT
BRANCH   1   8
ATOM      7  C   UNL A   1     -24.360   1.916  29.389  0.00  0.00    +0.269 C 
ATOM      8  N   UNL A   1     -25.343   1.565  28.664  0.00  0.00    -0.176 NA
ATOM      9  O   UNL A   1     -24.451   2.566  30.427  0.00  0.00    -0.268 OA
BRANCH   7  12
ATOM     10  C   UNL A   1     -22.351   1.846  27.800  0.00  0.00    +0.005 A 
ATOM     11  C   UNL A   1     -21.437   1.386  27.547  0.00  0.00    +0.000 A 
ATOM     12  C   UNL A   1     -23.065   1.330  28.903  0.00  0.00    +0.055 A 
ATOM     13  C   UNL A   1     -22.605   0.250  29.631  0.00  0.00    +0.005 A 
ATOM     14  C   UNL A   1     -20.729   0.240  28.151  0.00  0.00    +0.000 A 
ATOM     15  C   UNL A   1     -21.381  -0.286  29.212  0.00  0.00    +0.000 A 
ENDBRANCH   7  12
ENDBRANCH   1   8
BRANCH   2  16
ATOM     16  C   UNL A   1     -25.931   3.162  26.551  0.00  0.00    +0.103 C 
ATOM     17 CL   UNL A   1     -24.630   4.103  26.281  0.00  0.00    -0.110 Cl
ATOM     18  C   UNL A   1     -27.202   3.791  26.772  0.00  0.00    +0.022 C 
ENDBRANCH   2  16
BRANCH   5  19
ATOM     19  C   UNL A   1     -24.968  -1.318  28.250  0.00  0.00    +0.054 C 
BRANCH  19  20
ATOM     20  C   UNL A   1     -26.083  -1.885  28.921  0.00  0.00    -0.006 C 
ATOM     21  C   UNL A   1     -25.986  -3.252  29.354  0.00  0.00    +0.125 C 
ATOM     22 CL   UNL A   1     -27.248  -3.920  30.127  0.00  0.00    -0.079 Cl
BRANCH  21  23
ATOM     23  C   UNL A   1     -24.789  -4.033  29.125  0.00  0.00    +0.428 C 
ATOM     24  F   UNL A   1     -24.343  -4.031  27.977  0.00  0.00    -0.165 F 
ATOM     25  F   UNL A   1     -23.842  -3.598  30.078  0.00  0.00    -0.165 F 
ATOM     26  F   UNL A   1     -24.867  -5.315  29.592  0.00  0.00    -0.165 F 
ENDBRANCH  21  23
ENDBRANCH  19  20
ENDBRANCH   5  19
TORSDOF 6
ENDMDL
ENDMDL
