MODEL 4295
MODEL 1
REMARK VINA RESULT:    -4.275      0.000      0.000
REMARK INTER + INTRA:          -4.275
REMARK INTER:                  -4.275
REMARK INTRA:                   0.000
REMARK UNBOUND:                 0.000
REMARK  Name = No_4295-gen_results/8p0m/2024-11-26-14-13-15/
REMARK  0 active torsions:
REMARK  status: ('A' for Active; 'I' for Inactive)
REMARK                            x       y       z     vdW  Elec       q    Type
REMARK                         _______ _______ _______ _____ _____    ______ ____
ROOT
ATOM      1  C   UNL A   1     -26.078  -4.837  29.666  0.00  0.00    +0.000 A 
ATOM      2  C   UNL A   1     -26.205  -3.635  29.719  0.00  0.00    +0.000 A 
ATOM      3  C   UNL A   1     -25.228  -2.745  29.316  0.00  0.00    +0.000 A 
ATOM      4  C   UNL A   1     -24.025  -3.276  28.774  0.00  0.00    +0.000 A 
ATOM      5  C   UNL A   1     -23.999  -4.615  28.578  0.00  0.00    +0.000 A 
ATOM      6  C   UNL A   1     -24.999  -5.387  28.958  0.00  0.00    +0.000 A 
ENDROOT
TORSDOF 0
ENDMDL
ENDMDL
