MODEL 4296
MODEL 1
REMARK VINA RESULT:    -4.381      0.000      0.000
REMARK INTER + INTRA:          -4.381
REMARK INTER:                  -4.381
REMARK INTRA:                   0.000
REMARK UNBOUND:                 0.000
REMARK  Name = No_4296-gen_results/8p0m/2024-11-26-14-13-15/
REMARK  0 active torsions:
REMARK  status: ('A' for Active; 'I' for Inactive)
REMARK                            x       y       z     vdW  Elec       q    Type
REMARK                         _______ _______ _______ _____ _____    ______ ____
ROOT
ATOM      1  C   UNL A   1      -9.189  -9.224  20.275  0.00  0.00    +0.011 A 
ATOM      2  C   UNL A   1      -8.180  -9.834  20.008  0.00  0.00    +0.058 A 
ATOM      3  C   UNL A   1      -8.019 -10.581  18.886  0.00  0.00    +0.011 A 
ATOM      4  C   UNL A   1      -9.088 -10.654  17.973  0.00  0.00    +0.001 A 
ATOM      5  C   UNL A   1     -10.286  -9.176  19.342  0.00  0.00    +0.001 A 
ATOM      6  C   UNL A   1     -10.186  -9.933  18.213  0.00  0.00    +0.000 A 
ATOM      7 CL   UNL A   1      -6.796  -9.802  21.064  0.00  0.00    -0.082 Cl
ENDROOT
TORSDOF 0
ENDMDL
ENDMDL
