MODEL 4297
MODEL 1
REMARK VINA RESULT:    -5.227      0.000      0.000
REMARK INTER + INTRA:          -5.690
REMARK INTER:                  -5.532
REMARK INTRA:                  -0.158
REMARK UNBOUND:                -0.158
REMARK  Name = No_4297-gen_results/8p0m/2024-11-26-14-13-15/
REMARK  1 active torsions:
REMARK  status: ('A' for Active; 'I' for Inactive)
REMARK    1  A    between atoms: C_2  and  C_7
REMARK                            x       y       z     vdW  Elec       q    Type
REMARK                         _______ _______ _______ _____ _____    ______ ____
ROOT
ATOM      1  C   UNL A   1     -23.873  -3.824  28.842  0.00  0.00    +0.004 A 
ATOM      2  C   UNL A   1     -24.236  -2.723  29.186  0.00  0.00    +0.071 A 
ATOM      3  C   UNL A   1     -25.490  -2.525  29.753  0.00  0.00    +0.004 A 
ATOM      4  C   UNL A   1     -26.415  -3.618  29.906  0.00  0.00    -0.000 A 
ATOM      5  C   UNL A   1     -25.923  -4.852  29.461  0.00  0.00    -0.000 A 
ATOM      6  C   UNL A   1     -24.735  -4.983  28.916  0.00  0.00    -0.000 A 
ENDROOT
BRANCH   2   7
ATOM      7  C   UNL A   1     -23.426  -1.480  29.077  0.00  0.00    +0.419 C 
ATOM      8  F   UNL A   1     -22.342  -1.614  28.929  0.00  0.00    -0.166 F 
ATOM      9  F   UNL A   1     -23.964  -0.806  27.955  0.00  0.00    -0.166 F 
ATOM     10  F   UNL A   1     -23.709  -0.582  30.101  0.00  0.00    -0.166 F 
ENDBRANCH   2   7
TORSDOF 1
ENDMDL
ENDMDL
