MODEL 4299
MODEL 1
REMARK VINA RESULT:    -5.167      0.000      0.000
REMARK INTER + INTRA:          -5.652
REMARK INTER:                  -5.469
REMARK INTRA:                  -0.183
REMARK UNBOUND:                -0.183
REMARK  Name = No_4299-gen_results/8p0m/2024-11-26-14-13-15/
REMARK  1 active torsions:
REMARK  status: ('A' for Active; 'I' for Inactive)
REMARK    1  A    between atoms: C_3  and  C_7
REMARK                            x       y       z     vdW  Elec       q    Type
REMARK                         _______ _______ _______ _____ _____    ______ ____
ROOT
ATOM      1  C   UNL A   1     -25.787  -2.639  29.813  0.00  0.00    +0.004 A 
ATOM      2  C   UNL A   1     -26.306  -3.556  29.850  0.00  0.00    -0.000 A 
ATOM      3  C   UNL A   1     -24.489  -2.729  29.133  0.00  0.00    +0.071 A 
ATOM      4  C   UNL A   1     -23.950  -3.893  28.768  0.00  0.00    +0.004 A 
ATOM      5  C   UNL A   1     -25.930  -4.916  29.548  0.00  0.00    -0.000 A 
ATOM      6  C   UNL A   1     -24.712  -4.981  28.940  0.00  0.00    -0.000 A 
ENDROOT
BRANCH   3   7
ATOM      7  C   UNL A   1     -23.733  -1.415  28.950  0.00  0.00    +0.419 C 
ATOM      8  F   UNL A   1     -23.913  -0.570  29.951  0.00  0.00    -0.166 F 
ATOM      9  F   UNL A   1     -22.403  -1.612  28.857  0.00  0.00    -0.166 F 
ATOM     10  F   UNL A   1     -24.076  -0.751  27.786  0.00  0.00    -0.166 F 
ENDBRANCH   3   7
TORSDOF 1
ENDMDL
ENDMDL
