MODEL 429
MODEL 1
REMARK VINA RESULT:    -7.102      0.000      0.000
REMARK INTER + INTRA:          -8.894
REMARK INTER:                  -8.347
REMARK INTRA:                  -0.547
REMARK UNBOUND:                -0.547
REMARK  Name = No_429-gen_results/8p0m/2024-11-26-14-13-15/
REMARK  3 active torsions:
REMARK  status: ('A' for Active; 'I' for Inactive)
REMARK    1  A    between atoms: C_3  and  C_4
REMARK    2  A    between atoms: C_6  and  C_13
REMARK    3  A    between atoms: N_15  and  C_16
REMARK                            x       y       z     vdW  Elec       q    Type
REMARK                         _______ _______ _______ _____ _____    ______ ____
ROOT
ATOM      1  C   UNL A   1     -11.043   1.916  34.520  0.00  0.00    +0.005 A 
ATOM      2  C   UNL A   1     -12.095   2.389  34.883  0.00  0.00    +0.000 A 
ATOM      3  C   UNL A   1     -12.553   2.330  36.159  0.00  0.00    +0.000 A 
ATOM      4  C   UNL A   1     -10.113   1.321  35.479  0.00  0.00    +0.055 A 
ATOM      5  C   UNL A   1     -10.516   1.206  36.742  0.00  0.00    +0.005 A 
ATOM      6  C   UNL A   1     -11.760   1.753  37.193  0.00  0.00    +0.000 A 
ENDROOT
BRANCH   3   7
ATOM      7  C   UNL A   1     -13.836   2.906  36.620  0.00  0.00    +0.000 A 
ATOM      8  C   UNL A   1     -14.220   3.043  37.941  0.00  0.00    +0.000 A 
ATOM      9  C   UNL A   1     -14.835   3.243  35.629  0.00  0.00    +0.000 A 
ATOM     10  C   UNL A   1     -16.094   3.762  36.030  0.00  0.00    +0.000 A 
ATOM     11  C   UNL A   1     -15.580   3.344  38.325  0.00  0.00    +0.000 A 
ATOM     12  C   UNL A   1     -16.475   3.746  37.332  0.00  0.00    +0.000 A 
ENDBRANCH   3   7
BRANCH   4  13
ATOM     13  C   UNL A   1      -8.840   0.833  34.956  0.00  0.00    +0.269 C 
ATOM     14  O   UNL A   1      -8.417   1.169  33.875  0.00  0.00    -0.268 OA
ATOM     15  N   UNL A   1      -8.055   0.105  35.751  0.00  0.00    -0.175 NA
BRANCH  15  16
ATOM     16  C   UNL A   1      -6.783  -0.374  35.321  0.00  0.00    +0.074 A 
ATOM     17  C   UNL A   1      -5.745   0.127  35.431  0.00  0.00    +0.017 A 
ATOM     18  C   UNL A   1      -6.981  -1.683  34.675  0.00  0.00    +0.017 A 
ATOM     19  C   UNL A   1      -4.521  -0.487  34.979  0.00  0.00    +0.001 A 
ATOM     20  C   UNL A   1      -5.784  -2.283  34.220  0.00  0.00    +0.001 A 
ATOM     21  C   UNL A   1      -4.606  -1.703  34.393  0.00  0.00    +0.000 A 
ENDBRANCH  15  16
ENDBRANCH   4  13
TORSDOF 3
ENDMDL
ENDMDL
