MODEL 42
MODEL 1
REMARK VINA RESULT:    -5.891      0.000      0.000
REMARK INTER + INTRA:         -12.221
REMARK INTER:                  -8.647
REMARK INTRA:                  -3.575
REMARK UNBOUND:                -3.575
REMARK  Name = No_42-gen_results/8p0m/2024-11-26-14-13-15/
REMARK  8 active torsions:
REMARK  status: ('A' for Active; 'I' for Inactive)
REMARK    1  A    between atoms: C_2  and  C_3
REMARK    2  A    between atoms: C_3  and  N_5
REMARK    3  A    between atoms: C_8  and  C_16
REMARK    4  A    between atoms: C_11  and  C_29
REMARK    5  A    between atoms: C_16  and  C_18
REMARK    6  A    between atoms: C_19  and  C_20
REMARK    7  A    between atoms: C_22  and  C_26
REMARK    8  A    between atoms: N_31  and  C_32
REMARK                            x       y       z     vdW  Elec       q    Type
REMARK                         _______ _______ _______ _____ _____    ______ ____
ROOT
ATOM      1  N   UNL A   1     -22.104 -20.703   5.026  0.00  0.00    -0.320 N 
ATOM      2  C   UNL A   1     -22.289 -19.865   4.118  0.00  0.00    +0.076 A 
ATOM      3  C   UNL A   1     -21.848 -18.473   4.174  0.00  0.00    +0.020 A 
ATOM      4  C   UNL A   1     -21.576 -19.900   6.188  0.00  0.00    +0.060 A 
ATOM      5  C   UNL A   1     -21.266 -18.528   5.538  0.00  0.00    +0.019 A 
ENDROOT
BRANCH   1   6
ATOM      6  C   UNL A   1     -22.364 -21.964   5.112  0.00  0.00    +0.162 C 
ATOM      7  C   UNL A   1     -23.840 -22.297   5.116  0.00  0.00    +0.034 C 
BRANCH   6   9
ATOM      8  O   UNL A   1     -21.608 -22.993   3.304  0.00  0.00    -0.273 OA
ATOM      9  C   UNL A   1     -21.552 -22.862   4.448  0.00  0.00    +0.246 C 
ATOM     10  N   UNL A   1     -20.831 -23.786   5.318  0.00  0.00    -0.278 N 
ATOM     11  C   UNL A   1     -20.825 -23.811   6.744  0.00  0.00    +0.102 C 
ATOM     12  C   UNL A   1     -19.943 -24.417   7.213  0.00  0.00    +0.098 C 
ATOM     13  C   UNL A   1     -19.023 -25.237   6.626  0.00  0.00    +0.013 C 
ATOM     14  C   UNL A   1     -18.996 -25.202   5.246  0.00  0.00    +0.022 C 
ATOM     15  C   UNL A   1     -19.845 -24.406   4.552  0.00  0.00    +0.093 C 
BRANCH  12  16
ATOM     16  C   UNL A   1     -20.047 -24.592   8.799  0.00  0.00    +0.243 C 
ATOM     17  O   UNL A   1     -20.809 -23.919   9.395  0.00  0.00    -0.273 OA
ATOM     18  N   UNL A   1     -18.991 -25.104   9.478  0.00  0.00    -0.205 NA
BRANCH  18  19
ATOM     19  C   UNL A   1     -18.969 -25.149  10.949  0.00  0.00    +0.115 C 
ATOM     20  C   UNL A   1     -19.238 -26.226  11.539  0.00  0.00    +0.025 C 
ENDBRANCH  18  19
ENDBRANCH  12  16
ENDBRANCH   6   9
ENDBRANCH   1   6
BRANCH   4  21
ATOM     21  C   UNL A   1     -21.047 -20.219   7.410  0.00  0.00    +0.016 C 
ATOM     22  C   UNL A   1     -21.768 -20.543   8.506  0.00  0.00    +0.002 C 
BRANCH  21  23
ATOM     23  C   UNL A   1     -19.640 -20.543   7.475  0.00  0.00    +0.001 C 
ATOM     24  C   UNL A   1     -18.873 -20.809   6.331  0.00  0.00    +0.000 C 
BRANCH  24  25
ATOM     25  C   UNL A   1     -17.640 -21.426   6.424  0.00  0.00    +0.000 A 
ATOM     26  C   UNL A   1     -17.231 -21.758   7.748  0.00  0.00    +0.007 A 
ATOM     27  C   UNL A   1     -16.057 -22.461   7.888  0.00  0.00    +0.080 A 
ATOM     28  C   UNL A   1     -15.499 -23.113   6.786  0.00  0.00    +0.007 A 
ATOM     29  C   UNL A   1     -16.006 -22.977   5.499  0.00  0.00    +0.000 A 
ATOM     30  C   UNL A   1     -17.112 -22.191   5.301  0.00  0.00    +0.000 A 
BRANCH  27  31
ATOM     31  C   UNL A   1     -15.457 -22.676   9.195  0.00  0.00    +0.388 C 
ATOM     32  O   UNL A   1     -14.460 -22.233   9.415  0.00  0.00    -0.241 OA
ATOM     33  O   UNL A   1     -16.298 -22.919  10.232  0.00  0.00    -0.241 OA
ENDBRANCH  27  31
ENDBRANCH  24  25
ENDBRANCH  21  23
ENDBRANCH   4  21
TORSDOF 8
ENDMDL
ENDMDL
