REMARK  Name = No_43-gen_results/8p0m/2024-11-26-14-13-15/
REMARK  4 active torsions:
REMARK  status: ('A' for Active; 'I' for Inactive)
REMARK    1  A    between atoms: C_2  and  C_5
REMARK    2  A    between atoms: C_3  and  C_10
REMARK    3  A    between atoms: C_10  and  O_11
REMARK    4  A    between atoms: O_11  and  C_13
REMARK                            x       y       z     vdW  Elec       q    Type
REMARK                         _______ _______ _______ _____ _____    ______ ____
ROOT
ATOM      1  C   UNL A   1     -28.016  -0.814  28.878  0.00  0.00    +0.013 A 
ATOM      2  C   UNL A   1     -28.469  -0.785  29.829  0.00  0.00    +0.080 A 
ATOM      3  C   UNL A   1     -28.182   0.428  28.113  0.00  0.00    +0.076 A 
ATOM      4  C   UNL A   1     -28.984   1.415  28.515  0.00  0.00    +0.006 A 
ATOM      5  C   UNL A   1     -29.561   1.293  29.742  0.00  0.00    +0.000 A 
ATOM      6  C   UNL A   1     -29.320   0.165  30.445  0.00  0.00    +0.007 A 
ENDROOT
BRANCH   2   7
ATOM      7  C   UNL A   1     -28.337  -2.048  30.787  0.00  0.00    +0.388 C 
ATOM      8  O   UNL A   1     -28.829  -2.941  30.734  0.00  0.00    -0.241 OA
ATOM      9  O   UNL A   1     -27.232  -1.960  31.655  0.00  0.00    -0.241 OA
ENDBRANCH   2   7
BRANCH   3  10
ATOM     10  C   UNL A   1     -27.448   0.494  26.746  0.00  0.00    +0.346 C 
ATOM     11  O   UNL A   1     -28.091   0.808  25.716  0.00  0.00    -0.244 OA
BRANCH  10  12
ATOM     12  O   UNL A   1     -26.297   0.212  26.640  0.00  0.00    -0.421 OA
BRANCH  12  13
ATOM     13  C   UNL A   1     -25.241   1.161  26.858  0.00  0.00    +0.149 A 
ATOM     14  C   UNL A   1     -24.284   0.838  27.829  0.00  0.00    +0.038 A 
ATOM     15  C   UNL A   1     -23.163   1.701  27.969  0.00  0.00    +0.003 A 
ATOM     16  C   UNL A   1     -22.896   2.629  26.967  0.00  0.00    +0.000 A 
ATOM     17  C   UNL A   1     -23.798   2.733  25.883  0.00  0.00    +0.003 A 
ATOM     18  C   UNL A   1     -24.917   1.978  25.846  0.00  0.00    +0.038 A 
ENDBRANCH  12  13
ENDBRANCH  10  12
ENDBRANCH   3  10
TORSDOF 4
