REMARK  Name = No_430-gen_results/8p0m/2024-11-26-14-13-15/
REMARK  3 active torsions:
REMARK  status: ('A' for Active; 'I' for Inactive)
REMARK    1  A    between atoms: C_1  and  N_3
REMARK    2  A    between atoms: N_3  and  C_4
REMARK    3  A    between atoms: C_4  and  C_5
REMARK                            x       y       z     vdW  Elec       q    Type
REMARK                         _______ _______ _______ _____ _____    ______ ____
ROOT
ATOM      1  N   UNL A   1     -26.608  -0.945  28.857  0.00  0.00    -0.302 N 
ATOM      2  C   UNL A   1     -25.987  -2.068  29.634  0.00  0.00    +0.113 C 
ENDROOT
BRANCH   1   3
ATOM      3  C   UNL A   1     -28.016  -0.814  28.878  0.00  0.00    +0.048 A 
ATOM      4  C   UNL A   1     -28.469  -0.785  29.829  0.00  0.00    +0.015 A 
ATOM      5  C   UNL A   1     -29.840  -0.380  30.100  0.00  0.00    +0.001 A 
ATOM      6  C   UNL A   1     -30.546   0.006  28.957  0.00  0.00    +0.000 A 
ATOM      7  C   UNL A   1     -29.887   0.093  27.779  0.00  0.00    +0.001 A 
ATOM      8  C   UNL A   1     -28.531  -0.090  27.767  0.00  0.00    +0.015 A 
ENDBRANCH   1   3
BRANCH   1   9
ATOM      9  C   UNL A   1     -25.727  -0.359  27.999  0.00  0.00    +0.118 C 
BRANCH   9  10
ATOM     10  C   UNL A   1     -24.912   0.618  28.478  0.00  0.00    -0.002 A 
ATOM     11  C   UNL A   1     -23.941   1.248  27.528  0.00  0.00    -0.003 A 
ATOM     12  C   UNL A   1     -22.761   1.813  27.990  0.00  0.00    -0.000 A 
ATOM     13  C   UNL A   1     -21.995   0.942  28.655  0.00  0.00    -0.000 A 
ATOM     14  C   UNL A   1     -22.419  -0.151  29.124  0.00  0.00    -0.000 A 
ATOM     15  C   UNL A   1     -23.873  -0.305  29.247  0.00  0.00    -0.003 A 
ENDBRANCH   9  10
ENDBRANCH   1   9
TORSDOF 3
