REMARK  Name = No_4300-gen_results/8p0m/2024-11-26-14-13-15/
REMARK  0 active torsions:
REMARK  status: ('A' for Active; 'I' for Inactive)
REMARK                            x       y       z     vdW  Elec       q    Type
REMARK                         _______ _______ _______ _____ _____    ______ ____
ROOT
ATOM      1  O   UNL A   1     -28.123  -1.335  28.487  0.00  0.00    -0.272 OA
ATOM      2  C   UNL A   1     -27.481  -0.404  28.709  0.00  0.00    +0.262 C 
ATOM      3  C   UNL A   1     -27.190   0.246  29.527  0.00  0.00    +0.162 C 
ATOM      4  N   UNL A   1     -26.687  -0.000  27.442  0.00  0.00    -0.160 NA
ATOM      5 CL   UNL A   1     -27.944   0.020  31.114  0.00  0.00    -0.105 Cl
ATOM      6  C   UNL A   1     -25.881   0.741  27.369  0.00  0.00    +0.150 A 
ATOM      7  C   UNL A   1     -25.547   1.578  28.505  0.00  0.00    +0.013 A 
ATOM      8  C   UNL A   1     -26.175   1.361  29.679  0.00  0.00    +0.055 C 
ATOM      9  N   UNL A   1     -25.147   1.093  26.210  0.00  0.00    -0.228 NA
ATOM     10  C   UNL A   1     -24.070   1.958  26.147  0.00  0.00    +0.100 A 
ATOM     11  C   UNL A   1     -23.752   2.680  27.283  0.00  0.00    +0.021 A 
ATOM     12  C   UNL A   1     -24.416   2.566  28.381  0.00  0.00    +0.000 A 
ENDROOT
TORSDOF 0
