MODEL 4300
MODEL 1
REMARK VINA RESULT:    -5.420      0.000      0.000
REMARK INTER + INTRA:          -5.420
REMARK INTER:                  -5.420
REMARK INTRA:                   0.000
REMARK UNBOUND:                 0.000
REMARK  Name = No_4300-gen_results/8p0m/2024-11-26-14-13-15/
REMARK  0 active torsions:
REMARK  status: ('A' for Active; 'I' for Inactive)
REMARK                            x       y       z     vdW  Elec       q    Type
REMARK                         _______ _______ _______ _____ _____    ______ ____
ROOT
ATOM      1  O   UNL A   1     -21.802  -0.226  28.781  0.00  0.00    -0.272 OA
ATOM      2  C   UNL A   1     -22.760  -0.672  29.241  0.00  0.00    +0.262 C 
ATOM      3  C   UNL A   1     -23.663  -0.376  29.764  0.00  0.00    +0.162 C 
ATOM      4  N   UNL A   1     -22.840  -2.186  28.923  0.00  0.00    -0.160 NA
ATOM      5 CL   UNL A   1     -23.851   1.313  30.264  0.00  0.00    -0.105 Cl
ATOM      6  C   UNL A   1     -23.692  -2.857  29.086  0.00  0.00    +0.150 A 
ATOM      7  C   UNL A   1     -24.868  -2.392  29.796  0.00  0.00    +0.013 A 
ATOM      8  C   UNL A   1     -24.936  -1.095  30.163  0.00  0.00    +0.055 C 
ATOM      9  N   UNL A   1     -23.765  -4.237  28.776  0.00  0.00    -0.228 NA
ATOM     10  C   UNL A   1     -24.875  -5.053  28.898  0.00  0.00    +0.100 A 
ATOM     11  C   UNL A   1     -25.995  -4.533  29.522  0.00  0.00    +0.021 A 
ATOM     12  C   UNL A   1     -26.034  -3.330  29.979  0.00  0.00    +0.000 A 
ENDROOT
TORSDOF 0
ENDMDL
ENDMDL
