MODEL 4301
MODEL 1
REMARK VINA RESULT:    -4.353      0.000      0.000
REMARK INTER + INTRA:          -4.353
REMARK INTER:                  -4.353
REMARK INTRA:                   0.000
REMARK UNBOUND:                 0.000
REMARK  Name = No_4301-gen_results/8p0m/2024-11-26-14-13-15/
REMARK  0 active torsions:
REMARK  status: ('A' for Active; 'I' for Inactive)
REMARK                            x       y       z     vdW  Elec       q    Type
REMARK                         _______ _______ _______ _____ _____    ______ ____
ROOT
ATOM      1  C   UNL A   1     -24.168  -4.902  28.588  0.00  0.00    +0.000 A 
ATOM      2  C   UNL A   1     -25.017  -5.315  29.057  0.00  0.00    +0.000 A 
ATOM      3  C   UNL A   1     -24.066  -3.446  28.739  0.00  0.00    +0.000 A 
ATOM      4  C   UNL A   1     -25.050  -2.709  29.257  0.00  0.00    +0.000 A 
ATOM      5  C   UNL A   1     -26.199  -4.734  29.647  0.00  0.00    +0.000 A 
ATOM      6  C   UNL A   1     -26.096  -3.378  29.756  0.00  0.00    +0.000 A 
ENDROOT
TORSDOF 0
ENDMDL
ENDMDL
