MODEL 4302
MODEL 1
REMARK VINA RESULT:    -6.802      0.000      0.000
REMARK INTER + INTRA:          -8.800
REMARK INTER:                  -8.393
REMARK INTRA:                  -0.407
REMARK UNBOUND:                -0.407
REMARK  Name = No_4302-gen_results/8p0m/2024-11-26-14-13-15/
REMARK  4 active torsions:
REMARK  status: ('A' for Active; 'I' for Inactive)
REMARK    1  A    between atoms: C_2  and  O_13
REMARK    2  A    between atoms: C_9  and  C_11
REMARK    3  A    between atoms: O_13  and  C_14
REMARK    4  A    between atoms: C_14  and  C_15
REMARK                            x       y       z     vdW  Elec       q    Type
REMARK                         _______ _______ _______ _____ _____    ______ ____
ROOT
ATOM      1  C   UNL A   1     -10.313   1.568  35.403  0.00  0.00    +0.037 A 
ATOM      2  C   UNL A   1     -10.139   1.322  34.393  0.00  0.00    +0.139 A 
ATOM      3  C   UNL A   1     -11.721   2.013  35.731  0.00  0.00    +0.003 A 
ATOM      4  C   UNL A   1     -12.178   2.539  36.992  0.00  0.00    +0.001 A 
ATOM      5  C   UNL A   1     -11.055   1.112  33.264  0.00  0.00    +0.037 A 
ATOM      6  C   UNL A   1     -12.366   1.470  33.495  0.00  0.00    +0.003 A 
ATOM      7  C   UNL A   1     -12.758   1.902  34.736  0.00  0.00    +0.001 A 
ATOM      8  C   UNL A   1     -13.369   3.283  37.076  0.00  0.00    +0.010 A 
ATOM      9  C   UNL A   1     -14.360   3.083  36.085  0.00  0.00    +0.068 A 
ATOM     10  C   UNL A   1     -14.054   2.510  34.925  0.00  0.00    +0.010 A 
ENDROOT
BRANCH   9  11
ATOM     11  C   UNL A   1     -15.685   3.729  36.311  0.00  0.00    +0.100 C 
ATOM     12  N   UNL A   1     -16.767   3.975  35.991  0.00  0.00    -0.191 NA
ENDBRANCH   9  11
BRANCH   2  13
ATOM     13  O   UNL A   1      -8.812   0.852  34.073  0.00  0.00    -0.471 OA
BRANCH  13  14
ATOM     14  C   UNL A   1      -8.064   0.336  35.088  0.00  0.00    +0.232 C 
BRANCH  14  15
ATOM     15  C   UNL A   1      -7.114  -0.120  35.121  0.00  0.00    +0.021 A 
ATOM     16  C   UNL A   1      -5.863   0.090  35.249  0.00  0.00    -0.001 A 
ATOM     17  C   UNL A   1      -4.893  -0.231  35.043  0.00  0.00    -0.000 A 
ATOM     18  C   UNL A   1      -4.731  -1.654  34.564  0.00  0.00    -0.000 A 
ATOM     19  C   UNL A   1      -5.943  -2.262  34.321  0.00  0.00    -0.000 A 
ATOM     20  C   UNL A   1      -7.078  -1.592  34.509  0.00  0.00    -0.001 A 
ENDBRANCH  14  15
ENDBRANCH  13  14
ENDBRANCH   2  13
TORSDOF 4
ENDMDL
ENDMDL
