REMARK  Name = No_4302-gen_results/8p0m/2024-11-26-14-13-15/
REMARK  4 active torsions:
REMARK  status: ('A' for Active; 'I' for Inactive)
REMARK    1  A    between atoms: C_2  and  O_13
REMARK    2  A    between atoms: C_9  and  C_11
REMARK    3  A    between atoms: O_13  and  C_14
REMARK    4  A    between atoms: C_14  and  C_15
REMARK                            x       y       z     vdW  Elec       q    Type
REMARK                         _______ _______ _______ _____ _____    ______ ____
ROOT
ATOM      1  C   UNL A   1     -28.016  -0.814  28.878  0.00  0.00    +0.037 A 
ATOM      2  C   UNL A   1     -28.469  -0.785  29.829  0.00  0.00    +0.139 A 
ATOM      3  C   UNL A   1     -26.504  -0.778  28.877  0.00  0.00    +0.003 A 
ATOM      4  C   UNL A   1     -25.654  -0.660  27.719  0.00  0.00    +0.001 A 
ATOM      5  C   UNL A   1     -27.918  -0.937  31.182  0.00  0.00    +0.037 A 
ATOM      6  C   UNL A   1     -26.542  -0.940  31.261  0.00  0.00    +0.003 A 
ATOM      7  C   UNL A   1     -25.783  -0.893  30.120  0.00  0.00    +0.001 A 
ATOM      8  C   UNL A   1     -24.318  -0.237  27.844  0.00  0.00    +0.010 A 
ATOM      9  C   UNL A   1     -23.663  -0.428  29.085  0.00  0.00    +0.068 A 
ATOM     10  C   UNL A   1     -24.362  -0.646  30.194  0.00  0.00    +0.010 A 
ENDROOT
BRANCH   9  11
ATOM     11  C   UNL A   1     -22.197  -0.159  29.126  0.00  0.00    +0.100 C 
ATOM     12  N   UNL A   1     -21.246   0.368  28.736  0.00  0.00    -0.191 NA
ENDBRANCH   9  11
BRANCH   2  13
ATOM     13  O   UNL A   1     -29.911  -0.865  29.849  0.00  0.00    -0.471 OA
BRANCH  13  14
ATOM     14  C   UNL A   1     -30.599   0.256  30.202  0.00  0.00    +0.232 C 
BRANCH  14  15
ATOM     15  C   UNL A   1     -30.468   0.969  30.968  0.00  0.00    +0.021 A 
ATOM     16  C   UNL A   1     -30.862   2.094  31.420  0.00  0.00    -0.001 A 
ATOM     17  C   UNL A   1     -30.632   2.949  31.971  0.00  0.00    -0.000 A 
ATOM     18  C   UNL A   1     -29.403   2.887  32.846  0.00  0.00    -0.000 A 
ATOM     19  C   UNL A   1     -28.679   1.733  32.646  0.00  0.00    -0.000 A 
ATOM     20  C   UNL A   1     -29.089   0.831  31.756  0.00  0.00    -0.001 A 
ENDBRANCH  14  15
ENDBRANCH  13  14
ENDBRANCH   2  13
TORSDOF 4
