REMARK  Name = No_4303-gen_results/8p0m/2024-11-26-14-13-15/
REMARK  2 active torsions:
REMARK  status: ('A' for Active; 'I' for Inactive)
REMARK    1  A    between atoms: C_3  and  O_12
REMARK    2  A    between atoms: C_4  and  C_7
REMARK                            x       y       z     vdW  Elec       q    Type
REMARK                         _______ _______ _______ _____ _____    ______ ____
ROOT
ATOM      1  C   UNL A   1     -28.016  -0.814  28.878  0.00  0.00    +0.006 C 
ATOM      2  C   UNL A   1     -28.469  -0.785  29.829  0.00  0.00    -0.002 C 
ATOM      3  C   UNL A   1     -26.546  -0.876  28.850  0.00  0.00    +0.179 C 
ATOM      4  C   UNL A   1     -25.804  -1.032  30.057  0.00  0.00    +0.267 C 
ATOM      5  C   UNL A   1     -26.537  -1.039  31.217  0.00  0.00    +0.017 C 
ATOM      6  C   UNL A   1     -27.884  -0.953  31.186  0.00  0.00    -0.002 C 
ATOM      7  F   UNL A   1     -25.517  -2.052  29.811  0.00  0.00    -0.224 F 
ENDROOT
BRANCH   4   8
ATOM      8  C   UNL A   1     -24.366  -1.113  30.048  0.00  0.00    +0.431 C 
ATOM      9  F   UNL A   1     -23.904  -1.677  29.097  0.00  0.00    -0.167 F 
ATOM     10  F   UNL A   1     -23.796   0.158  30.019  0.00  0.00    -0.167 F 
ATOM     11  F   UNL A   1     -23.867  -1.650  31.217  0.00  0.00    -0.167 F 
ENDBRANCH   4   8
BRANCH   3  12
ATOM     12  O   UNL A   1     -25.999   0.231  28.303  0.00  0.00    -0.346 OA
ATOM     13  C   UNL A   1     -25.781   0.388  26.891  0.00  0.00    +0.175 C 
ENDBRANCH   3  12
TORSDOF 2
