MODEL 4303
MODEL 1
REMARK VINA RESULT:    -5.362      0.000      0.000
REMARK INTER + INTRA:          -6.117
REMARK INTER:                  -5.989
REMARK INTRA:                  -0.128
REMARK UNBOUND:                -0.128
REMARK  Name = No_4303-gen_results/8p0m/2024-11-26-14-13-15/
REMARK  2 active torsions:
REMARK  status: ('A' for Active; 'I' for Inactive)
REMARK    1  A    between atoms: C_3  and  O_12
REMARK    2  A    between atoms: C_4  and  C_7
REMARK                            x       y       z     vdW  Elec       q    Type
REMARK                         _______ _______ _______ _____ _____    ______ ____
ROOT
ATOM      1  C   UNL A   1     -31.539 -14.778  10.122  0.00  0.00    +0.006 C 
ATOM      2  C   UNL A   1     -30.982 -15.566  10.546  0.00  0.00    -0.002 C 
ATOM      3  C   UNL A   1     -31.467 -13.477  10.807  0.00  0.00    +0.179 C 
ATOM      4  C   UNL A   1     -30.573 -13.281  11.899  0.00  0.00    +0.267 C 
ATOM      5  C   UNL A   1     -29.865 -14.385  12.302  0.00  0.00    +0.017 C 
ATOM      6  C   UNL A   1     -29.989 -15.563  11.654  0.00  0.00    -0.002 C 
ATOM      7  F   UNL A   1     -29.921 -12.633  11.317  0.00  0.00    -0.224 F 
ENDROOT
BRANCH   4   8
ATOM      8  C   UNL A   1     -30.475 -12.010  12.569  0.00  0.00    +0.431 C 
ATOM      9  F   UNL A   1     -31.000 -11.972  13.646  0.00  0.00    -0.167 F 
ATOM     10  F   UNL A   1     -29.144 -11.675  12.811  0.00  0.00    -0.167 F 
ATOM     11  F   UNL A   1     -30.918 -10.969  11.779  0.00  0.00    -0.167 F 
ENDBRANCH   4   8
BRANCH   3  12
ATOM     12  O   UNL A   1     -32.658 -13.106  11.324  0.00  0.00    -0.346 OA
ATOM     13  C   UNL A   1     -33.908 -13.292  10.639  0.00  0.00    +0.175 C 
ENDBRANCH   3  12
TORSDOF 2
ENDMDL
ENDMDL
