REMARK  Name = No_4304-gen_results/8p0m/2024-11-26-14-13-15/
REMARK  11 active torsions:
REMARK  status: ('A' for Active; 'I' for Inactive)
REMARK    1  A    between atoms: C_2  and  O_26
REMARK    2  A    between atoms: C_3  and  C_8
REMARK    3  A    between atoms: C_6  and  O_7
REMARK    4  A    between atoms: O_7  and  C_14
REMARK    5  A    between atoms: C_10  and  O_22
REMARK    6  A    between atoms: C_14  and  C_15
REMARK    7  A    between atoms: O_26  and  C_27
REMARK    8  A    between atoms: C_27  and  C_28
REMARK    9  A    between atoms: C_28  and  C_29
REMARK   10  A    between atoms: C_29  and  C_30
REMARK   11  A    between atoms: C_29  and  C_33
REMARK                            x       y       z     vdW  Elec       q    Type
REMARK                         _______ _______ _______ _____ _____    ______ ____
ROOT
ATOM      1  C   UNL A   1     -28.016  -0.814  28.878  0.00  0.00    +0.074 A 
ATOM      2  C   UNL A   1     -27.064  -0.119  28.608  0.00  0.00    +0.141 A 
ATOM      3  C   UNL A   1     -25.765  -0.390  29.036  0.00  0.00    +0.034 A 
ATOM      4  C   UNL A   1     -25.530  -1.530  29.901  0.00  0.00    +0.006 A 
ATOM      5  C   UNL A   1     -26.689  -2.289  30.181  0.00  0.00    +0.038 A 
ATOM      6  C   UNL A   1     -27.873  -1.951  29.737  0.00  0.00    +0.152 A 
ENDROOT
BRANCH   3   7
ATOM      7  C   UNL A   1     -24.539   0.421  28.742  0.00  0.00    +0.006 A 
ATOM      8  C   UNL A   1     -24.526   1.274  27.727  0.00  0.00    +0.037 A 
ATOM      9  C   UNL A   1     -23.317   1.986  27.403  0.00  0.00    +0.139 A 
ATOM     10  C   UNL A   1     -22.131   1.737  28.050  0.00  0.00    +0.037 A 
ATOM     11  C   UNL A   1     -23.298   0.137  29.377  0.00  0.00    +0.000 A 
ATOM     12  C   UNL A   1     -22.101   0.819  29.041  0.00  0.00    +0.003 A 
BRANCH   9  13
ATOM     13  O   UNL A   1     -23.390   2.895  26.381  0.00  0.00    -0.471 OA
ATOM     14  C   UNL A   1     -24.097   3.874  26.377  0.00  0.00    +0.253 C 
ENDBRANCH   9  13
ENDBRANCH   3   7
BRANCH   6  15
ATOM     15  O   UNL A   1     -28.930  -2.730  30.115  0.00  0.00    -0.421 OA
BRANCH  15  16
ATOM     16  C   UNL A   1     -30.065  -2.218  30.572  0.00  0.00    +0.346 C 
ATOM     17  O   UNL A   1     -30.685  -1.313  30.063  0.00  0.00    -0.244 OA
BRANCH  16  18
ATOM     18  C   UNL A   1     -30.468  -2.914  31.715  0.00  0.00    +0.078 A 
ATOM     19  C   UNL A   1     -29.611  -3.642  32.433  0.00  0.00    +0.009 A 
ATOM     20  C   UNL A   1     -31.882  -2.852  32.108  0.00  0.00    +0.038 A 
ATOM     21  C   UNL A   1     -29.983  -4.440  33.145  0.00  0.00    +0.032 A 
ATOM     22  C   UNL A   1     -32.263  -3.745  33.121  0.00  0.00    +0.168 A 
ATOM     23  C   UNL A   1     -31.300  -4.577  33.727  0.00  0.00    +0.167 A 
ATOM     24  F   UNL A   1     -33.514  -3.761  33.527  0.00  0.00    -0.202 F 
ATOM     25  F   UNL A   1     -31.682  -5.406  34.664  0.00  0.00    -0.202 F 
ENDBRANCH  16  18
ENDBRANCH  15  16
ENDBRANCH   6  15
BRANCH   2  26
ATOM     26  O   UNL A   1     -27.296   1.023  27.893  0.00  0.00    -0.475 OA
BRANCH  26  27
ATOM     27  C   UNL A   1     -28.485   1.602  27.822  0.00  0.00    +0.206 C 
BRANCH  27  28
ATOM     28  C   UNL A   1     -28.841   2.593  28.680  0.00  0.00    +0.056 C 
BRANCH  28  29
ATOM     29  C   UNL A   1     -27.898   3.439  29.061  0.00  0.00    +0.047 C 
BRANCH  29  30
ATOM     30  C   UNL A   1     -27.358   4.418  28.191  0.00  0.00    -0.026 C 
ATOM     31  C   UNL A   1     -27.518   5.673  28.578  0.00  0.00    -0.030 C 
ATOM     32  C   UNL A   1     -27.313   6.730  27.626  0.00  0.00    +0.030 C 
ENDBRANCH  29  30
BRANCH  29  33
ATOM     33  C   UNL A   1     -27.180   3.292  30.357  0.00  0.00    -0.022 C 
ATOM     34  C   UNL A   1     -26.972   4.580  31.056  0.00  0.00    -0.005 C 
ENDBRANCH  29  33
ENDBRANCH  28  29
ENDBRANCH  27  28
ENDBRANCH  26  27
ENDBRANCH   2  26
TORSDOF 11
