MODEL 4304
MODEL 1
REMARK VINA RESULT:    -7.182      0.000      0.000
REMARK INTER + INTRA:         -14.299
REMARK INTER:                 -11.801
REMARK INTRA:                  -2.498
REMARK UNBOUND:                -2.498
REMARK  Name = No_4304-gen_results/8p0m/2024-11-26-14-13-15/
REMARK  11 active torsions:
REMARK  status: ('A' for Active; 'I' for Inactive)
REMARK    1  A    between atoms: C_2  and  O_26
REMARK    2  A    between atoms: C_3  and  C_8
REMARK    3  A    between atoms: C_6  and  O_7
REMARK    4  A    between atoms: O_7  and  C_14
REMARK    5  A    between atoms: C_10  and  O_22
REMARK    6  A    between atoms: C_14  and  C_15
REMARK    7  A    between atoms: O_26  and  C_27
REMARK    8  A    between atoms: C_27  and  C_28
REMARK    9  A    between atoms: C_28  and  C_29
REMARK   10  A    between atoms: C_29  and  C_30
REMARK   11  A    between atoms: C_29  and  C_33
REMARK                            x       y       z     vdW  Elec       q    Type
REMARK                         _______ _______ _______ _____ _____    ______ ____
ROOT
ATOM      1  C   UNL A   1     -10.783   0.845  36.693  0.00  0.00    +0.074 A 
ATOM      2  C   UNL A   1      -9.701   0.309  36.625  0.00  0.00    +0.141 A 
ATOM      3  C   UNL A   1      -8.901   0.328  35.483  0.00  0.00    +0.034 A 
ATOM      4  C   UNL A   1      -9.400   0.971  34.283  0.00  0.00    +0.006 A 
ATOM      5  C   UNL A   1     -10.673   1.566  34.435  0.00  0.00    +0.038 A 
ATOM      6  C   UNL A   1     -11.354   1.490  35.549  0.00  0.00    +0.152 A 
ENDROOT
BRANCH   3   7
ATOM      7  C   UNL A   1      -7.554  -0.310  35.324  0.00  0.00    +0.006 A 
ATOM      8  C   UNL A   1      -6.457   0.336  35.696  0.00  0.00    +0.037 A 
ATOM      9  C   UNL A   1      -5.164  -0.252  35.462  0.00  0.00    +0.139 A 
ATOM     10  C   UNL A   1      -5.014  -1.427  34.767  0.00  0.00    +0.037 A 
ATOM     11  C   UNL A   1      -7.389  -1.503  34.567  0.00  0.00    +0.000 A 
ATOM     12  C   UNL A   1      -6.113  -2.069  34.313  0.00  0.00    +0.003 A 
BRANCH   9  13
ATOM     13  O   UNL A   1      -4.077   0.442  35.924  0.00  0.00    -0.471 OA
ATOM     14  C   UNL A   1      -3.083   0.678  35.280  0.00  0.00    +0.253 C 
ENDBRANCH   9  13
ENDBRANCH   3   7
BRANCH   6  15
ATOM     15  O   UNL A   1     -12.597   2.058  35.564  0.00  0.00    -0.421 OA
BRANCH  15  16
ATOM     16  C   UNL A   1     -12.839   3.228  36.140  0.00  0.00    +0.346 C 
ATOM     17  O   UNL A   1     -12.100   4.185  36.127  0.00  0.00    -0.244 OA
BRANCH  16  18
ATOM     18  C   UNL A   1     -14.105   3.208  36.731  0.00  0.00    +0.078 A 
ATOM     19  C   UNL A   1     -15.213   3.452  36.028  0.00  0.00    +0.009 A 
ATOM     20  C   UNL A   1     -14.199   2.935  38.171  0.00  0.00    +0.038 A 
ATOM     21  C   UNL A   1     -16.175   3.748  36.546  0.00  0.00    +0.032 A 
ATOM     22  C   UNL A   1     -15.463   3.152  38.742  0.00  0.00    +0.168 A 
ATOM     23  C   UNL A   1     -16.546   3.544  37.929  0.00  0.00    +0.167 A 
ATOM     24  F   UNL A   1     -15.632   2.939  40.028  0.00  0.00    -0.202 F 
ATOM     25  F   UNL A   1     -17.712   3.747  38.487  0.00  0.00    -0.202 F 
ENDBRANCH  16  18
ENDBRANCH  15  16
ENDBRANCH   6  15
BRANCH   2  26
ATOM     26  O   UNL A   1      -9.276  -0.401  37.714  0.00  0.00    -0.475 OA
BRANCH  26  27
ATOM     27  C   UNL A   1      -9.434   0.022  38.959  0.00  0.00    +0.206 C 
BRANCH  27  28
ATOM     28  C   UNL A   1      -9.913  -0.798  39.929  0.00  0.00    +0.056 C 
BRANCH  28  29
ATOM     29  C   UNL A   1     -11.216  -1.027  39.947  0.00  0.00    +0.047 C 
BRANCH  29  30
ATOM     30  C   UNL A   1     -12.156  -0.043  40.339  0.00  0.00    -0.026 C 
ATOM     31  C   UNL A   1     -12.735  -0.244  41.511  0.00  0.00    -0.030 C 
ATOM     32  C   UNL A   1     -13.922   0.496  41.841  0.00  0.00    +0.030 C 
ENDBRANCH  29  30
BRANCH  29  33
ATOM     33  C   UNL A   1     -11.782  -2.393  39.766  0.00  0.00    -0.022 C 
ATOM     34  C   UNL A   1     -12.176  -2.678  38.368  0.00  0.00    -0.005 C 
ENDBRANCH  29  33
ENDBRANCH  28  29
ENDBRANCH  27  28
ENDBRANCH  26  27
ENDBRANCH   2  26
TORSDOF 11
ENDMDL
ENDMDL
