REMARK  Name = No_4305-gen_results/8p0m/2024-11-26-14-13-15/
REMARK  1 active torsions:
REMARK  status: ('A' for Active; 'I' for Inactive)
REMARK    1  A    between atoms: C_3  and  C_5
REMARK                            x       y       z     vdW  Elec       q    Type
REMARK                         _______ _______ _______ _____ _____    ______ ____
ROOT
ATOM      1  O   UNL A   1     -28.123  -1.335  28.487  0.00  0.00    -0.273 OA
ATOM      2  C   UNL A   1     -27.481  -0.404  28.709  0.00  0.00    +0.252 C 
ATOM      3  C   UNL A   1     -27.190   0.246  29.527  0.00  0.00    +0.149 C 
ATOM      4  N   UNL A   1     -26.687  -0.000  27.442  0.00  0.00    -0.161 NA
ATOM      5  C   UNL A   1     -25.751   1.005  27.434  0.00  0.00    +0.150 A 
ATOM      6  C   UNL A   1     -25.561   1.691  28.612  0.00  0.00    +0.012 A 
ATOM      7  C   UNL A   1     -26.156   1.368  29.681  0.00  0.00    +0.044 C 
ATOM      8  N   UNL A   1     -25.131   1.307  26.276  0.00  0.00    -0.228 NA
ATOM      9  C   UNL A   1     -24.096   2.260  26.285  0.00  0.00    +0.100 A 
ATOM     10  C   UNL A   1     -23.855   2.996  27.412  0.00  0.00    +0.021 A 
ATOM     11  C   UNL A   1     -24.501   2.738  28.512  0.00  0.00    +0.000 A 
ENDROOT
BRANCH   3  12
ATOM     12  C   UNL A   1     -27.651   0.126  30.880  0.00  0.00    +0.327 C 
ATOM     13  F   UNL A   1     -28.269  -0.909  31.019  0.00  0.00    -0.198 F 
ATOM     14  F   UNL A   1     -28.071   0.846  31.727  0.00  0.00    -0.198 F 
ENDBRANCH   3  12
TORSDOF 1
