MODEL 4305
MODEL 1
REMARK VINA RESULT:    -6.270      0.000      0.000
REMARK INTER + INTRA:          -6.819
REMARK INTER:                  -6.636
REMARK INTRA:                  -0.182
REMARK UNBOUND:                -0.182
REMARK  Name = No_4305-gen_results/8p0m/2024-11-26-14-13-15/
REMARK  1 active torsions:
REMARK  status: ('A' for Active; 'I' for Inactive)
REMARK    1  A    between atoms: C_3  and  C_5
REMARK                            x       y       z     vdW  Elec       q    Type
REMARK                         _______ _______ _______ _____ _____    ______ ____
ROOT
ATOM      1  O   UNL A   1     -27.023  -3.856  29.782  0.00  0.00    -0.273 OA
ATOM      2  C   UNL A   1     -25.960  -3.434  29.635  0.00  0.00    +0.252 C 
ATOM      3  C   UNL A   1     -24.972  -3.732  29.302  0.00  0.00    +0.149 C 
ATOM      4  N   UNL A   1     -25.959  -1.909  29.906  0.00  0.00    -0.161 NA
ATOM      5  C   UNL A   1     -24.858  -1.113  29.701  0.00  0.00    +0.150 A 
ATOM      6  C   UNL A   1     -23.709  -1.736  29.271  0.00  0.00    +0.012 A 
ATOM      7  C   UNL A   1     -23.676  -2.971  28.996  0.00  0.00    +0.044 C 
ATOM      8  N   UNL A   1     -24.942   0.200  29.994  0.00  0.00    -0.228 NA
ATOM      9  C   UNL A   1     -23.855   1.038  29.684  0.00  0.00    +0.100 A 
ATOM     10  C   UNL A   1     -22.671   0.495  29.267  0.00  0.00    +0.021 A 
ATOM     11  C   UNL A   1     -22.581  -0.784  29.043  0.00  0.00    +0.000 A 
ENDROOT
BRANCH   3  12
ATOM     12  C   UNL A   1     -24.607  -5.052  28.878  0.00  0.00    +0.327 C 
ATOM     13  F   UNL A   1     -23.640  -5.003  28.147  0.00  0.00    -0.198 F 
ATOM     14  F   UNL A   1     -25.164  -6.058  28.576  0.00  0.00    -0.198 F 
ENDBRANCH   3  12
TORSDOF 1
ENDMDL
ENDMDL
