MODEL 4306
MODEL 1
REMARK VINA RESULT:    -7.277      0.000      0.000
REMARK INTER + INTRA:         -10.485
REMARK INTER:                  -9.829
REMARK INTRA:                  -0.656
REMARK UNBOUND:                -0.656
REMARK  Name = No_4306-gen_results/8p0m/2024-11-26-14-13-15/
REMARK  6 active torsions:
REMARK  status: ('A' for Active; 'I' for Inactive)
REMARK    1  A    between atoms: C_3  and  C_5
REMARK    2  A    between atoms: C_6  and  N_14
REMARK    3  A    between atoms: C_15  and  C_16
REMARK    4  A    between atoms: C_25  and  C_26
REMARK    5  A    between atoms: C_26  and  N_27
REMARK    6  A    between atoms: C_28  and  C_29
REMARK                            x       y       z     vdW  Elec       q    Type
REMARK                         _______ _______ _______ _____ _____    ______ ____
ROOT
ATOM      1  C   UNL A   1     -25.514   1.727  26.283  0.00  0.00    -0.014 A 
ATOM      2  C   UNL A   1     -24.554   2.497  26.238  0.00  0.00    -0.004 A 
ATOM      3  C   UNL A   1     -23.180   2.253  26.687  0.00  0.00    -0.000 A 
ATOM      4  C   UNL A   1     -23.026   1.042  27.388  0.00  0.00    +0.000 A 
ATOM      5  C   UNL A   1     -24.055   0.180  27.518  0.00  0.00    +0.004 A 
ATOM      6  C   UNL A   1     -25.270   0.460  26.970  0.00  0.00    -0.004 A 
ATOM      7  C   UNL A   1     -21.656   0.757  27.956  0.00  0.00    +0.000 A 
ATOM      8  C   UNL A   1     -21.584  -0.027  28.900  0.00  0.00    +0.000 A 
ATOM      9  C   UNL A   1     -22.693  -1.045  29.097  0.00  0.00    +0.005 A 
ATOM     10  C   UNL A   1     -23.919  -0.874  28.549  0.00  0.00    +0.055 A 
ENDROOT
BRANCH   1  13
ATOM     11  O   UNL A   1     -27.487   3.738  26.631  0.00  0.00    -0.273 OA
ATOM     12  C   UNL A   1     -27.343   2.932  25.820  0.00  0.00    +0.246 C 
ATOM     13  C   UNL A   1     -26.669   2.132  25.534  0.00  0.00    +0.101 C 
ATOM     14  N   UNL A   1     -28.459   3.002  24.756  0.00  0.00    -0.185 NA
ATOM     15  C   UNL A   1     -28.624   2.083  23.759  0.00  0.00    +0.190 C 
ATOM     16  C   UNL A   1     -27.643   1.127  23.643  0.00  0.00    +0.045 C 
ATOM     17  C   UNL A   1     -26.696   1.024  24.478  0.00  0.00    +0.017 C 
BRANCH  15  18
ATOM     18  N   UNL A   1     -29.664   2.220  22.910  0.00  0.00    -0.180 NA
ATOM     19  C   UNL A   1     -30.725   1.624  23.095  0.00  0.00    +0.284 C 
ATOM     20  O   UNL A   1     -31.771   1.845  22.406  0.00  0.00    -0.267 OA
BRANCH  19  21
ATOM     21  C   UNL A   1     -30.828   0.466  23.955  0.00  0.00    +0.136 A 
ATOM     22  C   UNL A   1     -30.808  -0.870  23.462  0.00  0.00    +0.025 A 
ATOM     23  C   UNL A   1     -30.968  -1.863  24.473  0.00  0.00    +0.022 A 
ATOM     24  C   UNL A   1     -31.581  -1.475  25.698  0.00  0.00    +0.099 A 
ATOM     25  N   UNL A   1     -31.458   0.343  25.237  0.00  0.00    -0.239 NA
ENDBRANCH  19  21
ENDBRANCH  15  18
ENDBRANCH   1  13
BRANCH  10  26
ATOM     26  C   UNL A   1     -25.026  -1.790  28.804  0.00  0.00    +0.269 C 
ATOM     27  O   UNL A   1     -24.990  -3.041  28.553  0.00  0.00    -0.268 OA
BRANCH  26  28
ATOM     28  N   UNL A   1     -26.167  -1.324  29.333  0.00  0.00    -0.174 NA
ATOM     29  C   UNL A   1     -26.202  -1.025  30.699  0.00  0.00    +0.089 C 
BRANCH  29  30
ATOM     30  C   UNL A   1     -25.071  -1.364  31.473  0.00  0.00    +0.018 C 
ATOM     31  C   UNL A   1     -24.766  -0.655  32.654  0.00  0.00    +0.001 C 
ENDBRANCH  29  30
ENDBRANCH  26  28
ENDBRANCH  10  26
TORSDOF 6
ENDMDL
ENDMDL
