MODEL 4307
MODEL 1
REMARK VINA RESULT:    -6.013      0.000      0.000
REMARK INTER + INTRA:          -8.517
REMARK INTER:                  -7.771
REMARK INTRA:                  -0.746
REMARK UNBOUND:                -0.746
REMARK  Name = No_4307-gen_results/8p0m/2024-11-26-14-13-15/
REMARK  5 active torsions:
REMARK  status: ('A' for Active; 'I' for Inactive)
REMARK    1  A    between atoms: C_2  and  C_5
REMARK    2  A    between atoms: C_5  and  N_8
REMARK    3  A    between atoms: C_5  and  C_9
REMARK    4  A    between atoms: C_9  and  C_12
REMARK    5  A    between atoms: C_13  and  C_14
REMARK                            x       y       z     vdW  Elec       q    Type
REMARK                         _______ _______ _______ _____ _____    ______ ____
ROOT
ATOM      1  C   UNL A   1     -24.180  -1.363  29.504  0.00  0.00    +0.085 C 
ENDROOT
BRANCH   1   3
ATOM      2  C   UNL A   1     -23.785  -3.440  28.754  0.00  0.00    -0.003 A 
ATOM      3  C   UNL A   1     -24.492  -2.876  29.295  0.00  0.00    -0.007 A 
ATOM      4  C   UNL A   1     -24.169  -4.839  28.569  0.00  0.00    -0.000 A 
ATOM      5  C   UNL A   1     -25.354  -5.340  29.048  0.00  0.00    -0.000 A 
ATOM      6  C   UNL A   1     -26.207  -4.449  29.725  0.00  0.00    -0.000 A 
ATOM      7  C   UNL A   1     -25.829  -3.109  29.840  0.00  0.00    -0.003 A 
ENDBRANCH   1   3
BRANCH   1   8
ATOM      8  N   UNL A   1     -23.139  -0.859  30.025  0.00  0.00    -0.268 NA
ATOM      9  C   UNL A   1     -23.063  -0.739  31.463  0.00  0.00    +0.090 C 
ATOM     10  C   UNL A   1     -21.972  -0.433  29.411  0.00  0.00    +0.090 C 
ENDBRANCH   1   8
BRANCH   1  11
ATOM     11  C   UNL A   1     -25.158  -0.298  29.131  0.00  0.00    +0.046 C 
BRANCH  11  12
ATOM     12  C   UNL A   1     -25.323  -0.144  27.740  0.00  0.00    -0.024 C 
ATOM     13  C   UNL A   1     -24.724   0.354  27.000  0.00  0.00    -0.004 C 
BRANCH  13  14
ATOM     14  C   UNL A   1     -24.863   0.361  25.523  0.00  0.00    -0.000 C 
ATOM     15  C   UNL A   1     -25.697  -0.431  24.776  0.00  0.00    -0.000 C 
ENDBRANCH  13  14
ENDBRANCH  11  12
ENDBRANCH   1  11
TORSDOF 5
ENDMDL
ENDMDL
