REMARK  Name = No_4307-gen_results/8p0m/2024-11-26-14-13-15/
REMARK  5 active torsions:
REMARK  status: ('A' for Active; 'I' for Inactive)
REMARK    1  A    between atoms: C_2  and  C_5
REMARK    2  A    between atoms: C_5  and  N_8
REMARK    3  A    between atoms: C_5  and  C_9
REMARK    4  A    between atoms: C_9  and  C_12
REMARK    5  A    between atoms: C_13  and  C_14
REMARK                            x       y       z     vdW  Elec       q    Type
REMARK                         _______ _______ _______ _____ _____    ______ ____
ROOT
ATOM      1  C   UNL A   1     -29.444  -1.948  30.184  0.00  0.00    +0.085 C 
ENDROOT
BRANCH   1   3
ATOM      2  C   UNL A   1     -28.016  -0.814  28.878  0.00  0.00    -0.003 A 
ATOM      3  C   UNL A   1     -28.469  -0.785  29.829  0.00  0.00    -0.007 A 
ATOM      4  C   UNL A   1     -27.087   0.290  28.638  0.00  0.00    -0.000 A 
ATOM      5  C   UNL A   1     -26.832   1.249  29.587  0.00  0.00    -0.000 A 
ATOM      6  C   UNL A   1     -27.496   1.130  30.822  0.00  0.00    -0.000 A 
ATOM      7  C   UNL A   1     -28.338   0.036  31.033  0.00  0.00    -0.003 A 
ENDBRANCH   1   3
BRANCH   1   8
ATOM      8  N   UNL A   1     -29.156  -3.177  30.319  0.00  0.00    -0.268 NA
ATOM      9  C   UNL A   1     -27.767  -3.574  30.329  0.00  0.00    +0.090 C 
ATOM     10  C   UNL A   1     -30.001  -4.255  30.529  0.00  0.00    +0.090 C 
ENDBRANCH   1   8
BRANCH   1  11
ATOM     11  C   UNL A   1     -30.909  -1.723  30.363  0.00  0.00    +0.046 C 
BRANCH  11  12
ATOM     12  C   UNL A   1     -31.288  -0.369  30.269  0.00  0.00    -0.024 C 
ATOM     13  C   UNL A   1     -32.086   0.115  29.736  0.00  0.00    -0.004 C 
BRANCH  13  14
ATOM     14  C   UNL A   1     -32.535   1.528  29.788  0.00  0.00    -0.000 C 
ATOM     15  C   UNL A   1     -33.510   2.105  29.016  0.00  0.00    -0.000 C 
ENDBRANCH  13  14
ENDBRANCH  11  12
ENDBRANCH   1  11
TORSDOF 5
