MODEL 4308
MODEL 1
REMARK VINA RESULT:    -6.785      0.000      0.000
REMARK INTER + INTRA:          -8.063
REMARK INTER:                  -7.578
REMARK INTRA:                  -0.485
REMARK UNBOUND:                -0.485
REMARK  Name = No_4308-gen_results/8p0m/2024-11-26-14-13-15/
REMARK  2 active torsions:
REMARK  status: ('A' for Active; 'I' for Inactive)
REMARK    1  A    between atoms: C_4  and  C_7
REMARK    2  A    between atoms: C_9  and  C_10
REMARK                            x       y       z     vdW  Elec       q    Type
REMARK                         _______ _______ _______ _____ _____    ______ ____
ROOT
ATOM      1  C   UNL A   1     -23.800  -1.524  29.537  0.00  0.00    +0.000 A 
ATOM      2  C   UNL A   1     -23.254  -0.887  28.623  0.00  0.00    +0.000 A 
ATOM      3  C   UNL A   1     -23.191   0.509  28.593  0.00  0.00    +0.000 A 
ATOM      4  C   UNL A   1     -23.740  -0.914  30.940  0.00  0.00    +0.000 A 
ATOM      5  C   UNL A   1     -23.520   0.488  31.005  0.00  0.00    +0.000 A 
ATOM      6  C   UNL A   1     -23.374   1.223  29.889  0.00  0.00    +0.000 A 
ENDROOT
BRANCH   1  10
ATOM      7  C   UNL A   1     -26.549  -4.205  29.834  0.00  0.00    +0.000 A 
ATOM      8  C   UNL A   1     -26.007  -5.016  29.436  0.00  0.00    +0.000 A 
ATOM      9  C   UNL A   1     -25.827  -2.928  29.960  0.00  0.00    +0.000 A 
ATOM     10  C   UNL A   1     -24.511  -2.785  29.432  0.00  0.00    +0.000 A 
ATOM     11  C   UNL A   1     -23.955  -3.915  28.887  0.00  0.00    +0.000 A 
ATOM     12  C   UNL A   1     -24.654  -5.069  28.821  0.00  0.00    +0.000 A 
ENDBRANCH   1  10
BRANCH   3  13
ATOM     13  C   UNL A   1     -23.009   1.311  27.460  0.00  0.00    +0.000 C 
ATOM     14  C   UNL A   1     -21.551   1.727  27.403  0.00  0.00    +0.000 C 
ENDBRANCH   3  13
TORSDOF 2
ENDMDL
ENDMDL
