REMARK  Name = No_4309-gen_results/8p0m/2024-11-26-14-13-15/
REMARK  6 active torsions:
REMARK  status: ('A' for Active; 'I' for Inactive)
REMARK    1  A    between atoms: C_1  and  C_2
REMARK    2  A    between atoms: C_5  and  C_16
REMARK    3  A    between atoms: N_8  and  C_9
REMARK    4  A    between atoms: N_8  and  C_19
REMARK    5  A    between atoms: C_19  and  C_20
REMARK    6  A    between atoms: C_24  and  C_26
REMARK                            x       y       z     vdW  Elec       q    Type
REMARK                         _______ _______ _______ _____ _____    ______ ____
ROOT
ATOM      1  C   UNL A   1     -28.016  -0.814  28.878  0.00  0.00    +0.253 C 
ATOM      2  N   UNL A   1     -29.170  -0.298  28.947  0.00  0.00    -0.251 N 
ATOM      3  O   UNL A   1     -27.821  -1.875  29.548  0.00  0.00    -0.270 OA
ENDROOT
BRANCH   1   4
ATOM      4  C   UNL A   1     -27.064  -0.119  28.608  0.00  0.00    +0.054 A 
ATOM      5  C   UNL A   1     -26.929   1.171  29.008  0.00  0.00    +0.004 A 
ATOM      6  C   UNL A   1     -25.770   2.034  28.688  0.00  0.00    +0.001 A 
ATOM      7  C   UNL A   1     -24.714   1.443  27.919  0.00  0.00    +0.044 A 
ATOM      8  C   UNL A   1     -24.859   0.078  27.584  0.00  0.00    +0.001 A 
ATOM      9  C   UNL A   1     -25.965  -0.661  27.916  0.00  0.00    +0.004 A 
BRANCH   7  10
ATOM     10  C   UNL A   1     -23.486   2.111  27.614  0.00  0.00    +0.341 C 
ATOM     11  F   UNL A   1     -22.561   1.627  27.538  0.00  0.00    -0.193 F 
ATOM     12  F   UNL A   1     -23.716   3.355  27.234  0.00  0.00    -0.193 F 
ENDBRANCH   7  10
ENDBRANCH   1   4
BRANCH   2  13
ATOM     13  C   UNL A   1     -29.722   0.373  28.043  0.00  0.00    +0.054 A 
ATOM     14  C   UNL A   1     -29.507   0.775  27.152  0.00  0.00    +0.015 A 
ATOM     15  C   UNL A   1     -30.281   1.499  26.122  0.00  0.00    +0.001 A 
ATOM     16  C   UNL A   1     -31.289   0.418  28.329  0.00  0.00    +0.015 A 
ATOM     17  C   UNL A   1     -32.097   1.109  27.487  0.00  0.00    +0.001 A 
ATOM     18  C   UNL A   1     -31.572   1.664  26.377  0.00  0.00    +0.000 A 
ENDBRANCH   2  13
BRANCH   2  19
ATOM     19  C   UNL A   1     -29.774  -0.346  30.371  0.00  0.00    +0.125 C 
BRANCH  19  20
ATOM     20  C   UNL A   1     -30.414  -1.442  30.735  0.00  0.00    -0.002 A 
ATOM     21  C   UNL A   1     -31.024  -1.496  31.967  0.00  0.00    -0.003 A 
ATOM     22  C   UNL A   1     -31.621  -2.707  32.392  0.00  0.00    -0.000 A 
ATOM     23  C   UNL A   1     -31.575  -3.807  31.547  0.00  0.00    +0.007 A 
ATOM     24  C   UNL A   1     -30.925  -3.790  30.331  0.00  0.00    +0.080 A 
ATOM     25  C   UNL A   1     -30.304  -2.611  29.930  0.00  0.00    +0.004 A 
BRANCH  24  26
ATOM     26  C   UNL A   1     -30.854  -4.982  29.478  0.00  0.00    +0.388 C 
ATOM     27  O   UNL A   1     -30.049  -5.031  28.651  0.00  0.00    -0.241 OA
ATOM     28  O   UNL A   1     -31.926  -5.709  29.470  0.00  0.00    -0.241 OA
ENDBRANCH  24  26
ENDBRANCH  19  20
ENDBRANCH   2  19
TORSDOF 6
