MODEL 4309
MODEL 1
REMARK VINA RESULT:    -7.566      0.000      0.000
REMARK INTER + INTRA:         -11.193
REMARK INTER:                 -10.220
REMARK INTRA:                  -0.973
REMARK UNBOUND:                -0.973
REMARK  Name = No_4309-gen_results/8p0m/2024-11-26-14-13-15/
REMARK  6 active torsions:
REMARK  status: ('A' for Active; 'I' for Inactive)
REMARK    1  A    between atoms: C_1  and  C_2
REMARK    2  A    between atoms: C_5  and  C_16
REMARK    3  A    between atoms: N_8  and  C_9
REMARK    4  A    between atoms: N_8  and  C_19
REMARK    5  A    between atoms: C_19  and  C_20
REMARK    6  A    between atoms: C_24  and  C_26
REMARK                            x       y       z     vdW  Elec       q    Type
REMARK                         _______ _______ _______ _____ _____    ______ ____
ROOT
ATOM      1  C   UNL A   1     -23.184  -0.978  29.010  0.00  0.00    +0.253 C 
ATOM      2  N   UNL A   1     -23.695  -1.527  30.029  0.00  0.00    -0.251 N 
ATOM      3  O   UNL A   1     -21.944  -0.710  29.063  0.00  0.00    -0.270 OA
ENDROOT
BRANCH   1   4
ATOM      4  C   UNL A   1     -23.882  -0.331  28.264  0.00  0.00    +0.054 A 
ATOM      5  C   UNL A   1     -24.717  -0.877  27.343  0.00  0.00    +0.004 A 
ATOM      6  C   UNL A   1     -25.579  -0.099  26.425  0.00  0.00    +0.001 A 
ATOM      7  C   UNL A   1     -25.533   1.329  26.544  0.00  0.00    +0.044 A 
ATOM      8  C   UNL A   1     -24.706   1.855  27.562  0.00  0.00    +0.001 A 
ATOM      9  C   UNL A   1     -23.933   1.070  28.379  0.00  0.00    +0.004 A 
BRANCH   7  10
ATOM     10  C   UNL A   1     -26.376   2.214  25.802  0.00  0.00    +0.341 C 
ATOM     11  F   UNL A   1     -26.253   3.253  25.775  0.00  0.00    -0.193 F 
ATOM     12  F   UNL A   1     -27.175   1.532  25.000  0.00  0.00    -0.193 F 
ENDBRANCH   7  10
ENDBRANCH   1   4
BRANCH   2  13
ATOM     13  C   UNL A   1     -24.675  -2.309  30.020  0.00  0.00    +0.054 A 
ATOM     14  C   UNL A   1     -25.664  -2.295  30.176  0.00  0.00    +0.015 A 
ATOM     15  C   UNL A   1     -26.750  -3.290  30.061  0.00  0.00    +0.001 A 
ATOM     16  C   UNL A   1     -24.216  -3.690  29.372  0.00  0.00    +0.015 A 
ATOM     17  C   UNL A   1     -25.110  -4.705  29.272  0.00  0.00    +0.001 A 
ATOM     18  C   UNL A   1     -26.390  -4.494  29.636  0.00  0.00    +0.000 A 
ENDBRANCH   2  13
BRANCH   2  19
ATOM     19  C   UNL A   1     -23.162  -0.949  31.363  0.00  0.00    +0.125 C 
BRANCH  19  20
ATOM     20  C   UNL A   1     -24.039  -0.450  32.215  0.00  0.00    -0.002 A 
ATOM     21  C   UNL A   1     -24.671   0.736  31.923  0.00  0.00    -0.003 A 
ATOM     22  C   UNL A   1     -25.533   1.317  32.885  0.00  0.00    -0.000 A 
ATOM     23  C   UNL A   1     -25.716   0.666  34.097  0.00  0.00    +0.007 A 
ATOM     24  C   UNL A   1     -25.052  -0.496  34.430  0.00  0.00    +0.080 A 
ATOM     25  C   UNL A   1     -24.175  -1.046  33.500  0.00  0.00    +0.004 A 
BRANCH  24  26
ATOM     26  C   UNL A   1     -25.231  -1.138  35.738  0.00  0.00    +0.388 C 
ATOM     27  O   UNL A   1     -26.264  -1.578  36.008  0.00  0.00    -0.241 OA
ATOM     28  O   UNL A   1     -24.338  -0.827  36.622  0.00  0.00    -0.241 OA
ENDBRANCH  24  26
ENDBRANCH  19  20
ENDBRANCH   2  19
TORSDOF 6
ENDMDL
ENDMDL
