MODEL 430
MODEL 1
REMARK VINA RESULT:    -6.668      0.000      0.000
REMARK INTER + INTRA:          -8.270
REMARK INTER:                  -7.838
REMARK INTRA:                  -0.432
REMARK UNBOUND:                -0.432
REMARK  Name = No_430-gen_results/8p0m/2024-11-26-14-13-15/
REMARK  3 active torsions:
REMARK  status: ('A' for Active; 'I' for Inactive)
REMARK    1  A    between atoms: C_1  and  N_3
REMARK    2  A    between atoms: N_3  and  C_4
REMARK    3  A    between atoms: C_4  and  C_5
REMARK                            x       y       z     vdW  Elec       q    Type
REMARK                         _______ _______ _______ _____ _____    ______ ____
ROOT
ATOM      1  N   UNL A   1     -23.986  -1.584  29.596  0.00  0.00    -0.302 N 
ATOM      2  C   UNL A   1     -24.053  -1.213  31.048  0.00  0.00    +0.113 C 
ENDROOT
BRANCH   1   3
ATOM      3  C   UNL A   1     -24.532  -2.825  29.195  0.00  0.00    +0.048 A 
ATOM      4  C   UNL A   1     -23.856  -3.526  28.792  0.00  0.00    +0.015 A 
ATOM      5  C   UNL A   1     -24.130  -4.939  28.578  0.00  0.00    +0.001 A 
ATOM      6  C   UNL A   1     -25.410  -5.328  28.982  0.00  0.00    +0.000 A 
ATOM      7  C   UNL A   1     -26.194  -4.433  29.627  0.00  0.00    +0.001 A 
ATOM      8  C   UNL A   1     -25.666  -3.215  29.960  0.00  0.00    +0.015 A 
ENDBRANCH   1   3
BRANCH   1   9
ATOM      9  C   UNL A   1     -23.144  -0.776  28.893  0.00  0.00    +0.118 C 
BRANCH   9  10
ATOM     10  C   UNL A   1     -23.628   0.400  28.413  0.00  0.00    -0.002 A 
ATOM     11  C   UNL A   1     -24.117   0.430  26.997  0.00  0.00    -0.003 A 
ATOM     12  C   UNL A   1     -24.110   1.610  26.269  0.00  0.00    -0.000 A 
ATOM     13  C   UNL A   1     -22.891   2.150  26.168  0.00  0.00    -0.000 A 
ATOM     14  C   UNL A   1     -21.923   1.845  26.920  0.00  0.00    -0.000 A 
ATOM     15  C   UNL A   1     -22.243   1.136  28.164  0.00  0.00    -0.003 A 
ENDBRANCH   9  10
ENDBRANCH   1   9
TORSDOF 3
ENDMDL
ENDMDL
