REMARK  Name = No_431-gen_results/8p0m/2024-11-26-14-13-15/
REMARK  3 active torsions:
REMARK  status: ('A' for Active; 'I' for Inactive)
REMARK    1  A    between atoms: C_1  and  C_2
REMARK    2  A    between atoms: C_1  and  N_8
REMARK    3  A    between atoms: C_5  and  C_14
REMARK                            x       y       z     vdW  Elec       q    Type
REMARK                         _______ _______ _______ _____ _____    ______ ____
ROOT
ATOM      1  C   UNL A   1     -27.064  -0.119  28.608  0.00  0.00    -0.006 A 
ATOM      2  C   UNL A   1     -26.929   1.171  29.008  0.00  0.00    -0.003 A 
ATOM      3  C   UNL A   1     -25.770   2.034  28.688  0.00  0.00    +0.004 A 
ATOM      4  C   UNL A   1     -24.714   1.443  27.919  0.00  0.00    +0.071 A 
ATOM      5  C   UNL A   1     -24.859   0.078  27.584  0.00  0.00    +0.004 A 
ATOM      6  C   UNL A   1     -25.965  -0.661  27.916  0.00  0.00    -0.003 A 
ENDROOT
BRANCH   4   7
ATOM      7  C   UNL A   1     -23.510   2.135  27.602  0.00  0.00    +0.419 C 
ATOM      8  F   UNL A   1     -23.380   2.761  26.616  0.00  0.00    -0.166 F 
ATOM      9  F   UNL A   1     -23.043   2.897  28.669  0.00  0.00    -0.166 F 
ATOM     10  F   UNL A   1     -22.397   1.189  27.621  0.00  0.00    -0.166 F 
ENDBRANCH   4   7
BRANCH   1  11
ATOM     11  C   UNL A   1     -28.016  -0.814  28.878  0.00  0.00    +0.100 C 
BRANCH  11  12
ATOM     12  N   UNL A   1     -29.170  -0.298  28.947  0.00  0.00    -0.254 NA
ATOM     13  C   UNL A   1     -29.811   0.155  29.859  0.00  0.00    +0.075 C 
ATOM     14  C   UNL A   1     -31.138   0.665  29.622  0.00  0.00    +0.036 C 
ATOM     15  C   UNL A   1     -29.935  -0.155  27.719  0.00  0.00    +0.164 C 
ATOM     16  N   UNL A   1     -31.075   0.274  27.673  0.00  0.00    -0.201 NA
ATOM     17  C   UNL A   1     -31.751   0.729  28.554  0.00  0.00    +0.092 C 
ENDBRANCH  11  12
ENDBRANCH   1  11
TORSDOF 3
