REMARK  Name = No_4310-gen_results/8p0m/2024-11-26-14-13-15/
REMARK  6 active torsions:
REMARK  status: ('A' for Active; 'I' for Inactive)
REMARK    1  A    between atoms: C_3  and  C_17
REMARK    2  A    between atoms: C_6  and  C_7
REMARK    3  A    between atoms: C_10  and  C_11
REMARK    4  A    between atoms: C_14  and  C_25
REMARK    5  A    between atoms: N_27  and  C_28
REMARK    6  A    between atoms: C_28  and  C_30
REMARK                            x       y       z     vdW  Elec       q    Type
REMARK                         _______ _______ _______ _____ _____    ______ ____
ROOT
ATOM      1  C   UNL A   1     -29.002  -2.814  30.179  0.00  0.00    +0.272 C 
ATOM      2  N   UNL A   1     -28.827  -4.075  30.477  0.00  0.00    -0.137 NA
ATOM      3  O   UNL A   1     -30.162  -2.344  30.253  0.00  0.00    -0.268 OA
ATOM      4  C   UNL A   1     -29.873  -5.025  30.817  0.00  0.00    +0.272 C 
ATOM      5  O   UNL A   1     -29.811  -5.543  31.971  0.00  0.00    -0.268 OA
ENDROOT
BRANCH   1  11
ATOM      6  C   UNL A   1     -28.016  -0.814  28.878  0.00  0.00    +0.005 A 
ATOM      7  C   UNL A   1     -27.064  -0.119  28.608  0.00  0.00    +0.000 A 
ATOM      8  C   UNL A   1     -25.765  -0.390  29.036  0.00  0.00    -0.000 A 
ATOM      9  C   UNL A   1     -25.530  -1.530  29.901  0.00  0.00    +0.000 A 
ATOM     10  C   UNL A   1     -26.689  -2.289  30.181  0.00  0.00    +0.005 A 
ATOM     11  C   UNL A   1     -27.873  -1.951  29.737  0.00  0.00    +0.056 A 
BRANCH   8  12
ATOM     12  C   UNL A   1     -24.553   0.425  28.683  0.00  0.00    -0.000 A 
ATOM     13  C   UNL A   1     -24.568   1.355  27.649  0.00  0.00    -0.004 A 
ATOM     14  C   UNL A   1     -23.599   1.954  27.298  0.00  0.00    -0.022 A 
ATOM     15  C   UNL A   1     -22.246   1.757  27.821  0.00  0.00    -0.004 A 
ATOM     16  C   UNL A   1     -23.300   0.124  29.263  0.00  0.00    -0.000 A 
ATOM     17  C   UNL A   1     -22.139   0.817  28.822  0.00  0.00    -0.000 A 
ATOM     18  C   UNL A   1     -23.636   3.032  26.196  0.00  0.00    +0.031 C 
ENDBRANCH   8  12
ENDBRANCH   1  11
BRANCH   4  19
ATOM     19  C   UNL A   1     -30.770  -5.285  29.828  0.00  0.00    +0.056 A 
ATOM     20  C   UNL A   1     -31.480  -6.435  29.935  0.00  0.00    +0.005 A 
ATOM     21  C   UNL A   1     -32.328  -6.849  28.822  0.00  0.00    +0.005 A 
ATOM     22  C   UNL A   1     -32.334  -6.045  27.624  0.00  0.00    +0.054 A 
ATOM     23  C   UNL A   1     -31.481  -4.936  27.561  0.00  0.00    +0.005 A 
ATOM     24  C   UNL A   1     -30.669  -4.593  28.586  0.00  0.00    +0.005 A 
BRANCH  22  25
ATOM     25  C   UNL A   1     -33.195  -6.451  26.538  0.00  0.00    +0.249 C 
ATOM     26  O   UNL A   1     -33.583  -5.595  25.808  0.00  0.00    -0.270 OA
ATOM     27  N   UNL A   1     -33.399  -7.787  26.210  0.00  0.00    -0.270 N 
ATOM     28  C   UNL A   1     -34.192  -8.127  25.053  0.00  0.00    +0.116 C 
BRANCH  27  29
ATOM     29  C   UNL A   1     -32.823  -8.857  26.955  0.00  0.00    +0.120 C 
BRANCH  29  30
ATOM     30  C   UNL A   1     -33.620  -9.661  27.672  0.00  0.00    -0.002 A 
ATOM     31  C   UNL A   1     -34.888  -9.574  27.771  0.00  0.00    -0.003 A 
ATOM     32  C   UNL A   1     -35.676 -10.470  28.587  0.00  0.00    -0.000 A 
ATOM     33  C   UNL A   1     -34.962 -11.499  29.227  0.00  0.00    -0.000 A 
ATOM     34  C   UNL A   1     -33.641 -11.656  29.142  0.00  0.00    -0.000 A 
ATOM     35  C   UNL A   1     -32.861 -10.758  28.413  0.00  0.00    -0.003 A 
ENDBRANCH  29  30
ENDBRANCH  27  29
ENDBRANCH  22  25
ENDBRANCH   4  19
TORSDOF 6
