MODEL 4310
MODEL 1
REMARK VINA RESULT:    -8.565      0.000      0.000
REMARK INTER + INTRA:         -12.772
REMARK INTER:                 -11.569
REMARK INTRA:                  -1.202
REMARK UNBOUND:                -1.202
REMARK  Name = No_4310-gen_results/8p0m/2024-11-26-14-13-15/
REMARK  6 active torsions:
REMARK  status: ('A' for Active; 'I' for Inactive)
REMARK    1  A    between atoms: C_3  and  C_17
REMARK    2  A    between atoms: C_6  and  C_7
REMARK    3  A    between atoms: C_10  and  C_11
REMARK    4  A    between atoms: C_14  and  C_25
REMARK    5  A    between atoms: N_27  and  C_28
REMARK    6  A    between atoms: C_28  and  C_30
REMARK                            x       y       z     vdW  Elec       q    Type
REMARK                         _______ _______ _______ _____ _____    ______ ____
ROOT
ATOM      1  C   UNL A   1      -2.534  -0.410  33.543  0.00  0.00    +0.272 C 
ATOM      2  N   UNL A   1      -2.924  -1.149  34.549  0.00  0.00    -0.137 NA
ATOM      3  O   UNL A   1      -2.818   0.811  33.561  0.00  0.00    -0.268 OA
ATOM      4  C   UNL A   1      -3.736  -0.706  35.670  0.00  0.00    +0.272 C 
ATOM      5  O   UNL A   1      -3.206  -0.788  36.817  0.00  0.00    -0.268 OA
ENDROOT
BRANCH   1  11
ATOM      6  C   UNL A   1      -1.208  -2.294  32.378  0.00  0.00    +0.005 A 
ATOM      7  C   UNL A   1      -0.675  -2.725  31.382  0.00  0.00    +0.000 A 
ATOM      8  C   UNL A   1      -0.526  -1.990  30.207  0.00  0.00    -0.000 A 
ATOM      9  C   UNL A   1      -1.083  -0.653  30.135  0.00  0.00    +0.000 A 
ATOM     10  C   UNL A   1      -1.698  -0.220  31.332  0.00  0.00    +0.005 A 
ATOM     11  C   UNL A   1      -1.796  -0.988  32.387  0.00  0.00    +0.056 A 
BRANCH   8  12
ATOM     12  C   UNL A   1       0.169  -2.478  28.967  0.00  0.00    -0.000 A 
ATOM     13  C   UNL A   1      -0.456  -2.477  27.725  0.00  0.00    -0.004 A 
ATOM     14  C   UNL A   1       0.044  -2.933  26.744  0.00  0.00    -0.022 A 
ATOM     15  C   UNL A   1       1.331  -3.630  26.695  0.00  0.00    -0.004 A 
ATOM     16  C   UNL A   1       1.413  -3.141  29.064  0.00  0.00    -0.000 A 
ATOM     17  C   UNL A   1       1.996  -3.712  27.899  0.00  0.00    -0.000 A 
ATOM     18  C   UNL A   1      -0.626  -2.870  25.357  0.00  0.00    +0.031 C 
ENDBRANCH   8  12
ENDBRANCH   1  11
BRANCH   4  19
ATOM     19  C   UNL A   1      -4.996  -0.302  35.355  0.00  0.00    +0.056 A 
ATOM     20  C   UNL A   1      -5.398   0.891  35.859  0.00  0.00    +0.005 A 
ATOM     21  C   UNL A   1      -6.792   1.293  35.698  0.00  0.00    +0.005 A 
ATOM     22  C   UNL A   1      -7.704   0.377  35.057  0.00  0.00    +0.054 A 
ATOM     23  C   UNL A   1      -7.224  -0.881  34.671  0.00  0.00    +0.005 A 
ATOM     24  C   UNL A   1      -5.939  -1.253  34.869  0.00  0.00    +0.005 A 
BRANCH  22  25
ATOM     25  C   UNL A   1      -9.075   0.795  34.882  0.00  0.00    +0.249 C 
ATOM     26  O   UNL A   1      -9.409   1.101  33.782  0.00  0.00    -0.270 OA
ATOM     27  N   UNL A   1     -10.030   0.649  35.882  0.00  0.00    -0.270 N 
ATOM     28  C   UNL A   1     -11.406   0.994  35.614  0.00  0.00    +0.116 C 
BRANCH  27  29
ATOM     29  C   UNL A   1      -9.718   0.131  37.173  0.00  0.00    +0.120 C 
BRANCH  29  30
ATOM     30  C   UNL A   1     -10.531  -0.776  37.731  0.00  0.00    -0.002 A 
ATOM     31  C   UNL A   1     -10.851  -1.907  37.239  0.00  0.00    -0.003 A 
ATOM     32  C   UNL A   1     -11.757  -2.822  37.896  0.00  0.00    -0.000 A 
ATOM     33  C   UNL A   1     -12.225  -2.416  39.158  0.00  0.00    -0.000 A 
ATOM     34  C   UNL A   1     -11.907  -1.257  39.735  0.00  0.00    -0.000 A 
ATOM     35  C   UNL A   1     -11.089  -0.336  39.082  0.00  0.00    -0.003 A 
ENDBRANCH  29  30
ENDBRANCH  27  29
ENDBRANCH  22  25
ENDBRANCH   4  19
TORSDOF 6
ENDMDL
ENDMDL
