MODEL 4311
MODEL 1
REMARK VINA RESULT:    -5.775      0.000      0.000
REMARK INTER + INTRA:          -6.713
REMARK INTER:                  -6.450
REMARK INTRA:                  -0.263
REMARK UNBOUND:                -0.263
REMARK  Name = No_4311-gen_results/8p0m/2024-11-26-14-13-15/
REMARK  2 active torsions:
REMARK  status: ('A' for Active; 'I' for Inactive)
REMARK    1  A    between atoms: C_3  and  C_11
REMARK    2  A    between atoms: C_5  and  C_6
REMARK                            x       y       z     vdW  Elec       q    Type
REMARK                         _______ _______ _______ _____ _____    ______ ____
ROOT
ATOM      1  F   UNL A   1     -30.958  -9.583  30.156  0.00  0.00    -0.204 F 
ATOM      2  C   UNL A   1     -30.028 -10.089  30.797  0.00  0.00    +0.144 A 
ATOM      3  C   UNL A   1     -29.386 -11.037  30.315  0.00  0.00    +0.099 A 
ATOM      4  C   UNL A   1     -28.387 -11.817  31.019  0.00  0.00    +0.013 A 
ATOM      5  C   UNL A   1     -28.165 -11.485  32.367  0.00  0.00    +0.080 A 
ATOM      6  C   UNL A   1     -28.943 -10.446  32.936  0.00  0.00    +0.009 A 
ATOM      7  C   UNL A   1     -29.909  -9.780  32.210  0.00  0.00    +0.030 A 
ENDROOT
BRANCH   3   8
ATOM      8  C   UNL A   1     -29.507 -11.523  28.909  0.00  0.00    +0.421 C 
ATOM      9  F   UNL A   1     -30.323 -12.429  28.846  0.00  0.00    -0.166 F 
ATOM     10  F   UNL A   1     -28.335 -11.992  28.500  0.00  0.00    -0.166 F 
ATOM     11  F   UNL A   1     -29.829 -10.535  28.010  0.00  0.00    -0.166 F 
ENDBRANCH   3   8
BRANCH   5  12
ATOM     12  C   UNL A   1     -27.219 -12.184  33.208  0.00  0.00    +0.388 C 
ATOM     13  O   UNL A   1     -27.157 -12.252  34.322  0.00  0.00    -0.241 OA
ATOM     14  O   UNL A   1     -26.390 -12.976  32.515  0.00  0.00    -0.241 OA
ENDBRANCH   5  12
TORSDOF 2
ENDMDL
ENDMDL
