REMARK  Name = No_4311-gen_results/8p0m/2024-11-26-14-13-15/
REMARK  2 active torsions:
REMARK  status: ('A' for Active; 'I' for Inactive)
REMARK    1  A    between atoms: C_3  and  C_11
REMARK    2  A    between atoms: C_5  and  C_6
REMARK                            x       y       z     vdW  Elec       q    Type
REMARK                         _______ _______ _______ _____ _____    ______ ____
ROOT
ATOM      1  F   UNL A   1     -28.073  -1.254  28.532  0.00  0.00    -0.204 F 
ATOM      2  C   UNL A   1     -27.061  -0.629  28.872  0.00  0.00    +0.144 A 
ATOM      3  C   UNL A   1     -26.358  -0.071  28.012  0.00  0.00    +0.099 A 
ATOM      4  C   UNL A   1     -25.072   0.553  28.256  0.00  0.00    +0.013 A 
ATOM      5  C   UNL A   1     -24.577   0.480  29.570  0.00  0.00    +0.080 A 
ATOM      6  C   UNL A   1     -25.348  -0.211  30.537  0.00  0.00    +0.009 A 
ATOM      7  C   UNL A   1     -26.544  -0.820  30.215  0.00  0.00    +0.030 A 
ENDROOT
BRANCH   3   8
ATOM      8  C   UNL A   1     -26.729   0.083  26.575  0.00  0.00    +0.421 C 
ATOM      9  F   UNL A   1     -27.271   1.162  26.393  0.00  0.00    -0.166 F 
ATOM     10  F   UNL A   1     -27.584  -0.873  26.233  0.00  0.00    -0.166 F 
ATOM     11  F   UNL A   1     -25.668  -0.063  25.713  0.00  0.00    -0.166 F 
ENDBRANCH   3   8
BRANCH   5  12
ATOM     12  C   UNL A   1     -23.301   1.034  29.966  0.00  0.00    +0.388 C 
ATOM     13  O   UNL A   1     -22.288   0.908  29.511  0.00  0.00    -0.241 OA
ATOM     14  O   UNL A   1     -23.408   1.943  30.944  0.00  0.00    -0.241 OA
ENDBRANCH   5  12
TORSDOF 2
