MODEL 4312
MODEL 1
REMARK VINA RESULT:    -7.073      0.000      0.000
REMARK INTER + INTRA:          -8.448
REMARK INTER:                  -7.900
REMARK INTRA:                  -0.549
REMARK UNBOUND:                -0.549
REMARK  Name = No_4312-gen_results/8p0m/2024-11-26-14-13-15/
REMARK  2 active torsions:
REMARK  status: ('A' for Active; 'I' for Inactive)
REMARK    1  A    between atoms: C_3  and  C_7
REMARK    2  A    between atoms: C_7  and  C_8
REMARK                            x       y       z     vdW  Elec       q    Type
REMARK                         _______ _______ _______ _____ _____    ______ ____
ROOT
ATOM      1  C   UNL A   1     -24.535  -1.390  29.314  0.00  0.00    +0.045 C 
ATOM      2  C   UNL A   1     -24.934  -0.939  30.715  0.00  0.00    +0.009 C 
ENDROOT
BRANCH   1   5
ATOM      3  C   UNL A   1     -21.241   0.111  28.655  0.00  0.00    -0.000 A 
ATOM      4  C   UNL A   1     -22.089  -0.614  29.120  0.00  0.00    -0.004 A 
ATOM      5  C   UNL A   1     -23.442  -0.528  28.793  0.00  0.00    -0.018 A 
ATOM      6  C   UNL A   1     -23.885   0.519  27.893  0.00  0.00    -0.004 A 
ATOM      7  C   UNL A   1     -22.841   1.333  27.398  0.00  0.00    -0.000 A 
ATOM      8  C   UNL A   1     -21.595   1.179  27.769  0.00  0.00    -0.000 A 
ENDBRANCH   1   5
BRANCH   1   9
ATOM      9  C   UNL A   1     -24.523  -2.688  29.155  0.00  0.00    -0.018 A 
ATOM     10  C   UNL A   1     -23.813  -3.510  28.699  0.00  0.00    -0.004 A 
ATOM     11  C   UNL A   1     -24.100  -4.862  28.556  0.00  0.00    -0.000 A 
ATOM     12  C   UNL A   1     -25.342  -5.260  29.154  0.00  0.00    -0.000 A 
ATOM     13  C   UNL A   1     -25.842  -3.312  29.734  0.00  0.00    -0.004 A 
ATOM     14  C   UNL A   1     -26.206  -4.504  29.723  0.00  0.00    -0.000 A 
ENDBRANCH   1   9
TORSDOF 2
ENDMDL
ENDMDL
