REMARK  Name = No_4312-gen_results/8p0m/2024-11-26-14-13-15/
REMARK  2 active torsions:
REMARK  status: ('A' for Active; 'I' for Inactive)
REMARK    1  A    between atoms: C_3  and  C_7
REMARK    2  A    between atoms: C_7  and  C_8
REMARK                            x       y       z     vdW  Elec       q    Type
REMARK                         _______ _______ _______ _____ _____    ______ ____
ROOT
ATOM      1  C   UNL A   1     -24.549   0.410  28.734  0.00  0.00    +0.045 C 
ATOM      2  C   UNL A   1     -24.008   1.041  30.012  0.00  0.00    +0.009 C 
ENDROOT
BRANCH   1   5
ATOM      3  C   UNL A   1     -28.016  -0.814  28.878  0.00  0.00    -0.000 A 
ATOM      4  C   UNL A   1     -27.064  -0.119  28.608  0.00  0.00    -0.004 A 
ATOM      5  C   UNL A   1     -25.765  -0.390  29.036  0.00  0.00    -0.018 A 
ATOM      6  C   UNL A   1     -25.530  -1.530  29.901  0.00  0.00    -0.004 A 
ATOM      7  C   UNL A   1     -26.689  -2.289  30.181  0.00  0.00    -0.000 A 
ATOM      8  C   UNL A   1     -27.873  -1.951  29.737  0.00  0.00    -0.000 A 
ENDBRANCH   1   5
BRANCH   1   9
ATOM      9  C   UNL A   1     -24.479   1.187  27.684  0.00  0.00    -0.018 A 
ATOM     10  C   UNL A   1     -25.176   1.531  26.799  0.00  0.00    -0.004 A 
ATOM     11  C   UNL A   1     -24.805   2.311  25.711  0.00  0.00    -0.000 A 
ATOM     12  C   UNL A   1     -23.467   2.823  25.791  0.00  0.00    -0.000 A 
ATOM     13  C   UNL A   1     -23.050   1.829  27.585  0.00  0.00    -0.004 A 
ATOM     14  C   UNL A   1     -22.598   2.582  26.701  0.00  0.00    -0.000 A 
ENDBRANCH   1   9
TORSDOF 2
