REMARK  Name = No_4313-gen_results/8p0m/2024-11-26-14-13-15/
REMARK  1 active torsions:
REMARK  status: ('A' for Active; 'I' for Inactive)
REMARK    1  A    between atoms: C_2  and  C_7
REMARK                            x       y       z     vdW  Elec       q    Type
REMARK                         _______ _______ _______ _____ _____    ______ ____
ROOT
ATOM      1  C   UNL A   1     -30.061  -0.737  29.902  0.00  0.00    +0.272 C 
ATOM      2  N   UNL A   1     -30.606  -0.035  29.009  0.00  0.00    -0.139 NA
ATOM      3  C   UNL A   1     -31.503   0.445  28.779  0.00  0.00    +0.247 A 
ATOM      4  N   UNL A   1     -31.807   1.069  27.537  0.00  0.00    -0.177 NA
ATOM      5  N   UNL A   1     -32.462   0.787  29.729  0.00  0.00    -0.190 NA
ATOM      6  C   UNL A   1     -33.660   1.465  29.506  0.00  0.00    +0.204 A 
ATOM      7  C   UNL A   1     -32.989   1.731  27.293  0.00  0.00    +0.260 A 
ATOM      8  N   UNL A   1     -33.884   1.952  28.319  0.00  0.00    -0.189 NA
ATOM      9  O   UNL A   1     -30.740  -1.289  30.742  0.00  0.00    -0.268 OA
ATOM     10  N   UNL A   1     -33.184   2.215  26.064  0.00  0.00    -0.086 NA
ENDROOT
BRANCH   1  12
ATOM     11  C   UNL A   1     -28.016  -0.814  28.878  0.00  0.00    +0.005 A 
ATOM     12  C   UNL A   1     -28.469  -0.785  29.829  0.00  0.00    +0.056 A 
ATOM     13  C   UNL A   1     -26.546  -0.876  28.850  0.00  0.00    +0.000 A 
ATOM     14  C   UNL A   1     -25.804  -1.032  30.057  0.00  0.00    +0.000 A 
ATOM     15  C   UNL A   1     -27.944  -0.987  31.207  0.00  0.00    +0.005 A 
ATOM     16  C   UNL A   1     -26.582  -1.039  31.223  0.00  0.00    +0.000 A 
ENDBRANCH   1  12
TORSDOF 1
