REMARK  Name = No_4314-gen_results/8p0m/2024-11-26-14-13-15/
REMARK  9 active torsions:
REMARK  status: ('A' for Active; 'I' for Inactive)
REMARK    1  A    between atoms: C_2  and  C_25
REMARK    2  A    between atoms: C_3  and  C_7
REMARK    3  A    between atoms: C_6  and  C_19
REMARK    4  A    between atoms: C_7  and  C_15
REMARK    5  A    between atoms: C_8  and  C_9
REMARK    6  A    between atoms: C_10  and  C_22
REMARK    7  A    between atoms: C_19  and  O_21
REMARK    8  A    between atoms: O_21  and  C_29
REMARK    9  A    between atoms: C_29  and  C_30
REMARK                            x       y       z     vdW  Elec       q    Type
REMARK                         _______ _______ _______ _____ _____    ______ ____
ROOT
ATOM      1  C   UNL A   1     -28.016  -0.814  28.878  0.00  0.00    +0.004 A 
ATOM      2  C   UNL A   1     -28.469  -0.785  29.829  0.00  0.00    +0.072 A 
ATOM      3  C   UNL A   1     -27.136   0.236  28.535  0.00  0.00    +0.004 A 
ATOM      4  C   UNL A   1     -26.875   1.282  29.398  0.00  0.00    +0.006 A 
ATOM      5  C   UNL A   1     -28.361   0.199  30.924  0.00  0.00    +0.010 A 
ATOM      6  C   UNL A   1     -27.528   1.223  30.636  0.00  0.00    +0.076 A 
ENDROOT
BRANCH   2   7
ATOM      7  C   UNL A   1     -29.506  -1.919  30.320  0.00  0.00    +0.419 C 
ATOM      8  F   UNL A   1     -28.976  -3.016  30.201  0.00  0.00    -0.166 F 
ATOM      9  F   UNL A   1     -29.803  -1.767  31.630  0.00  0.00    -0.166 F 
ATOM     10  F   UNL A   1     -30.613  -1.866  29.637  0.00  0.00    -0.166 F 
ENDBRANCH   2   7
BRANCH   3  11
ATOM     11  C   UNL A   1     -26.399   0.295  27.228  0.00  0.00    +0.071 C 
ATOM     12  C   UNL A   1     -25.039   0.236  27.354  0.00  0.00    +0.004 C 
BRANCH  12  13
ATOM     13  C   UNL A   1     -24.437   0.006  28.583  0.00  0.00    +0.006 A 
ATOM     14  C   UNL A   1     -23.276   0.612  28.981  0.00  0.00    +0.080 A 
ATOM     15  C   UNL A   1     -22.457   0.129  30.052  0.00  0.00    +0.007 A 
ATOM     16  C   UNL A   1     -23.091  -0.731  30.948  0.00  0.00    +0.000 A 
ATOM     17  C   UNL A   1     -24.787  -1.005  29.582  0.00  0.00    +0.000 A 
ATOM     18  C   UNL A   1     -24.105  -1.367  30.651  0.00  0.00    +0.000 A 
BRANCH  14  19
ATOM     19  C   UNL A   1     -22.603   1.670  28.091  0.00  0.00    +0.388 C 
ATOM     20  O   UNL A   1     -23.293   2.607  27.684  0.00  0.00    -0.241 OA
ATOM     21  O   UNL A   1     -21.385   1.553  27.755  0.00  0.00    -0.241 OA
ENDBRANCH  14  19
ENDBRANCH  12  13
BRANCH  11  22
ATOM     22  C   UNL A   1     -27.107   0.470  26.054  0.00  0.00    +0.419 C 
ATOM     23  F   UNL A   1     -26.458   0.162  25.038  0.00  0.00    -0.166 F 
ATOM     24  F   UNL A   1     -27.425   1.795  25.903  0.00  0.00    -0.166 F 
ATOM     25  F   UNL A   1     -28.330  -0.133  26.005  0.00  0.00    -0.166 F 
ENDBRANCH  11  22
ENDBRANCH   3  11
BRANCH   6  26
ATOM     26  C   UNL A   1     -27.225   2.401  31.462  0.00  0.00    +0.342 C 
ATOM     27  O   UNL A   1     -27.229   2.366  32.640  0.00  0.00    -0.245 OA
BRANCH  26  28
ATOM     28  O   UNL A   1     -26.890   3.555  30.846  0.00  0.00    -0.440 OA
BRANCH  28  29
ATOM     29  C   UNL A   1     -27.568   4.368  30.324  0.00  0.00    +0.235 C 
BRANCH  29  30
ATOM     30  C   UNL A   1     -27.133   4.810  29.042  0.00  0.00    +0.021 A 
ATOM     31  C   UNL A   1     -27.982   5.636  28.225  0.00  0.00    -0.001 A 
ATOM     32  C   UNL A   1     -27.587   5.946  26.960  0.00  0.00    -0.000 A 
ATOM     33  C   UNL A   1     -26.354   5.411  26.440  0.00  0.00    -0.000 A 
ATOM     34  C   UNL A   1     -25.524   4.594  27.201  0.00  0.00    -0.000 A 
ATOM     35  C   UNL A   1     -25.933   4.319  28.465  0.00  0.00    -0.001 A 
ENDBRANCH  29  30
ENDBRANCH  28  29
ENDBRANCH  26  28
ENDBRANCH   6  26
TORSDOF 9
