MODEL 4314
MODEL 1
REMARK VINA RESULT:    -7.855      0.000      0.000
REMARK INTER + INTRA:         -14.166
REMARK INTER:                 -11.989
REMARK INTRA:                  -2.178
REMARK UNBOUND:                -2.178
REMARK  Name = No_4314-gen_results/8p0m/2024-11-26-14-13-15/
REMARK  9 active torsions:
REMARK  status: ('A' for Active; 'I' for Inactive)
REMARK    1  A    between atoms: C_2  and  C_25
REMARK    2  A    between atoms: C_3  and  C_7
REMARK    3  A    between atoms: C_6  and  C_19
REMARK    4  A    between atoms: C_7  and  C_15
REMARK    5  A    between atoms: C_8  and  C_9
REMARK    6  A    between atoms: C_10  and  C_22
REMARK    7  A    between atoms: C_19  and  O_21
REMARK    8  A    between atoms: O_21  and  C_29
REMARK    9  A    between atoms: C_29  and  C_30
REMARK                            x       y       z     vdW  Elec       q    Type
REMARK                         _______ _______ _______ _____ _____    ______ ____
ROOT
ATOM      1  C   UNL A   1     -23.475  -0.532  28.544  0.00  0.00    +0.004 A 
ATOM      2  C   UNL A   1     -23.348   0.283  27.888  0.00  0.00    +0.072 A 
ATOM      3  C   UNL A   1     -24.728  -1.184  28.552  0.00  0.00    +0.004 A 
ATOM      4  C   UNL A   1     -25.770  -0.774  27.744  0.00  0.00    +0.006 A 
ATOM      5  C   UNL A   1     -24.282   0.911  26.933  0.00  0.00    +0.010 A 
ATOM      6  C   UNL A   1     -25.496   0.318  26.910  0.00  0.00    +0.076 A 
ENDROOT
BRANCH   2   7
ATOM      7  C   UNL A   1     -21.968   1.114  27.808  0.00  0.00    +0.419 C 
ATOM      8  F   UNL A   1     -21.984   1.987  28.666  0.00  0.00    -0.166 F 
ATOM      9  F   UNL A   1     -20.909   0.318  28.077  0.00  0.00    -0.166 F 
ATOM     10  F   UNL A   1     -21.804   1.633  26.626  0.00  0.00    -0.166 F 
ENDBRANCH   2   7
BRANCH   3  11
ATOM     11  C   UNL A   1     -25.026  -2.378  29.413  0.00  0.00    +0.071 C 
ATOM     12  C   UNL A   1     -25.397  -2.063  30.690  0.00  0.00    +0.004 C 
BRANCH  12  13
ATOM     13  C   UNL A   1     -25.599  -0.747  31.080  0.00  0.00    +0.006 A 
ATOM     14  C   UNL A   1     -24.812  -0.100  31.994  0.00  0.00    +0.080 A 
ATOM     15  C   UNL A   1     -25.207   1.097  32.674  0.00  0.00    +0.007 A 
ATOM     16  C   UNL A   1     -26.240   1.813  32.071  0.00  0.00    +0.000 A 
ATOM     17  C   UNL A   1     -26.732   0.123  30.761  0.00  0.00    +0.000 A 
ATOM     18  C   UNL A   1     -27.036   1.294  31.285  0.00  0.00    +0.000 A 
BRANCH  14  19
ATOM     19  C   UNL A   1     -23.578  -0.796  32.593  0.00  0.00    +0.388 C 
ATOM     20  O   UNL A   1     -23.698  -1.339  33.693  0.00  0.00    -0.241 OA
ATOM     21  O   UNL A   1     -22.463  -0.770  31.987  0.00  0.00    -0.241 OA
ENDBRANCH  14  19
ENDBRANCH  12  13
BRANCH  11  22
ATOM     22  C   UNL A   1     -24.843  -3.648  28.901  0.00  0.00    +0.419 C 
ATOM     23  F   UNL A   1     -24.457  -3.651  27.718  0.00  0.00    -0.166 F 
ATOM     24  F   UNL A   1     -26.038  -4.320  28.902  0.00  0.00    -0.166 F 
ATOM     25  F   UNL A   1     -24.043  -4.473  29.636  0.00  0.00    -0.166 F 
ENDBRANCH  11  22
ENDBRANCH   3  11
BRANCH   6  26
ATOM     26  C   UNL A   1     -26.678   0.708  26.127  0.00  0.00    +0.342 C 
ATOM     27  O   UNL A   1     -27.519   1.412  26.559  0.00  0.00    -0.245 OA
BRANCH  26  28
ATOM     28  O   UNL A   1     -26.781   0.276  24.852  0.00  0.00    -0.440 OA
BRANCH  28  29
ATOM     29  C   UNL A   1     -27.400   0.710  23.945  0.00  0.00    +0.235 C 
BRANCH  29  30
ATOM     30  C   UNL A   1     -28.745   0.256  23.837  0.00  0.00    +0.021 A 
ATOM     31  C   UNL A   1     -29.041  -1.151  23.778  0.00  0.00    -0.001 A 
ATOM     32  C   UNL A   1     -30.324  -1.551  23.558  0.00  0.00    -0.000 A 
ATOM     33  C   UNL A   1     -31.356  -0.568  23.344  0.00  0.00    -0.000 A 
ATOM     34  C   UNL A   1     -31.094   0.798  23.375  0.00  0.00    -0.000 A 
ATOM     35  C   UNL A   1     -29.811   1.166  23.617  0.00  0.00    -0.001 A 
ENDBRANCH  29  30
ENDBRANCH  28  29
ENDBRANCH  26  28
ENDBRANCH   6  26
TORSDOF 9
ENDMDL
ENDMDL
