MODEL 4315
MODEL 1
REMARK VINA RESULT:    -6.047      0.000      0.000
REMARK INTER + INTRA:          -6.851
REMARK INTER:                  -6.754
REMARK INTRA:                  -0.097
REMARK UNBOUND:                -0.097
REMARK  Name = No_4315-gen_results/8p0m/2024-11-26-14-13-15/
REMARK  2 active torsions:
REMARK  status: ('A' for Active; 'I' for Inactive)
REMARK    1  A    between atoms: C_2  and  C_7
REMARK    2  A    between atoms: N_9  and  C_11
REMARK                            x       y       z     vdW  Elec       q    Type
REMARK                         _______ _______ _______ _____ _____    ______ ____
ROOT
ATOM      1  C   UNL A   1     -24.577  -0.757  28.399  0.00  0.00    +0.253 C 
ATOM      2  O   UNL A   1     -24.583  -0.373  27.383  0.00  0.00    -0.270 OA
ATOM      3  N   UNL A   1     -24.212   0.028  29.497  0.00  0.00    -0.253 N 
ATOM      4  C   UNL A   1     -23.812   1.372  29.267  0.00  0.00    +0.120 C 
ENDROOT
BRANCH   1   6
ATOM      5  C   UNL A   1     -24.054  -2.966  28.616  0.00  0.00    +0.004 A 
ATOM      6  C   UNL A   1     -24.819  -2.280  28.849  0.00  0.00    +0.054 A 
ATOM      7  C   UNL A   1     -24.313  -4.395  29.038  0.00  0.00    +0.000 A 
ATOM      8  C   UNL A   1     -25.574  -4.742  29.567  0.00  0.00    +0.000 A 
ATOM      9  C   UNL A   1     -26.208  -2.382  29.351  0.00  0.00    +0.004 A 
ATOM     10  C   UNL A   1     -26.485  -3.683  29.744  0.00  0.00    +0.000 A 
ENDBRANCH   1   6
BRANCH   3  11
ATOM     11  C   UNL A   1     -24.219  -0.423  30.882  0.00  0.00    +0.054 A 
ATOM     12  C   UNL A   1     -22.929  -0.944  31.272  0.00  0.00    +0.015 A 
ATOM     13  C   UNL A   1     -22.880  -1.236  32.506  0.00  0.00    +0.001 A 
ATOM     14  C   UNL A   1     -23.934  -1.139  33.492  0.00  0.00    +0.000 A 
ATOM     15  C   UNL A   1     -25.122  -0.659  33.011  0.00  0.00    +0.001 A 
ATOM     16  C   UNL A   1     -25.243  -0.230  31.699  0.00  0.00    +0.015 A 
ENDBRANCH   3  11
TORSDOF 2
ENDMDL
ENDMDL
