REMARK  Name = No_4316-gen_results/8p0m/2024-11-26-14-13-15/
REMARK  1 active torsions:
REMARK  status: ('A' for Active; 'I' for Inactive)
REMARK    1  A    between atoms: C_3  and  C_4
REMARK                            x       y       z     vdW  Elec       q    Type
REMARK                         _______ _______ _______ _____ _____    ______ ____
ROOT
ATOM      1  C   UNL A   1     -28.016  -0.814  28.878  0.00  0.00    +0.005 C 
ATOM      2  C   UNL A   1     -28.469  -0.785  29.829  0.00  0.00    +0.008 C 
ATOM      3  C   UNL A   1     -28.182   0.428  28.113  0.00  0.00    +0.030 C 
ATOM      4  C   UNL A   1     -29.865  -0.657  30.047  0.00  0.00    +0.065 C 
ATOM      5  C   UNL A   1     -30.427   0.408  29.278  0.00  0.00    +0.151 C 
ATOM      6  C   UNL A   1     -29.463   1.017  28.173  0.00  0.00    +0.069 C 
ATOM      7  O   UNL A   1     -31.584   0.950  29.418  0.00  0.00    -0.296 OA
ENDROOT
BRANCH   3   8
ATOM      8  C   UNL A   1     -27.028   0.934  27.528  0.00  0.00    -0.022 A 
ATOM      9  C   UNL A   1     -26.910   1.681  26.800  0.00  0.00    -0.005 A 
ATOM     10  C   UNL A   1     -25.922   2.165  26.175  0.00  0.00    -0.005 A 
ATOM     11  C   UNL A   1     -24.571   1.639  26.446  0.00  0.00    -0.022 A 
ATOM     12  C   UNL A   1     -24.558   0.652  27.377  0.00  0.00    -0.005 A 
ATOM     13  C   UNL A   1     -25.742   0.237  27.980  0.00  0.00    -0.005 A 
ATOM     14  C   UNL A   1     -23.338   2.212  25.910  0.00  0.00    +0.031 C 
ENDBRANCH   3   8
TORSDOF 1
