MODEL 4316
MODEL 1
REMARK VINA RESULT:    -6.667      0.000      0.000
REMARK INTER + INTRA:          -7.442
REMARK INTER:                  -7.057
REMARK INTRA:                  -0.385
REMARK UNBOUND:                -0.385
REMARK  Name = No_4316-gen_results/8p0m/2024-11-26-14-13-15/
REMARK  1 active torsions:
REMARK  status: ('A' for Active; 'I' for Inactive)
REMARK    1  A    between atoms: C_3  and  C_4
REMARK                            x       y       z     vdW  Elec       q    Type
REMARK                         _______ _______ _______ _____ _____    ______ ____
ROOT
ATOM      1  C   UNL A   1     -25.699  -2.398  30.042  0.00  0.00    +0.005 C 
ATOM      2  C   UNL A   1     -26.490  -3.039  29.769  0.00  0.00    +0.008 C 
ATOM      3  C   UNL A   1     -24.509  -2.546  29.196  0.00  0.00    +0.030 C 
ATOM      4  C   UNL A   1     -26.432  -4.455  29.834  0.00  0.00    +0.065 C 
ATOM      5  C   UNL A   1     -25.245  -4.966  29.225  0.00  0.00    +0.151 C 
ATOM      6  C   UNL A   1     -24.150  -3.872  28.870  0.00  0.00    +0.069 C 
ATOM      7  O   UNL A   1     -24.996  -6.182  28.892  0.00  0.00    -0.296 OA
ENDROOT
BRANCH   3   8
ATOM      8  C   UNL A   1     -23.957  -1.363  28.721  0.00  0.00    -0.022 A 
ATOM      9  C   UNL A   1     -24.339  -0.665  28.037  0.00  0.00    -0.005 A 
ATOM     10  C   UNL A   1     -23.897   0.396  27.508  0.00  0.00    -0.005 A 
ATOM     11  C   UNL A   1     -22.541   0.862  27.855  0.00  0.00    -0.022 A 
ATOM     12  C   UNL A   1     -21.908   0.052  28.740  0.00  0.00    -0.005 A 
ATOM     13  C   UNL A   1     -22.542  -1.083  29.235  0.00  0.00    -0.005 A 
ATOM     14  C   UNL A   1     -21.975   2.143  27.437  0.00  0.00    +0.031 C 
ENDBRANCH   3   8
TORSDOF 1
ENDMDL
ENDMDL
