MODEL 4317
MODEL 1
REMARK VINA RESULT:    -5.695      0.000      0.000
REMARK INTER + INTRA:          -6.531
REMARK INTER:                  -6.361
REMARK INTRA:                  -0.171
REMARK UNBOUND:                -0.171
REMARK  Name = No_4317-gen_results/8p0m/2024-11-26-14-13-15/
REMARK  2 active torsions:
REMARK  status: ('A' for Active; 'I' for Inactive)
REMARK    1  A    between atoms: C_2  and  C_7
REMARK    2  A    between atoms: C_7  and  N_8
REMARK                            x       y       z     vdW  Elec       q    Type
REMARK                         _______ _______ _______ _____ _____    ______ ____
ROOT
ATOM      1  C   UNL A   1     -23.785  -3.696  28.709  0.00  0.00    -0.002 A 
ATOM      2  C   UNL A   1     -24.249  -2.822  29.073  0.00  0.00    +0.002 A 
ATOM      3  C   UNL A   1     -24.519  -4.958  28.897  0.00  0.00    -0.000 A 
ATOM      4  C   UNL A   1     -25.847  -4.954  29.416  0.00  0.00    -0.000 A 
ATOM      5  C   UNL A   1     -25.616  -2.541  29.589  0.00  0.00    -0.002 A 
ATOM      6  C   UNL A   1     -26.324  -3.689  29.786  0.00  0.00    -0.000 A 
ENDROOT
BRANCH   2   7
ATOM      7  C   UNL A   1     -23.495  -1.432  28.872  0.00  0.00    +0.157 C 
BRANCH   7   8
ATOM      8  N   UNL A   1     -22.308  -1.327  29.114  0.00  0.00    -0.214 NA
ATOM      9  C   UNL A   1     -21.551  -0.326  28.823  0.00  0.00    +0.362 C 
ATOM     10  F   UNL A   1     -21.929   0.471  28.073  0.00  0.00    -0.151 F 
ATOM     11  F   UNL A   1     -20.289  -0.703  28.462  0.00  0.00    -0.151 F 
ENDBRANCH   7   8
ENDBRANCH   2   7
TORSDOF 2
ENDMDL
ENDMDL
