MODEL 4318
MODEL 1
REMARK VINA RESULT:    -6.354      0.000      0.000
REMARK INTER + INTRA:          -6.835
REMARK INTER:                  -6.726
REMARK INTRA:                  -0.109
REMARK UNBOUND:                -0.109
REMARK  Name = No_4318-gen_results/8p0m/2024-11-26-14-13-15/
REMARK  1 active torsions:
REMARK  status: ('A' for Active; 'I' for Inactive)
REMARK    1  A    between atoms: C_4  and  C_7
REMARK                            x       y       z     vdW  Elec       q    Type
REMARK                         _______ _______ _______ _____ _____    ______ ____
ROOT
ATOM      1  C   UNL A   1     -24.681  -2.024  29.070  0.00  0.00    +0.019 C 
ATOM      2  C   UNL A   1     -24.246  -3.272  28.535  0.00  0.00    +0.004 C 
ATOM      3  C   UNL A   1     -24.943  -4.444  28.894  0.00  0.00    +0.000 C 
ATOM      4  C   UNL A   1     -26.022  -4.358  29.808  0.00  0.00    +0.000 C 
ATOM      5  C   UNL A   1     -26.170  -2.147  29.407  0.00  0.00    +0.004 C 
ATOM      6  C   UNL A   1     -26.604  -3.281  30.092  0.00  0.00    +0.000 C 
ATOM      7  C   UNL A   1     -23.985  -1.896  30.559  0.00  0.00    +0.004 C 
ATOM      8  C   UNL A   1     -26.979  -1.020  29.322  0.00  0.00    +0.000 C 
ENDROOT
BRANCH   1  12
ATOM      9  C   UNL A   1     -24.615   0.595  26.252  0.00  0.00    +0.011 A 
ATOM     10  C   UNL A   1     -23.778   1.124  26.614  0.00  0.00    +0.058 A 
ATOM     11  C   UNL A   1     -25.013  -0.621  27.057  0.00  0.00    -0.003 A 
ATOM     12  C   UNL A   1     -24.360  -0.885  28.280  0.00  0.00    -0.023 A 
ATOM     13  C   UNL A   1     -22.960   1.083  27.847  0.00  0.00    +0.011 A 
ATOM     14  C   UNL A   1     -23.302  -0.020  28.617  0.00  0.00    -0.003 A 
ATOM     15 CL   UNL A   1     -23.257   2.659  25.720  0.00  0.00    -0.082 Cl
ENDBRANCH   1  12
TORSDOF 1
ENDMDL
ENDMDL
