REMARK  Name = No_4318-gen_results/8p0m/2024-11-26-14-13-15/
REMARK  1 active torsions:
REMARK  status: ('A' for Active; 'I' for Inactive)
REMARK    1  A    between atoms: C_4  and  C_7
REMARK                            x       y       z     vdW  Elec       q    Type
REMARK                         _______ _______ _______ _____ _____    ______ ____
ROOT
ATOM      1  C   UNL A   1     -24.389  -0.805  30.164  0.00  0.00    +0.019 C 
ATOM      2  C   UNL A   1     -23.817   0.476  29.912  0.00  0.00    +0.004 C 
ATOM      3  C   UNL A   1     -22.501   0.545  29.410  0.00  0.00    +0.000 C 
ATOM      4  C   UNL A   1     -21.770  -0.652  29.213  0.00  0.00    +0.000 C 
ATOM      5  C   UNL A   1     -23.694  -1.821  29.252  0.00  0.00    +0.004 C 
ATOM      6  C   UNL A   1     -22.303  -1.789  29.162  0.00  0.00    +0.000 C 
ATOM      7  C   UNL A   1     -23.870  -1.252  31.663  0.00  0.00    +0.004 C 
ATOM      8  C   UNL A   1     -24.406  -2.928  28.805  0.00  0.00    +0.000 C 
ENDROOT
BRANCH   1  12
ATOM      9  C   UNL A   1     -28.016  -0.814  28.878  0.00  0.00    +0.011 A 
ATOM     10  C   UNL A   1     -28.469  -0.785  29.829  0.00  0.00    +0.058 A 
ATOM     11  C   UNL A   1     -26.504  -0.778  28.877  0.00  0.00    -0.003 A 
ATOM     12  C   UNL A   1     -25.810  -0.853  30.103  0.00  0.00    -0.023 A 
ATOM     13  C   UNL A   1     -27.991  -0.892  31.226  0.00  0.00    +0.011 A 
ATOM     14  C   UNL A   1     -26.604  -0.868  31.265  0.00  0.00    -0.003 A 
ATOM     15 CL   UNL A   1     -30.315  -0.883  29.924  0.00  0.00    -0.082 Cl
ENDBRANCH   1  12
TORSDOF 1
