MODEL 4319
MODEL 1
REMARK VINA RESULT:    -6.494      0.000      0.000
REMARK INTER + INTRA:          -7.075
REMARK INTER:                  -6.873
REMARK INTRA:                  -0.202
REMARK UNBOUND:                -0.202
REMARK  Name = No_4319-gen_results/8p0m/2024-11-26-14-13-15/
REMARK  1 active torsions:
REMARK  status: ('A' for Active; 'I' for Inactive)
REMARK    1  A    between atoms: C_9  and  C_11
REMARK                            x       y       z     vdW  Elec       q    Type
REMARK                         _______ _______ _______ _____ _____    ______ ____
ROOT
ATOM      1  C   UNL A   1     -26.561  -3.593  29.985  0.00  0.00    -0.000 A 
ATOM      2  C   UNL A   1     -26.417  -4.584  29.657  0.00  0.00    -0.000 A 
ATOM      3  C   UNL A   1     -25.473  -2.699  29.881  0.00  0.00    -0.000 A 
ATOM      4  C   UNL A   1     -25.540  -1.248  30.196  0.00  0.00    -0.000 A 
ATOM      5  C   UNL A   1     -25.235  -5.259  29.093  0.00  0.00    -0.000 A 
ATOM      6  C   UNL A   1     -24.117  -4.435  28.964  0.00  0.00    -0.000 A 
ATOM      7  C   UNL A   1     -24.215  -3.125  29.308  0.00  0.00    -0.000 A 
ATOM      8  C   UNL A   1     -24.977  -0.321  29.866  0.00  0.00    +0.004 A 
ATOM      9  C   UNL A   1     -23.724  -0.659  29.039  0.00  0.00    +0.071 A 
ATOM     10  C   UNL A   1     -23.380  -2.011  28.800  0.00  0.00    +0.004 A 
ENDROOT
BRANCH   9  11
ATOM     11  C   UNL A   1     -22.784   0.470  28.661  0.00  0.00    +0.419 C 
ATOM     12  F   UNL A   1     -22.764   0.828  27.466  0.00  0.00    -0.166 F 
ATOM     13  F   UNL A   1     -21.452  -0.108  28.778  0.00  0.00    -0.166 F 
ATOM     14  F   UNL A   1     -22.829   1.492  29.451  0.00  0.00    -0.166 F 
ENDBRANCH   9  11
TORSDOF 1
ENDMDL
ENDMDL
