MODEL 431
MODEL 1
REMARK VINA RESULT:    -6.655      0.000      0.000
REMARK INTER + INTRA:          -8.090
REMARK INTER:                  -7.823
REMARK INTRA:                  -0.267
REMARK UNBOUND:                -0.267
REMARK  Name = No_431-gen_results/8p0m/2024-11-26-14-13-15/
REMARK  3 active torsions:
REMARK  status: ('A' for Active; 'I' for Inactive)
REMARK    1  A    between atoms: C_1  and  C_2
REMARK    2  A    between atoms: C_1  and  N_8
REMARK    3  A    between atoms: C_5  and  C_14
REMARK                            x       y       z     vdW  Elec       q    Type
REMARK                         _______ _______ _______ _____ _____    ______ ____
ROOT
ATOM      1  C   UNL A   1     -24.477  -0.568  28.769  0.00  0.00    -0.006 A 
ATOM      2  C   UNL A   1     -25.243  -0.343  27.671  0.00  0.00    -0.003 A 
ATOM      3  C   UNL A   1     -24.860   0.535  26.543  0.00  0.00    +0.004 A 
ATOM      4  C   UNL A   1     -23.597   1.205  26.643  0.00  0.00    +0.071 A 
ATOM      5  C   UNL A   1     -22.862   1.002  27.833  0.00  0.00    +0.004 A 
ATOM      6  C   UNL A   1     -23.281   0.171  28.839  0.00  0.00    -0.003 A 
ENDROOT
BRANCH   4   7
ATOM      7  C   UNL A   1     -23.137   2.134  25.666  0.00  0.00    +0.419 C 
ATOM      8  F   UNL A   1     -23.609   3.202  25.536  0.00  0.00    -0.166 F 
ATOM      9  F   UNL A   1     -21.751   2.265  25.674  0.00  0.00    -0.166 F 
ATOM     10  F   UNL A   1     -23.201   1.509  24.347  0.00  0.00    -0.166 F 
ENDBRANCH   4   7
BRANCH   1  11
ATOM     11  C   UNL A   1     -24.802  -1.287  29.685  0.00  0.00    +0.100 C 
BRANCH  11  12
ATOM     12  N   UNL A   1     -24.923  -2.532  29.492  0.00  0.00    -0.254 NA
ATOM     13  C   UNL A   1     -25.822  -3.308  29.690  0.00  0.00    +0.075 C 
ATOM     14  C   UNL A   1     -25.649  -4.704  29.378  0.00  0.00    +0.036 C 
ATOM     15  C   UNL A   1     -23.813  -3.246  28.884  0.00  0.00    +0.164 C 
ATOM     16  N   UNL A   1     -23.795  -4.452  28.703  0.00  0.00    -0.201 NA
ATOM     17  C   UNL A   1     -24.662  -5.260  28.890  0.00  0.00    +0.092 C 
ENDBRANCH  11  12
ENDBRANCH   1  11
TORSDOF 3
ENDMDL
ENDMDL
