REMARK  Name = No_432-gen_results/8p0m/2024-11-26-14-13-15/
REMARK  8 active torsions:
REMARK  status: ('A' for Active; 'I' for Inactive)
REMARK    1  A    between atoms: C_3  and  C_8
REMARK    2  A    between atoms: C_5  and  O_7
REMARK    3  A    between atoms: O_7  and  C_14
REMARK    4  A    between atoms: C_14  and  C_15
REMARK    5  A    between atoms: C_15  and  C_16
REMARK    6  A    between atoms: C_15  and  N_18
REMARK    7  A    between atoms: C_19  and  C_21
REMARK    8  A    between atoms: C_21  and  C_22
REMARK                            x       y       z     vdW  Elec       q    Type
REMARK                         _______ _______ _______ _____ _____    ______ ____
ROOT
ATOM      1  O   UNK A   1     -30.059  -1.063  30.095  0.00  0.00    -0.473 OA
ENDROOT
BRANCH   1   6
ATOM      2  C   UNK A   1     -28.016  -0.814  28.878  0.00  0.00    +0.037 A 
ATOM      3  C   UNK A   1     -27.064  -0.119  28.608  0.00  0.00    +0.005 A 
ATOM      4  C   UNK A   1     -26.876   1.133  28.913  0.00  0.00    +0.018 A 
ATOM      5  C   UNK A   1     -27.901   1.807  29.644  0.00  0.00    +0.005 A 
ATOM      6  C   UNK A   1     -29.046  -0.232  29.718  0.00  0.00    +0.139 A 
ATOM      7  C   UNK A   1     -28.940   1.052  30.060  0.00  0.00    +0.037 A 
BRANCH   4   8
ATOM      8  C   UNK A   1     -25.668   1.936  28.448  0.00  0.00    +0.081 A 
ATOM      9  N   UNK A   1     -24.974   2.617  28.916  0.00  0.00    -0.244 NA
ATOM     10  C   UNK A   1     -25.371   1.794  26.970  0.00  0.00    +0.019 A 
ATOM     11  C   UNK A   1     -24.353   2.284  26.567  0.00  0.00    +0.003 A 
ATOM     12  C   UNK A   1     -23.391   3.044  27.212  0.00  0.00    +0.021 A 
ATOM     13  C   UNK A   1     -23.785   3.209  28.515  0.00  0.00    +0.099 A 
ENDBRANCH   4   8
ENDBRANCH   1   6
BRANCH   1  14
ATOM     14  C   UNK A   1     -29.857  -2.138  30.848  0.00  0.00    +0.238 C 
BRANCH  14  15
ATOM     15  C   UNK A   1     -30.138  -3.359  30.207  0.00  0.00    +0.241 C 
BRANCH  15  16
ATOM     16  C   UNK A   1     -29.299  -4.468  30.640  0.00  0.00    +0.388 C 
ATOM     17  O   UNK A   1     -28.116  -4.272  30.735  0.00  0.00    -0.244 OA
ATOM     18  O   UNK A   1     -29.797  -5.607  30.971  0.00  0.00    -0.244 OA
ENDBRANCH  15  16
BRANCH  15  19
ATOM     19  N   UNK A   1     -31.534  -3.630  30.508  0.00  0.00    -0.189 NA
ATOM     20  C   UNK     1     -32.449  -3.484  29.601  0.00  0.00    +0.280 C 
ATOM     21  O   UNK     1     -33.622  -3.690  29.866  0.00  0.00    -0.270 OA
BRANCH  20  22
ATOM     22  C   UNK     1     -32.134  -3.103  28.137  0.00  0.00    +0.293 C 
ATOM     23  O   UNK     1     -32.593  -1.903  27.744  0.00  0.00    -0.204 OA
BRANCH  22  24
ATOM     24  C   UNK     1     -32.479  -4.048  27.227  0.00  0.00    +0.250 C 
ATOM     25  O   UNK     1     -32.213  -3.616  26.019  0.00  0.00    -0.285 OA
ENDBRANCH  22  24
ENDBRANCH  20  22
ENDBRANCH  15  19
ENDBRANCH  14  15
ENDBRANCH   1  14
TORSDOF 8
