REMARK  Name = No_4320-gen_results/8p0m/2024-11-26-14-13-15/
REMARK  3 active torsions:
REMARK  status: ('A' for Active; 'I' for Inactive)
REMARK    1  A    between atoms: C_3  and  C_7
REMARK    2  A    between atoms: C_8  and  C_11
REMARK    3  A    between atoms: C_12  and  C_19
REMARK                            x       y       z     vdW  Elec       q    Type
REMARK                         _______ _______ _______ _____ _____    ______ ____
ROOT
ATOM      1  C   UNL A   1     -26.399   0.295  27.228  0.00  0.00    +0.059 C 
ATOM      2  C   UNL A   1     -25.039   0.236  27.354  0.00  0.00    +0.025 C 
ATOM      3  C   UNL A   1     -27.029   0.396  26.009  0.00  0.00    +0.165 C 
ATOM      4  C   UNL A   1     -26.273   0.305  24.864  0.00  0.00    +0.036 C 
ATOM      5  C   UNL A   1     -24.860   0.281  24.932  0.00  0.00    +0.003 C 
ATOM      6  C   UNL A   1     -24.222   0.269  26.128  0.00  0.00    +0.004 C 
ATOM      7  F   UNL A   1     -28.324   0.371  25.926  0.00  0.00    -0.237 F 
ENDROOT
BRANCH   1  10
ATOM      8  C   UNL A   1     -28.016  -0.814  28.878  0.00  0.00    -0.004 A 
ATOM      9  C   UNL A   1     -28.469  -0.785  29.829  0.00  0.00    -0.000 A 
ATOM     10  C   UNL A   1     -27.136   0.236  28.535  0.00  0.00    -0.019 A 
ATOM     11  C   UNL A   1     -26.875   1.282  29.398  0.00  0.00    -0.004 A 
ATOM     12  C   UNL A   1     -28.361   0.199  30.924  0.00  0.00    -0.000 A 
ATOM     13  C   UNL A   1     -27.528   1.223  30.636  0.00  0.00    -0.000 A 
ENDBRANCH   1  10
BRANCH   2  14
ATOM     14  C   UNL A   1     -24.334   0.078  28.610  0.00  0.00    -0.042 C 
ATOM     15  C   UNL A   1     -22.974   0.373  28.599  0.00  0.00    +0.050 C 
ATOM     16  C   UNL A   1     -22.104  -0.397  29.418  0.00  0.00    +0.033 C 
ATOM     17  C   UNL A   1     -24.241  -1.387  29.173  0.00  0.00    +0.022 C 
ATOM     18  C   UNL A   1     -23.040  -1.474  29.855  0.00  0.00    +0.009 C 
BRANCH  15  19
ATOM     19  C   UNL A   1     -22.363   1.618  28.073  0.00  0.00    +0.383 C 
ATOM     20  O   UNL A   1     -23.039   2.662  27.871  0.00  0.00    -0.241 OA
ATOM     21  O   UNL A   1     -21.128   1.612  27.675  0.00  0.00    -0.241 OA
ENDBRANCH  15  19
ENDBRANCH   2  14
TORSDOF 3
