MODEL 4320
MODEL 1
REMARK VINA RESULT:    -7.045      0.000      0.000
REMARK INTER + INTRA:          -9.842
REMARK INTER:                  -8.280
REMARK INTRA:                  -1.562
REMARK UNBOUND:                -1.562
REMARK  Name = No_4320-gen_results/8p0m/2024-11-26-14-13-15/
REMARK  3 active torsions:
REMARK  status: ('A' for Active; 'I' for Inactive)
REMARK    1  A    between atoms: C_3  and  C_7
REMARK    2  A    between atoms: C_8  and  C_11
REMARK    3  A    between atoms: C_12  and  C_19
REMARK                            x       y       z     vdW  Elec       q    Type
REMARK                         _______ _______ _______ _____ _____    ______ ____
ROOT
ATOM      1  C   UNL A   1     -23.869   0.349  27.412  0.00  0.00    +0.059 C 
ATOM      2  C   UNL A   1     -23.890  -0.699  28.290  0.00  0.00    +0.025 C 
ATOM      3  C   UNL A   1     -22.802   1.210  27.307  0.00  0.00    +0.165 C 
ATOM      4  C   UNL A   1     -21.657   0.935  28.019  0.00  0.00    +0.036 C 
ATOM      5  C   UNL A   1     -21.633  -0.112  28.970  0.00  0.00    +0.003 C 
ATOM      6  C   UNL A   1     -22.710  -0.916  29.147  0.00  0.00    +0.004 C 
ATOM      7  F   UNL A   1     -22.788   2.145  26.408  0.00  0.00    -0.237 F 
ENDROOT
BRANCH   1  10
ATOM      8  C   UNL A   1     -25.318  -0.272  25.392  0.00  0.00    -0.004 A 
ATOM      9  C   UNL A   1     -26.233  -0.142  24.884  0.00  0.00    -0.000 A 
ATOM     10  C   UNL A   1     -25.111   0.468  26.576  0.00  0.00    -0.019 A 
ATOM     11  C   UNL A   1     -26.057   1.349  27.062  0.00  0.00    -0.004 A 
ATOM     12  C   UNL A   1     -27.394   0.717  25.185  0.00  0.00    -0.000 A 
ATOM     13  C   UNL A   1     -27.236   1.446  26.312  0.00  0.00    -0.000 A 
ENDBRANCH   1  10
BRANCH   2  14
ATOM     14  C   UNL A   1     -24.968  -1.661  28.400  0.00  0.00    -0.042 C 
ATOM     15  C   UNL A   1     -25.725  -1.613  29.567  0.00  0.00    +0.050 C 
ATOM     16  C   UNL A   1     -26.219  -2.831  30.108  0.00  0.00    +0.033 C 
ATOM     17  C   UNL A   1     -24.543  -3.173  28.470  0.00  0.00    +0.022 C 
ATOM     18  C   UNL A   1     -25.484  -3.813  29.257  0.00  0.00    +0.009 C 
BRANCH  15  19
ATOM     19  C   UNL A   1     -26.354  -0.399  30.141  0.00  0.00    +0.383 C 
ATOM     20  O   UNL A   1     -25.765   0.324  30.988  0.00  0.00    -0.241 OA
ATOM     21  O   UNL A   1     -27.597  -0.132  29.880  0.00  0.00    -0.241 OA
ENDBRANCH  15  19
ENDBRANCH   2  14
TORSDOF 3
ENDMDL
ENDMDL
