MODEL 4321
MODEL 1
REMARK VINA RESULT:    -7.446      0.000      0.000
REMARK INTER + INTRA:         -13.781
REMARK INTER:                 -10.928
REMARK INTRA:                  -2.853
REMARK UNBOUND:                -2.853
REMARK  Name = No_4321-gen_results/8p0m/2024-11-26-14-13-15/
REMARK  8 active torsions:
REMARK  status: ('A' for Active; 'I' for Inactive)
REMARK    1  A    between atoms: C_2  and  C_23
REMARK    2  A    between atoms: C_4  and  C_6
REMARK    3  A    between atoms: C_8  and  C_14
REMARK    4  A    between atoms: C_14  and  O_16
REMARK    5  A    between atoms: O_16  and  C_17
REMARK    6  A    between atoms: C_19  and  C_26
REMARK    7  A    between atoms: C_26  and  C_27
REMARK    8  A    between atoms: C_26  and  C_33
REMARK                            x       y       z     vdW  Elec       q    Type
REMARK                         _______ _______ _______ _____ _____    ______ ____
ROOT
ATOM      1  C   UNL A   1     -28.662   0.715  27.622  0.00  0.00    +0.346 C 
ATOM      2  O   UNL A   1     -29.238  -0.279  28.042  0.00  0.00    -0.244 OA
ENDROOT
BRANCH   1   4
ATOM      3  C   UNL A   1     -27.641   1.826  25.615  0.00  0.00    +0.006 A 
ATOM      4  C   UNL A   1     -28.729   1.112  26.215  0.00  0.00    +0.076 A 
ATOM      5  C   UNL A   1     -29.858   0.796  25.426  0.00  0.00    +0.006 A 
ATOM      6  C   UNL A   1     -29.939   1.270  24.105  0.00  0.00    +0.000 A 
ATOM      7  C   UNL A   1     -27.789   2.232  24.252  0.00  0.00    +0.000 A 
ATOM      8  C   UNL A   1     -28.917   1.854  23.510  0.00  0.00    +0.000 A 
BRANCH   3  12
ATOM      9  C   UNL A   1     -24.246   2.223  27.374  0.00  0.00    +0.002 A 
ATOM     10  C   UNL A   1     -23.930   1.230  27.218  0.00  0.00    +0.080 A 
ATOM     11  C   UNL A   1     -25.587   2.580  26.773  0.00  0.00    -0.022 A 
ATOM     12  C   UNL A   1     -26.373   1.567  26.186  0.00  0.00    -0.004 A 
ATOM     13  C   UNL A   1     -24.554  -0.002  26.686  0.00  0.00    +0.007 A 
ATOM     14  C   UNL A   1     -25.828   0.286  26.137  0.00  0.00    -0.000 A 
ATOM     15  C   UNL A   1     -26.156   3.943  26.812  0.00  0.00    +0.031 C 
BRANCH  10  16
ATOM     16  C   UNL A   1     -22.472   0.859  27.798  0.00  0.00    +0.388 C 
ATOM     17  O   UNL A   1     -22.188  -0.011  28.446  0.00  0.00    -0.241 OA
ATOM     18  O   UNL A   1     -21.545   1.747  27.447  0.00  0.00    -0.241 OA
ENDBRANCH  10  16
ENDBRANCH   3  12
ENDBRANCH   1   4
BRANCH   1  19
ATOM     19  O   UNL A   1     -28.304   1.661  28.528  0.00  0.00    -0.421 OA
BRANCH  19  20
ATOM     20  C   UNL A   1     -27.725   1.233  29.689  0.00  0.00    +0.148 A 
ATOM     21  C   UNL A   1     -26.882   0.388  29.639  0.00  0.00    +0.034 A 
ATOM     22  C   UNL A   1     -26.309  -0.209  30.908  0.00  0.00    -0.014 A 
ATOM     23  C   UNL A   1     -26.958   0.138  32.075  0.00  0.00    -0.004 A 
ATOM     24  C   UNL A   1     -28.444   1.629  30.882  0.00  0.00    +0.038 A 
ATOM     25  C   UNL A   1     -27.939   1.106  32.069  0.00  0.00    +0.003 A 
BRANCH  22  26
ATOM     26  C   UNL A   1     -25.238  -1.229  30.829  0.00  0.00    +0.060 C 
BRANCH  26  27
ATOM     27  C   UNL A   1     -25.394  -2.318  30.314  0.00  0.00    -0.017 A 
ATOM     28  C   UNL A   1     -26.394  -3.102  30.305  0.00  0.00    -0.004 A 
ATOM     29  C   UNL A   1     -26.433  -4.423  29.670  0.00  0.00    -0.000 A 
ATOM     30  C   UNL A   1     -25.342  -4.771  28.968  0.00  0.00    -0.000 A 
ATOM     31  C   UNL A   1     -24.215  -4.006  28.901  0.00  0.00    -0.000 A 
ATOM     32  C   UNL A   1     -24.148  -2.796  29.528  0.00  0.00    -0.004 A 
ENDBRANCH  26  27
BRANCH  26  33
ATOM     33  C   UNL A   1     -23.947  -0.665  31.413  0.00  0.00    +0.088 C 
ATOM     34 CL   UNL A   1     -23.167  -0.984  32.580  0.00  0.00    -0.114 Cl
ATOM     35  C   UNL A   1     -23.861   0.790  31.170  0.00  0.00    +0.018 C 
ENDBRANCH  26  33
ENDBRANCH  22  26
ENDBRANCH  19  20
ENDBRANCH   1  19
TORSDOF 8
ENDMDL
ENDMDL
