REMARK  Name = No_4321-gen_results/8p0m/2024-11-26-14-13-15/
REMARK  8 active torsions:
REMARK  status: ('A' for Active; 'I' for Inactive)
REMARK    1  A    between atoms: C_2  and  C_23
REMARK    2  A    between atoms: C_4  and  C_6
REMARK    3  A    between atoms: C_8  and  C_14
REMARK    4  A    between atoms: C_14  and  O_16
REMARK    5  A    between atoms: O_16  and  C_17
REMARK    6  A    between atoms: C_19  and  C_26
REMARK    7  A    between atoms: C_26  and  C_27
REMARK    8  A    between atoms: C_26  and  C_33
REMARK                            x       y       z     vdW  Elec       q    Type
REMARK                         _______ _______ _______ _____ _____    ______ ____
ROOT
ATOM      1  C   UNL A   1     -24.528   1.671  30.194  0.00  0.00    +0.346 C 
ATOM      2  O   UNL A   1     -24.613   2.127  31.326  0.00  0.00    -0.244 OA
ENDROOT
BRANCH   1   4
ATOM      3  C   UNL A   1     -24.398  -0.836  30.177  0.00  0.00    +0.006 A 
ATOM      4  C   UNL A   1     -23.796   0.436  29.909  0.00  0.00    +0.076 A 
ATOM      5  C   UNL A   1     -22.494   0.476  29.363  0.00  0.00    +0.006 A 
ATOM      6  C   UNL A   1     -21.776  -0.720  29.186  0.00  0.00    +0.000 A 
ATOM      7  C   UNL A   1     -23.612  -2.004  29.927  0.00  0.00    +0.000 A 
ATOM      8  C   UNL A   1     -22.340  -1.901  29.347  0.00  0.00    +0.000 A 
BRANCH   3  12
ATOM      9  C   UNL A   1     -28.016  -0.814  28.878  0.00  0.00    +0.002 A 
ATOM     10  C   UNL A   1     -28.469  -0.785  29.829  0.00  0.00    +0.080 A 
ATOM     11  C   UNL A   1     -26.504  -0.778  28.877  0.00  0.00    -0.022 A 
ATOM     12  C   UNL A   1     -25.810  -0.853  30.103  0.00  0.00    -0.004 A 
ATOM     13  C   UNL A   1     -27.991  -0.892  31.226  0.00  0.00    +0.007 A 
ATOM     14  C   UNL A   1     -26.575  -0.890  31.266  0.00  0.00    -0.000 A 
ATOM     15  C   UNL A   1     -25.695  -0.722  27.642  0.00  0.00    +0.031 C 
BRANCH  10  16
ATOM     16  C   UNL A   1     -30.081  -0.756  29.837  0.00  0.00    +0.388 C 
ATOM     17  O   UNL A   1     -30.781  -1.471  30.342  0.00  0.00    -0.241 OA
ATOM     18  O   UNL A   1     -30.574   0.250  29.119  0.00  0.00    -0.241 OA
ENDBRANCH  10  16
ENDBRANCH   3  12
ENDBRANCH   1   4
BRANCH   1  19
ATOM     19  O   UNL A   1     -25.445   2.086  29.282  0.00  0.00    -0.421 OA
BRANCH  19  20
ATOM     20  C   UNL A   1     -26.129   3.236  29.556  0.00  0.00    +0.148 A 
ATOM     21  C   UNL A   1     -26.768   3.304  30.564  0.00  0.00    +0.034 A 
ATOM     22  C   UNL A   1     -27.645   4.507  30.843  0.00  0.00    -0.014 A 
ATOM     23  C   UNL A   1     -27.802   5.387  29.792  0.00  0.00    -0.004 A 
ATOM     24  C   UNL A   1     -26.260   4.124  28.420  0.00  0.00    +0.038 A 
ATOM     25  C   UNL A   1     -27.053   5.246  28.644  0.00  0.00    +0.003 A 
BRANCH  22  26
ATOM     26  C   UNL A   1     -28.401   4.593  32.114  0.00  0.00    +0.060 C 
BRANCH  26  27
ATOM     27  C   UNL A   1     -28.977   3.645  32.610  0.00  0.00    -0.017 A 
ATOM     28  C   UNL A   1     -29.162   2.463  32.183  0.00  0.00    -0.004 A 
ATOM     29  C   UNL A   1     -29.921   1.417  32.876  0.00  0.00    -0.000 A 
ATOM     30  C   UNL A   1     -30.369   1.730  34.102  0.00  0.00    -0.000 A 
ATOM     31  C   UNL A   1     -30.221   2.964  34.665  0.00  0.00    -0.000 A 
ATOM     32  C   UNL A   1     -29.559   3.961  34.010  0.00  0.00    -0.004 A 
ENDBRANCH  26  27
BRANCH  26  33
ATOM     33  C   UNL A   1     -28.270   5.996  32.697  0.00  0.00    +0.088 C 
ATOM     34 CL   UNL A   1     -27.751   6.507  33.938  0.00  0.00    -0.114 Cl
ATOM     35  C   UNL A   1     -29.410   6.838  32.279  0.00  0.00    +0.018 C 
ENDBRANCH  26  33
ENDBRANCH  22  26
ENDBRANCH  19  20
ENDBRANCH   1  19
TORSDOF 8
