MODEL 4322
MODEL 1
REMARK VINA RESULT:    -6.312      0.000      0.000
REMARK INTER + INTRA:         -12.232
REMARK INTER:                 -10.001
REMARK INTRA:                  -2.231
REMARK UNBOUND:                -2.231
REMARK  Name = No_4322-gen_results/8p0m/2024-11-26-14-13-15/
REMARK  10 active torsions:
REMARK  status: ('A' for Active; 'I' for Inactive)
REMARK    1  A    between atoms: C_1  and  C_2
REMARK    2  A    between atoms: C_1  and  C_8
REMARK    3  A    between atoms: C_3  and  O_12
REMARK    4  A    between atoms: C_8  and  N_9
REMARK    5  A    between atoms: C_11  and  C_13
REMARK    6  A    between atoms: O_12  and  C_16
REMARK    7  A    between atoms: C_16  and  C_18
REMARK    8  A    between atoms: C_18  and  C_19
REMARK    9  A    between atoms: C_20  and  C_21
REMARK   10  A    between atoms: C_22  and  C_23
REMARK                            x       y       z     vdW  Elec       q    Type
REMARK                         _______ _______ _______ _____ _____    ______ ____
ROOT
ATOM      1  C   UNL A   1     -24.394  -0.608  29.224  0.00  0.00    +0.014 A 
ATOM      2  C   UNL A   1     -25.654  -1.071  29.562  0.00  0.00    +0.135 A 
ATOM      3  C   UNL A   1     -26.067  -2.452  29.632  0.00  0.00    +0.048 A 
ATOM      4  C   UNL A   1     -25.118  -3.457  29.327  0.00  0.00    +0.061 A 
ATOM      5  C   UNL A   1     -23.807  -3.050  28.970  0.00  0.00    +0.011 A 
ATOM      6  C   UNL A   1     -23.506  -1.722  28.960  0.00  0.00    -0.000 A 
ATOM      7 CL   UNL A   1     -25.530  -5.096  29.358  0.00  0.00    -0.082 Cl
ENDROOT
BRANCH   1   8
ATOM      8  C   UNL A   1     -24.051   0.552  29.239  0.00  0.00    +0.053 C 
BRANCH   8   9
ATOM      9  C   UNL A   1     -22.857   0.860  28.403  0.00  0.00    +0.120 C 
BRANCH   9  10
ATOM     10  N   UNL A   1     -22.755   2.101  27.796  0.00  0.00    -0.196 NA
ATOM     11  C   UNL A   1     -23.308   2.342  26.795  0.00  0.00    +0.345 C 
ATOM     12  O   UNL A   1     -23.033   1.942  25.705  0.00  0.00    -0.261 OA
BRANCH  11  13
ATOM     13  C   UNL A   1     -24.280   3.469  26.835  0.00  0.00    +0.442 C 
ATOM     14  O   UNL A   1     -24.648   3.865  28.032  0.00  0.00    -0.235 OA
ATOM     15  O   UNL A   1     -24.632   4.160  25.826  0.00  0.00    -0.235 OA
ENDBRANCH  11  13
ENDBRANCH   9  10
ENDBRANCH   8   9
ENDBRANCH   1   8
BRANCH   2  16
ATOM     16  O   UNL A   1     -26.587  -0.196  29.915  0.00  0.00    -0.475 OA
BRANCH  16  17
ATOM     17  C   UNL A   1     -27.711   0.044  29.190  0.00  0.00    +0.210 C 
BRANCH  17  18
ATOM     18  C   UNL A   1     -27.675   1.357  28.641  0.00  0.00    +0.073 C 
BRANCH  18  19
ATOM     19  C   UNL A   1     -27.161   1.443  27.378  0.00  0.00    -0.022 C 
ATOM     20  C   UNL A   1     -27.009   0.600  26.575  0.00  0.00    -0.004 C 
BRANCH  20  21
ATOM     21  C   UNL A   1     -26.529   0.805  25.162  0.00  0.00    -0.000 C 
ATOM     22  C   UNL A   1     -27.327   0.711  24.003  0.00  0.00    -0.000 C 
BRANCH  22  23
ATOM     23  C   UNL A   1     -28.680   0.360  24.216  0.00  0.00    -0.000 A 
ATOM     24  C   UNL A   1     -29.663   1.177  23.596  0.00  0.00    -0.000 A 
ATOM     25  C   UNL A   1     -30.986   0.613  23.368  0.00  0.00    +0.000 A 
ATOM     26  C   UNL A   1     -31.047  -0.768  23.511  0.00  0.00    +0.000 A 
ATOM     27  C   UNL A   1     -29.873  -1.545  23.460  0.00  0.00    +0.000 A 
ATOM     28  C   UNL A   1     -28.658  -0.811  23.828  0.00  0.00    -0.000 A 
ENDBRANCH  22  23
ENDBRANCH  20  21
ENDBRANCH  18  19
ENDBRANCH  17  18
ENDBRANCH  16  17
ENDBRANCH   2  16
TORSDOF 10
ENDMDL
ENDMDL
