REMARK  Name = No_4322-gen_results/8p0m/2024-11-26-14-13-15/
REMARK  10 active torsions:
REMARK  status: ('A' for Active; 'I' for Inactive)
REMARK    1  A    between atoms: C_1  and  C_2
REMARK    2  A    between atoms: C_1  and  C_8
REMARK    3  A    between atoms: C_3  and  O_12
REMARK    4  A    between atoms: C_8  and  N_9
REMARK    5  A    between atoms: C_11  and  C_13
REMARK    6  A    between atoms: O_12  and  C_16
REMARK    7  A    between atoms: C_16  and  C_18
REMARK    8  A    between atoms: C_18  and  C_19
REMARK    9  A    between atoms: C_20  and  C_21
REMARK   10  A    between atoms: C_22  and  C_23
REMARK                            x       y       z     vdW  Elec       q    Type
REMARK                         _______ _______ _______ _____ _____    ______ ____
ROOT
ATOM      1  C   UNL A   1     -27.064  -0.119  28.608  0.00  0.00    +0.014 A 
ATOM      2  C   UNL A   1     -26.972   0.714  27.506  0.00  0.00    +0.135 A 
ATOM      3  C   UNL A   1     -25.820   1.491  27.116  0.00  0.00    +0.048 A 
ATOM      4  C   UNL A   1     -24.656   1.424  27.918  0.00  0.00    +0.061 A 
ATOM      5  C   UNL A   1     -24.685   0.590  29.066  0.00  0.00    +0.011 A 
ATOM      6  C   UNL A   1     -25.810  -0.127  29.334  0.00  0.00    -0.000 A 
ATOM      7 CL   UNL A   1     -23.275   2.325  27.546  0.00  0.00    -0.082 Cl
ENDROOT
BRANCH   1   8
ATOM      8  C   UNL A   1     -28.016  -0.814  28.878  0.00  0.00    +0.053 C 
BRANCH   8   9
ATOM      9  C   UNL A   1     -28.694  -0.473  30.159  0.00  0.00    +0.120 C 
BRANCH   9  10
ATOM     10  N   UNL A   1     -29.707  -1.292  30.630  0.00  0.00    -0.196 NA
ATOM     11  C   UNL A   1     -30.242  -2.067  29.937  0.00  0.00    +0.345 C 
ATOM     12  O   UNL A   1     -31.024  -1.837  29.066  0.00  0.00    -0.261 OA
BRANCH  11  13
ATOM     13  C   UNL A   1     -30.153  -3.493  30.355  0.00  0.00    +0.442 C 
ATOM     14  O   UNL A   1     -30.733  -4.361  29.558  0.00  0.00    -0.235 OA
ATOM     15  O   UNL A   1     -29.430  -3.925  31.309  0.00  0.00    -0.235 OA
ENDBRANCH  11  13
ENDBRANCH   9  10
ENDBRANCH   8   9
ENDBRANCH   1   8
BRANCH   2  16
ATOM     16  O   UNL A   1     -28.000   0.792  26.671  0.00  0.00    -0.475 OA
BRANCH  16  17
ATOM     17  C   UNL A   1     -27.899   0.606  25.329  0.00  0.00    +0.210 C 
BRANCH  17  18
ATOM     18  C   UNL A   1     -28.988   1.233  24.659  0.00  0.00    +0.073 C 
BRANCH  18  19
ATOM     19  C   UNL A   1     -29.350   2.452  25.158  0.00  0.00    -0.022 C 
ATOM     20  C   UNL A   1     -28.751   3.181  25.856  0.00  0.00    -0.004 C 
BRANCH  20  21
ATOM     21  C   UNL A   1     -29.189   4.560  26.274  0.00  0.00    -0.000 C 
ATOM     22  C   UNL A   1     -28.446   5.448  27.080  0.00  0.00    -0.000 C 
BRANCH  22  23
ATOM     23  C   UNL A   1     -27.204   4.960  27.547  0.00  0.00    -0.000 A 
ATOM     24  C   UNL A   1     -26.515   5.758  28.499  0.00  0.00    -0.000 A 
ATOM     25  C   UNL A   1     -25.528   5.115  29.355  0.00  0.00    +0.000 A 
ATOM     26  C   UNL A   1     -25.589   3.726  29.347  0.00  0.00    +0.000 A 
ATOM     27  C   UNL A   1     -26.747   3.064  28.895  0.00  0.00    +0.000 A 
ATOM     28  C   UNL A   1     -27.553   3.850  27.955  0.00  0.00    -0.000 A 
ENDBRANCH  22  23
ENDBRANCH  20  21
ENDBRANCH  18  19
ENDBRANCH  17  18
ENDBRANCH  16  17
ENDBRANCH   2  16
TORSDOF 10
