MODEL 4323
MODEL 1
REMARK VINA RESULT:    -4.713      0.000      0.000
REMARK INTER + INTRA:          -5.066
REMARK INTER:                  -4.989
REMARK INTRA:                  -0.078
REMARK UNBOUND:                -0.078
REMARK  Name = No_4323-gen_results/8p0m/2024-11-26-14-13-15/
REMARK  1 active torsions:
REMARK  status: ('A' for Active; 'I' for Inactive)
REMARK    1  A    between atoms: C_7  and  C_8
REMARK                            x       y       z     vdW  Elec       q    Type
REMARK                         _______ _______ _______ _____ _____    ______ ____
ROOT
ATOM      1  O   UNL A   1     -31.764 -16.129  23.165  0.00  0.00    -0.273 OA
ATOM      2  C   UNL A   1     -31.167 -15.212  22.590  0.00  0.00    +0.244 C 
ATOM      3  N   UNL A   1     -30.194 -15.136  22.373  0.00  0.00    -0.203 NA
ATOM      4  C   UNL A   1     -32.080 -14.036  21.980  0.00  0.00    +0.121 C 
ATOM      5  C   UNL A   1     -31.411 -13.026  21.192  0.00  0.00    +0.187 C 
ATOM      6  C   UNL A   1     -29.332 -14.157  21.658  0.00  0.00    +0.144 C 
ATOM      7  C   UNL A   1     -30.044 -13.065  21.105  0.00  0.00    +0.208 C 
ATOM      8 CL   UNL A   1     -29.603 -12.451  21.775  0.00  0.00    -0.100 Cl
ATOM      9  O   UNL A   1     -32.004 -13.498  19.851  0.00  0.00    -0.221 OA
ENDROOT
BRANCH   7  10
ATOM     10  C   UNL A   1     -29.358 -12.038  20.380  0.00  0.00    +0.382 C 
ATOM     11  O   UNL A   1     -29.852 -10.979  20.243  0.00  0.00    -0.244 OA
ATOM     12  O   UNL A   1     -28.217 -12.264  19.719  0.00  0.00    -0.244 OA
ENDBRANCH   7  10
TORSDOF 1
ENDMDL
ENDMDL
