MODEL 4324
MODEL 1
REMARK VINA RESULT:    -7.726      0.000      0.000
REMARK INTER + INTRA:         -13.412
REMARK INTER:                 -11.791
REMARK INTRA:                  -1.621
REMARK UNBOUND:                -1.621
REMARK  Name = No_4324-gen_results/8p0m/2024-11-26-14-13-15/
REMARK  9 active torsions:
REMARK  status: ('A' for Active; 'I' for Inactive)
REMARK    1  A    between atoms: C_3  and  C_8
REMARK    2  A    between atoms: C_6  and  O_7
REMARK    3  A    between atoms: O_7  and  C_14
REMARK    4  A    between atoms: C_14  and  C_15
REMARK    5  A    between atoms: C_15  and  O_17
REMARK    6  A    between atoms: O_17  and  C_20
REMARK    7  A    between atoms: C_24  and  O_27
REMARK    8  A    between atoms: O_27  and  C_28
REMARK    9  A    between atoms: C_33  and  C_34
REMARK                            x       y       z     vdW  Elec       q    Type
REMARK                         _______ _______ _______ _____ _____    ______ ____
ROOT
ATOM      1  C   UNL A   1     -30.662  -4.503  30.043  0.00  0.00    +0.423 C 
ATOM      2  O   UNL A   1     -30.821  -3.371  29.555  0.00  0.00    -0.237 OA
ENDROOT
BRANCH   1   3
ATOM      3  C   UNL A   1     -29.636  -4.555  31.076  0.00  0.00    +0.423 C 
ATOM      4  O   UNL A   1     -29.792  -4.534  32.264  0.00  0.00    -0.237 OA
BRANCH   3   5
ATOM      5  O   UNL A   1     -28.417  -4.895  30.534  0.00  0.00    -0.416 OA
BRANCH   5  11
ATOM      6  C   UNL A   1     -27.647  -2.566  30.398  0.00  0.00    +0.038 A 
ATOM      7  C   UNL A   1     -26.762  -1.785  30.135  0.00  0.00    +0.003 A 
ATOM      8  C   UNL A   1     -25.547  -2.160  29.562  0.00  0.00    +0.000 A 
ATOM      9  C   UNL A   1     -25.288  -3.565  29.314  0.00  0.00    +0.003 A 
ATOM     10  C   UNL A   1     -26.362  -4.418  29.655  0.00  0.00    +0.038 A 
ATOM     11  C   UNL A   1     -27.467  -3.972  30.197  0.00  0.00    +0.149 A 
BRANCH   8  12
ATOM     12  C   UNL A   1     -24.408  -1.253  29.206  0.00  0.00    +0.001 A 
ATOM     13  C   UNL A   1     -24.594  -0.233  28.381  0.00  0.00    +0.011 A 
ATOM     14  C   UNL A   1     -23.476   0.581  27.981  0.00  0.00    +0.058 A 
ATOM     15  C   UNL A   1     -22.187   0.276  28.347  0.00  0.00    +0.011 A 
ATOM     16  C   UNL A   1     -23.113  -1.456  29.802  0.00  0.00    +0.000 A 
ATOM     17  C   UNL A   1     -21.988  -0.723  29.265  0.00  0.00    +0.001 A 
ATOM     18 CL   UNL A   1     -23.802   1.832  26.812  0.00  0.00    -0.082 Cl
ENDBRANCH   8  12
ENDBRANCH   5  11
ENDBRANCH   3   5
ENDBRANCH   1   3
BRANCH   1  19
ATOM     19  O   UNL A   1     -31.320  -5.449  29.745  0.00  0.00    -0.413 OA
BRANCH  19  20
ATOM     20  C   UNL A   1     -31.343  -6.270  29.169  0.00  0.00    +0.191 A 
ATOM     21  C   UNL A   1     -31.356  -6.287  27.683  0.00  0.00    +0.041 A 
ATOM     22  C   UNL A   1     -31.328  -7.514  26.987  0.00  0.00    +0.006 A 
ATOM     23  C   UNL A   1     -31.300  -8.743  27.696  0.00  0.00    +0.041 A 
ATOM     24  C   UNL A   1     -31.288  -8.749  29.082  0.00  0.00    +0.187 A 
ATOM     25  C   UNL A   1     -31.254  -7.639  29.683  0.00  0.00    +0.264 A 
ATOM     26  O   UNL A   1     -32.491  -7.661  30.415  0.00  0.00    -0.280 OA
BRANCH  24  27
ATOM     27  O   UNL A   1     -31.212  -9.992  29.573  0.00  0.00    -0.450 OA
BRANCH  27  28
ATOM     28  C   UNL A   1     -30.118 -10.302  30.333  0.00  0.00    +0.145 A 
ATOM     29  C   UNL A   1     -30.083 -10.090  31.565  0.00  0.00    +0.037 A 
ATOM     30  C   UNL A   1     -29.105 -10.672  32.412  0.00  0.00    +0.003 A 
ATOM     31  C   UNL A   1     -28.216 -11.584  31.889  0.00  0.00    +0.000 A 
ATOM     32  C   UNL A   1     -28.273 -11.899  30.523  0.00  0.00    +0.003 A 
ATOM     33  C   UNL A   1     -29.249 -11.309  29.702  0.00  0.00    +0.035 A 
BRANCH  33  34
ATOM     34  C   UNL A   1     -29.292 -11.655  28.339  0.00  0.00    +0.003 C 
ATOM     35  C   UNL A   1     -29.705 -12.823  27.988  0.00  0.00    +0.000 C 
ENDBRANCH  33  34
ENDBRANCH  27  28
ENDBRANCH  24  27
ENDBRANCH  19  20
ENDBRANCH   1  19
TORSDOF 9
ENDMDL
ENDMDL
