REMARK  Name = No_4324-gen_results/8p0m/2024-11-26-14-13-15/
REMARK  9 active torsions:
REMARK  status: ('A' for Active; 'I' for Inactive)
REMARK    1  A    between atoms: C_3  and  C_8
REMARK    2  A    between atoms: C_6  and  O_7
REMARK    3  A    between atoms: O_7  and  C_14
REMARK    4  A    between atoms: C_14  and  C_15
REMARK    5  A    between atoms: C_15  and  O_17
REMARK    6  A    between atoms: O_17  and  C_20
REMARK    7  A    between atoms: C_24  and  O_27
REMARK    8  A    between atoms: O_27  and  C_28
REMARK    9  A    between atoms: C_33  and  C_34
REMARK                            x       y       z     vdW  Elec       q    Type
REMARK                         _______ _______ _______ _____ _____    ______ ____
ROOT
ATOM      1  C   UNL A   1     -29.838  -4.279  31.603  0.00  0.00    +0.423 C 
ATOM      2  O   UNL A   1     -29.765  -5.416  32.099  0.00  0.00    -0.237 OA
ENDROOT
BRANCH   1   3
ATOM      3  C   UNL A   1     -28.782  -3.994  30.640  0.00  0.00    +0.423 C 
ATOM      4  O   UNL A   1     -28.000  -4.766  30.162  0.00  0.00    -0.237 OA
BRANCH   3   5
ATOM      5  O   UNL A   1     -28.930  -2.730  30.115  0.00  0.00    -0.416 OA
BRANCH   5  11
ATOM      6  C   UNL A   1     -28.016  -0.814  28.878  0.00  0.00    +0.038 A 
ATOM      7  C   UNL A   1     -27.064  -0.119  28.608  0.00  0.00    +0.003 A 
ATOM      8  C   UNL A   1     -25.765  -0.390  29.036  0.00  0.00    +0.000 A 
ATOM      9  C   UNL A   1     -25.530  -1.530  29.901  0.00  0.00    +0.003 A 
ATOM     10  C   UNL A   1     -26.689  -2.289  30.181  0.00  0.00    +0.038 A 
ATOM     11  C   UNL A   1     -27.873  -1.951  29.737  0.00  0.00    +0.149 A 
BRANCH   8  12
ATOM     12  C   UNL A   1     -24.539   0.421  28.742  0.00  0.00    +0.001 A 
ATOM     13  C   UNL A   1     -24.526   1.274  27.727  0.00  0.00    +0.011 A 
ATOM     14  C   UNL A   1     -23.317   1.986  27.403  0.00  0.00    +0.058 A 
ATOM     15  C   UNL A   1     -22.131   1.737  28.050  0.00  0.00    +0.011 A 
ATOM     16  C   UNL A   1     -23.383   0.315  29.594  0.00  0.00    +0.000 A 
ATOM     17  C   UNL A   1     -22.147   0.922  29.153  0.00  0.00    +0.001 A 
ATOM     18 CL   UNL A   1     -23.368   3.004  25.989  0.00  0.00    -0.082 Cl
ENDBRANCH   8  12
ENDBRANCH   5  11
ENDBRANCH   3   5
ENDBRANCH   1   3
BRANCH   1  19
ATOM     19  O   UNL A   1     -30.714  -3.509  31.840  0.00  0.00    -0.413 OA
BRANCH  19  20
ATOM     20  C   UNL A   1     -30.937  -2.534  31.916  0.00  0.00    +0.191 A 
ATOM     21  C   UNL A   1     -31.905  -1.938  32.873  0.00  0.00    +0.041 A 
ATOM     22  C   UNL A   1     -32.085  -0.539  32.921  0.00  0.00    +0.006 A 
ATOM     23  C   UNL A   1     -31.354   0.311  32.050  0.00  0.00    +0.041 A 
ATOM     24  C   UNL A   1     -30.447  -0.226  31.150  0.00  0.00    +0.187 A 
ATOM     25  C   UNL A   1     -30.260  -1.474  31.165  0.00  0.00    +0.264 A 
ATOM     26  O   UNL A   1     -30.690  -1.854  29.847  0.00  0.00    -0.280 OA
BRANCH  24  27
ATOM     27  O   UNL A   1     -29.820   0.727  30.449  0.00  0.00    -0.450 OA
BRANCH  27  28
ATOM     28  C   UNL A   1     -29.135   1.677  31.154  0.00  0.00    +0.145 A 
ATOM     29  C   UNL A   1     -28.247   1.379  31.983  0.00  0.00    +0.037 A 
ATOM     30  C   UNL A   1     -27.325   2.330  32.490  0.00  0.00    +0.003 A 
ATOM     31  C   UNL A   1     -27.332   3.611  31.986  0.00  0.00    +0.000 A 
ATOM     32  C   UNL A   1     -28.268   3.961  31.002  0.00  0.00    +0.003 A 
ATOM     33  C   UNL A   1     -29.174   3.003  30.515  0.00  0.00    +0.035 A 
BRANCH  33  34
ATOM     34  C   UNL A   1     -30.092   3.379  29.518  0.00  0.00    +0.003 C 
ATOM     35  C   UNL A   1     -31.232   3.875  29.852  0.00  0.00    +0.000 C 
ENDBRANCH  33  34
ENDBRANCH  27  28
ENDBRANCH  24  27
ENDBRANCH  19  20
ENDBRANCH   1  19
TORSDOF 9
