MODEL 4325
MODEL 1
REMARK VINA RESULT:    -4.275      0.000      0.000
REMARK INTER + INTRA:          -4.275
REMARK INTER:                  -4.275
REMARK INTRA:                   0.000
REMARK UNBOUND:                 0.000
REMARK  Name = No_4325-gen_results/8p0m/2024-11-26-14-13-15/
REMARK  0 active torsions:
REMARK  status: ('A' for Active; 'I' for Inactive)
REMARK                            x       y       z     vdW  Elec       q    Type
REMARK                         _______ _______ _______ _____ _____    ______ ____
ROOT
ATOM      1  C   UNL A   1     -25.031  -5.332  29.081  0.00  0.00    +0.000 A 
ATOM      2  C   UNL A   1     -25.999  -4.798  29.571  0.00  0.00    +0.000 A 
ATOM      3  C   UNL A   1     -26.068  -3.446  29.849  0.00  0.00    +0.000 A 
ATOM      4  C   UNL A   1     -24.951  -2.636  29.500  0.00  0.00    +0.000 A 
ATOM      5  C   UNL A   1     -23.966  -3.248  28.802  0.00  0.00    +0.000 A 
ATOM      6  C   UNL A   1     -24.003  -4.542  28.545  0.00  0.00    +0.000 A 
ENDROOT
TORSDOF 0
ENDMDL
ENDMDL
