MODEL 4326
MODEL 1
REMARK VINA RESULT:    -5.660      0.000      0.000
REMARK INTER + INTRA:          -7.066
REMARK INTER:                  -6.983
REMARK INTRA:                  -0.082
REMARK UNBOUND:                -0.082
REMARK  Name = No_4326-gen_results/8p0m/2024-11-26-14-13-15/
REMARK  4 active torsions:
REMARK  status: ('A' for Active; 'I' for Inactive)
REMARK    1  A    between atoms: C_4  and  C_5
REMARK    2  A    between atoms: C_8  and  N_9
REMARK    3  A    between atoms: N_9  and  C_12
REMARK    4  A    between atoms: C_12  and  C_14
REMARK                            x       y       z     vdW  Elec       q    Type
REMARK                         _______ _______ _______ _____ _____    ______ ____
ROOT
ATOM      1 CL   UNL A   1     -23.115   2.778  25.489  0.00  0.00    -0.080 Cl
ATOM      2  C   UNL A   1     -23.255   1.652  26.378  0.00  0.00    +0.085 A 
ATOM      3  C   UNL A   1     -22.638   1.351  27.327  0.00  0.00    +0.021 A 
ATOM      4  C   UNL A   1     -22.813   0.168  28.157  0.00  0.00    +0.096 A 
ATOM      5  C   UNL A   1     -24.604   0.875  26.485  0.00  0.00    +0.152 A 
ATOM      6  C   UNL A   1     -24.980  -0.121  27.166  0.00  0.00    +0.047 A 
ATOM      7  C   UNL A   1     -24.088  -0.568  28.140  0.00  0.00    +0.074 A 
ATOM      8  F   UNL A   1     -25.525   1.381  25.453  0.00  0.00    -0.203 F 
ENDROOT
BRANCH   4   9
ATOM      9  C   UNL A   1     -22.141  -0.270  29.360  0.00  0.00    +0.389 C 
ATOM     10  O   UNL A   1     -22.198   0.043  30.319  0.00  0.00    -0.240 OA
ATOM     11  O   UNL A   1     -20.976  -1.065  28.940  0.00  0.00    -0.240 OA
ENDBRANCH   4   9
BRANCH   7  12
ATOM     12  N   UNL A   1     -24.349  -1.533  29.003  0.00  0.00    -0.233 NA
BRANCH  12  13
ATOM     13  C   UNL A   1     -24.831  -2.873  28.529  0.00  0.00    +0.138 C 
BRANCH  13  14
ATOM     14  C   UNL A   1     -24.575  -3.909  29.256  0.00  0.00    -0.003 C 
ATOM     15  C   UNL A   1     -24.805  -5.313  28.893  0.00  0.00    -0.003 C 
ENDBRANCH  13  14
ENDBRANCH  12  13
ENDBRANCH   7  12
TORSDOF 4
ENDMDL
ENDMDL
