REMARK  Name = No_4326-gen_results/8p0m/2024-11-26-14-13-15/
REMARK  4 active torsions:
REMARK  status: ('A' for Active; 'I' for Inactive)
REMARK    1  A    between atoms: C_4  and  C_5
REMARK    2  A    between atoms: C_8  and  N_9
REMARK    3  A    between atoms: N_9  and  C_12
REMARK    4  A    between atoms: C_12  and  C_14
REMARK                            x       y       z     vdW  Elec       q    Type
REMARK                         _______ _______ _______ _____ _____    ______ ____
ROOT
ATOM      1 CL   UNL A   1     -28.149  -0.820  28.908  0.00  0.00    -0.080 Cl
ATOM      2  C   UNL A   1     -26.912  -0.080  28.945  0.00  0.00    +0.085 A 
ATOM      3  C   UNL A   1     -25.966  -0.212  29.623  0.00  0.00    +0.021 A 
ATOM      4  C   UNL A   1     -24.762   0.606  29.631  0.00  0.00    +0.096 A 
ATOM      5  C   UNL A   1     -26.437   0.754  27.714  0.00  0.00    +0.152 A 
ATOM      6  C   UNL A   1     -25.423   1.475  27.493  0.00  0.00    +0.047 A 
ATOM      7  C   UNL A   1     -24.423   1.438  28.465  0.00  0.00    +0.074 A 
ATOM      8  F   UNL A   1     -27.510   0.760  26.704  0.00  0.00    -0.203 F 
ENDROOT
BRANCH   4   9
ATOM      9  C   UNL A   1     -23.536   0.503  30.390  0.00  0.00    +0.389 C 
ATOM     10  O   UNL A   1     -22.839  -0.226  30.455  0.00  0.00    -0.240 OA
ATOM     11  O   UNL A   1     -23.593   1.528  31.445  0.00  0.00    -0.240 OA
ENDBRANCH   4   9
BRANCH   7  12
ATOM     12  N   UNL A   1     -23.259   2.052  28.360  0.00  0.00    -0.233 NA
BRANCH  12  13
ATOM     13  C   UNL A   1     -22.592   2.204  27.025  0.00  0.00    +0.138 C 
BRANCH  13  14
ATOM     14  C   UNL A   1     -23.300   2.622  26.029  0.00  0.00    -0.003 C 
ATOM     15  C   UNL A   1     -24.633   2.147  25.640  0.00  0.00    -0.003 C 
ENDBRANCH  13  14
ENDBRANCH  12  13
ENDBRANCH   7  12
TORSDOF 4
