MODEL 4327
MODEL 1
REMARK VINA RESULT:    -4.260      0.000      0.000
REMARK INTER + INTRA:          -4.260
REMARK INTER:                  -4.260
REMARK INTRA:                   0.000
REMARK UNBOUND:                 0.000
REMARK  Name = No_4327-gen_results/8p0m/2024-11-26-14-13-15/
REMARK  0 active torsions:
REMARK  status: ('A' for Active; 'I' for Inactive)
REMARK                            x       y       z     vdW  Elec       q    Type
REMARK                         _______ _______ _______ _____ _____    ______ ____
ROOT
ATOM      1  C   UNL A   1     -24.961  -5.402  28.939  0.00  0.00    +0.000 A 
ATOM      2  C   UNL A   1     -24.154  -4.767  28.701  0.00  0.00    +0.000 A 
ATOM      3  C   UNL A   1     -26.104  -4.784  29.629  0.00  0.00    +0.000 A 
ATOM      4  C   UNL A   1     -26.155  -3.373  29.827  0.00  0.00    +0.000 A 
ATOM      5  C   UNL A   1     -23.982  -3.289  28.744  0.00  0.00    +0.000 A 
ATOM      6  C   UNL A   1     -25.019  -2.681  29.387  0.00  0.00    +0.000 A 
ENDROOT
TORSDOF 0
ENDMDL
ENDMDL
