MODEL 4328
MODEL 1
REMARK VINA RESULT:    -6.150      0.000      0.000
REMARK INTER + INTRA:          -8.047
REMARK INTER:                  -7.588
REMARK INTRA:                  -0.459
REMARK UNBOUND:                -0.459
REMARK  Name = No_4328-gen_results/8p0m/2024-11-26-14-13-15/
REMARK  4 active torsions:
REMARK  status: ('A' for Active; 'I' for Inactive)
REMARK    1  A    between atoms: C_3  and  C_7
REMARK    2  A    between atoms: C_7  and  C_8
REMARK    3  A    between atoms: C_9  and  C_10
REMARK    4  A    between atoms: C_10  and  C_11
REMARK                            x       y       z     vdW  Elec       q    Type
REMARK                         _______ _______ _______ _____ _____    ______ ____
ROOT
ATOM      1  C   UNL A   1     -23.209  -1.948  29.185  0.00  0.00    +0.052 C 
ENDROOT
BRANCH   1   4
ATOM      2  C   UNL A   1     -25.405  -2.610  29.925  0.00  0.00    -0.004 A 
ATOM      3  C   UNL A   1     -26.212  -3.288  29.945  0.00  0.00    -0.000 A 
ATOM      4  C   UNL A   1     -24.202  -3.078  29.298  0.00  0.00    -0.018 A 
ATOM      5  C   UNL A   1     -24.029  -4.344  28.905  0.00  0.00    -0.004 A 
ATOM      6  C   UNL A   1     -26.245  -4.701  29.599  0.00  0.00    -0.000 A 
ATOM      7  C   UNL A   1     -25.132  -5.156  29.039  0.00  0.00    -0.000 A 
ENDBRANCH   1   4
BRANCH   1   8
ATOM      8  C   UNL A   1     -23.612  -0.665  28.639  0.00  0.00    -0.026 C 
ATOM      9  C   UNL A   1     -22.724   0.342  28.440  0.00  0.00    -0.026 C 
BRANCH   9  10
ATOM     10  C   UNL A   1     -23.150   1.582  27.927  0.00  0.00    +0.051 C 
BRANCH  10  11
ATOM     11  C   UNL A   1     -22.610   2.106  26.714  0.00  0.00    -0.026 C 
ATOM     12  C   UNL A   1     -23.354   1.989  25.562  0.00  0.00    -0.030 C 
ATOM     13  C   UNL A   1     -24.490   1.199  25.520  0.00  0.00    +0.030 C 
ENDBRANCH  10  11
ENDBRANCH   9  10
ENDBRANCH   1   8
TORSDOF 4
ENDMDL
ENDMDL
