REMARK  Name = No_4329-gen_results/8p0m/2024-11-26-14-13-15/
REMARK  3 active torsions:
REMARK  status: ('A' for Active; 'I' for Inactive)
REMARK    1  A    between atoms: N_1  and  C_2
REMARK    2  A    between atoms: N_1  and  C_8
REMARK    3  A    between atoms: C_5  and  C_14
REMARK                            x       y       z     vdW  Elec       q    Type
REMARK                         _______ _______ _______ _____ _____    ______ ____
ROOT
ATOM      1  C   UNL A   1     -26.966  -0.472  28.771  0.00  0.00    +0.070 A 
ATOM      2  C   UNL A   1     -26.549   0.388  27.831  0.00  0.00    +0.017 A 
ATOM      3  C   UNL A   1     -25.266   1.068  27.806  0.00  0.00    +0.006 A 
ATOM      4  C   UNL A   1     -24.357   0.776  28.846  0.00  0.00    +0.057 A 
ATOM      5  C   UNL A   1     -24.775  -0.174  29.830  0.00  0.00    +0.006 A 
ATOM      6  C   UNL A   1     -25.984  -0.811  29.805  0.00  0.00    +0.017 A 
ENDROOT
BRANCH   4   7
ATOM      7  C   UNL A   1     -23.054   1.369  28.853  0.00  0.00    +0.284 C 
ATOM      8  N   UNL A   1     -22.220   1.183  29.711  0.00  0.00    -0.084 NA
ATOM      9  O   UNL A   1     -22.693   2.108  27.808  0.00  0.00    -0.267 OA
ENDBRANCH   4   7
BRANCH   1  10
ATOM     10  N   UNL A   1     -28.054  -1.050  28.725  0.00  0.00    -0.212 NA
BRANCH  10  11
ATOM     11  C   UNL A   1     -29.181  -0.265  28.932  0.00  0.00    +0.070 A 
ATOM     12  C   UNL A   1     -30.232  -0.937  29.598  0.00  0.00    +0.017 A 
ATOM     13  C   UNL A   1     -31.473  -0.952  29.047  0.00  0.00    +0.001 A 
ATOM     14  C   UNL A   1     -31.742  -0.046  27.967  0.00  0.00    +0.000 A 
ATOM     15  C   UNL A   1     -30.683   0.631  27.361  0.00  0.00    +0.001 A 
ATOM     16  C   UNL A   1     -29.469   0.473  27.783  0.00  0.00    +0.017 A 
ENDBRANCH  10  11
ENDBRANCH   1  10
TORSDOF 3
