MODEL 4329
MODEL 1
REMARK VINA RESULT:    -5.752      0.000      0.000
REMARK INTER + INTRA:          -7.112
REMARK INTER:                  -6.760
REMARK INTRA:                  -0.352
REMARK UNBOUND:                -0.352
REMARK  Name = No_4329-gen_results/8p0m/2024-11-26-14-13-15/
REMARK  3 active torsions:
REMARK  status: ('A' for Active; 'I' for Inactive)
REMARK    1  A    between atoms: N_1  and  C_2
REMARK    2  A    between atoms: N_1  and  C_8
REMARK    3  A    between atoms: C_5  and  C_14
REMARK                            x       y       z     vdW  Elec       q    Type
REMARK                         _______ _______ _______ _____ _____    ______ ____
ROOT
ATOM      1  C   UNL A   1      -9.028   0.474  35.652  0.00  0.00    +0.070 A 
ATOM      2  C   UNL A   1     -10.135   0.443  36.407  0.00  0.00    +0.017 A 
ATOM      3  C   UNL A   1     -11.437   0.967  36.034  0.00  0.00    +0.006 A 
ATOM      4  C   UNL A   1     -11.564   1.532  34.746  0.00  0.00    +0.057 A 
ATOM      5  C   UNL A   1     -10.400   1.529  33.915  0.00  0.00    +0.006 A 
ATOM      6  C   UNL A   1      -9.197   1.004  34.296  0.00  0.00    +0.017 A 
ENDROOT
BRANCH   4   7
ATOM      7  C   UNL A   1     -12.832   2.017  34.293  0.00  0.00    +0.284 C 
ATOM      8  N   UNL A   1     -13.265   1.864  33.172  0.00  0.00    -0.084 NA
ATOM      9  O   UNL A   1     -13.635   2.603  35.177  0.00  0.00    -0.267 OA
ENDBRANCH   4   7
BRANCH   1  10
ATOM     10  N   UNL A   1      -7.954  -0.019  36.004  0.00  0.00    -0.212 NA
BRANCH  10  11
ATOM     11  C   UNL A   1      -7.040  -0.295  34.996  0.00  0.00    +0.070 A 
ATOM     12  C   UNL A   1      -7.035  -1.648  34.583  0.00  0.00    +0.017 A 
ATOM     13  C   UNL A   1      -5.867  -2.340  34.570  0.00  0.00    +0.001 A 
ATOM     14  C   UNL A   1      -4.643  -1.601  34.693  0.00  0.00    +0.000 A 
ATOM     15  C   UNL A   1      -4.690  -0.256  35.063  0.00  0.00    +0.001 A 
ATOM     16  C   UNL A   1      -5.824   0.335  35.265  0.00  0.00    +0.017 A 
ENDBRANCH  10  11
ENDBRANCH   1  10
TORSDOF 3
ENDMDL
ENDMDL
