REMARK  Name = No_433-gen_results/8p0m/2024-11-26-14-13-15/
REMARK  10 active torsions:
REMARK  status: ('A' for Active; 'I' for Inactive)
REMARK    1  A    between atoms: C_2  and  O_23
REMARK    2  A    between atoms: C_3  and  C_4
REMARK    3  A    between atoms: C_11  and  C_13
REMARK    4  A    between atoms: C_13  and  O_15
REMARK    5  A    between atoms: O_15  and  C_16
REMARK    6  A    between atoms: C_16  and  C_17
REMARK    7  A    between atoms: C_17  and  C_18
REMARK    8  A    between atoms: C_18  and  C_19
REMARK    9  A    between atoms: O_23  and  C_24
REMARK   10  A    between atoms: C_24  and  C_25
REMARK                            x       y       z     vdW  Elec       q    Type
REMARK                         _______ _______ _______ _____ _____    ______ ____
ROOT
ATOM      1  C   UNL A   1     -26.252   0.411  27.422  0.00  0.00    +0.006 A 
ATOM      2  C   UNL A   1     -24.930   0.352  27.613  0.00  0.00    +0.000 A 
ATOM      3  C   UNL A   1     -24.076   0.479  26.464  0.00  0.00    +0.000 A 
ATOM      4  C   UNL A   1     -24.682   0.803  25.241  0.00  0.00    +0.000 A 
ATOM      5  C   UNL A   1     -26.681   0.629  26.149  0.00  0.00    +0.076 A 
ATOM      6  C   UNL A   1     -25.989   0.729  25.084  0.00  0.00    +0.006 A 
ENDROOT
BRANCH   1   9
ATOM      7  C   UNL A   1     -28.016  -0.814  28.878  0.00  0.00    +0.037 A 
ATOM      8  C   UNL A   1     -28.469  -0.785  29.829  0.00  0.00    +0.139 A 
ATOM      9  C   UNL A   1     -27.087   0.290  28.638  0.00  0.00    +0.003 A 
ATOM     10  C   UNL A   1     -28.314  -0.127  30.710  0.00  0.00    +0.037 A 
ATOM     11  C   UNL A   1     -27.483   1.008  30.810  0.00  0.00    +0.003 A 
ATOM     12  C   UNL A   1     -26.777   1.172  29.687  0.00  0.00    +0.000 A 
BRANCH   8  13
ATOM     13  O   UNL A   1     -29.466  -1.906  30.005  0.00  0.00    -0.467 OA
BRANCH  13  14
ATOM     14  C   UNL A   1     -30.799  -1.696  30.012  0.00  0.00    +0.277 C 
BRANCH  14  15
ATOM     15  C   UNL A   1     -31.459  -2.571  30.843  0.00  0.00    +0.255 C 
ATOM     16  O   UNL A   1     -31.031  -3.517  31.287  0.00  0.00    -0.284 OA
ENDBRANCH  14  15
ENDBRANCH  13  14
ENDBRANCH   8  13
ENDBRANCH   1   9
BRANCH   5  17
ATOM     17  C   UNL A   1     -28.218   0.599  25.935  0.00  0.00    +0.341 C 
ATOM     18  O   UNL A   1     -28.747   0.075  25.011  0.00  0.00    -0.245 OA
BRANCH  17  19
ATOM     19  O   UNL A   1     -29.027   1.177  26.896  0.00  0.00    -0.445 OA
BRANCH  19  20
ATOM     20  C   UNL A   1     -30.343   1.316  26.648  0.00  0.00    +0.209 C 
BRANCH  20  21
ATOM     21  C   UNL A   1     -31.108   1.917  27.521  0.00  0.00    +0.056 C 
BRANCH  21  22
ATOM     22  C   UNL A   1     -30.523   2.725  28.474  0.00  0.00    +0.107 C 
BRANCH  22  23
ATOM     23  C   UNL A   1     -30.058   3.970  28.151  0.00  0.00    +0.398 C 
ATOM     24  F   UNL A   1     -29.037   4.375  28.763  0.00  0.00    -0.170 F 
ATOM     25  F   UNL A   1     -30.016   4.304  26.903  0.00  0.00    -0.170 F 
ATOM     26  F   UNL A   1     -31.068   4.891  28.602  0.00  0.00    -0.170 F 
ENDBRANCH  22  23
ENDBRANCH  21  22
ENDBRANCH  20  21
ENDBRANCH  19  20
ENDBRANCH  17  19
ENDBRANCH   5  17
TORSDOF 10
