REMARK  Name = No_4330-gen_results/8p0m/2024-11-26-14-13-15/
REMARK  1 active torsions:
REMARK  status: ('A' for Active; 'I' for Inactive)
REMARK    1  A    between atoms: C_2  and  P_7
REMARK                            x       y       z     vdW  Elec       q    Type
REMARK                         _______ _______ _______ _____ _____    ______ ____
ROOT
ATOM      1  C   UNL A   1     -28.016  -0.814  28.878  0.00  0.00    +0.014 A 
ATOM      2  C   UNL A   1     -28.469  -0.785  29.829  0.00  0.00    +0.030 A 
ATOM      3  C   UNL A   1     -26.504  -0.778  28.877  0.00  0.00    +0.058 A 
ATOM      4  C   UNL A   1     -25.810  -0.853  30.103  0.00  0.00    +0.011 A 
ATOM      5  C   UNL A   1     -27.991  -0.892  31.226  0.00  0.00    +0.003 A 
ATOM      6  C   UNL A   1     -26.604  -0.868  31.265  0.00  0.00    +0.001 A 
ATOM      7 CL   UNL A   1     -25.496  -0.720  27.500  0.00  0.00    -0.082 Cl
ENDROOT
BRANCH   2   8
ATOM      8  P   UNL A   1     -30.322  -0.660  29.676  0.00  0.00    +0.140 P 
ATOM      9  O   UNL A   1     -30.912  -1.798  29.945  0.00  0.00    -0.354 OA
ATOM     10  O   UNL A   1     -30.515  -0.147  28.270  0.00  0.00    -0.456 OA
ATOM     11  O   UNL A   1     -30.699   0.467  30.657  0.00  0.00    -0.354 OA
ENDBRANCH   2   8
TORSDOF 1
