MODEL 4330
MODEL 1
REMARK VINA RESULT:    -5.393      0.000      0.000
REMARK INTER + INTRA:          -5.755
REMARK INTER:                  -5.708
REMARK INTRA:                  -0.047
REMARK UNBOUND:                -0.047
REMARK  Name = No_4330-gen_results/8p0m/2024-11-26-14-13-15/
REMARK  1 active torsions:
REMARK  status: ('A' for Active; 'I' for Inactive)
REMARK    1  A    between atoms: C_2  and  P_7
REMARK                            x       y       z     vdW  Elec       q    Type
REMARK                         _______ _______ _______ _____ _____    ______ ____
ROOT
ATOM      1  C   UNL A   1     -28.240 -11.710  31.550  0.00  0.00    +0.014 A 
ATOM      2  C   UNL A   1     -28.449 -11.224  32.461  0.00  0.00    +0.030 A 
ATOM      3  C   UNL A   1     -29.088 -11.279  30.374  0.00  0.00    +0.058 A 
ATOM      4  C   UNL A   1     -29.973 -10.190  30.522  0.00  0.00    +0.011 A 
ATOM      5  C   UNL A   1     -29.272 -10.063  32.870  0.00  0.00    +0.003 A 
ATOM      6  C   UNL A   1     -30.061  -9.634  31.812  0.00  0.00    +0.001 A 
ATOM      7 CL   UNL A   1     -29.048 -11.944  28.802  0.00  0.00    -0.082 Cl
ENDROOT
BRANCH   2   8
ATOM      8  P   UNL A   1     -27.459 -11.971  33.852  0.00  0.00    +0.140 P 
ATOM      9  O   UNL A   1     -26.543 -12.796  33.411  0.00  0.00    -0.354 OA
ATOM     10  O   UNL A   1     -28.518 -12.589  34.732  0.00  0.00    -0.456 OA
ATOM     11  O   UNL A   1     -26.873 -10.749  34.587  0.00  0.00    -0.354 OA
ENDBRANCH   2   8
TORSDOF 1
ENDMDL
ENDMDL
