REMARK  Name = No_4331-gen_results/8p0m/2024-11-26-14-13-15/
REMARK  8 active torsions:
REMARK  status: ('A' for Active; 'I' for Inactive)
REMARK    1  A    between atoms: C_3  and  C_11
REMARK    2  A    between atoms: C_6  and  C_7
REMARK    3  A    between atoms: N_8  and  C_10
REMARK    4  A    between atoms: C_10  and  C_17
REMARK    5  A    between atoms: C_20  and  C_23
REMARK    6  A    between atoms: C_27  and  C_29
REMARK    7  A    between atoms: N_30  and  C_32
REMARK    8  A    between atoms: C_33  and  C_34
REMARK                            x       y       z     vdW  Elec       q    Type
REMARK                         _______ _______ _______ _____ _____    ______ ____
ROOT
ATOM      1  C   UNL A   1     -32.377  -2.640  30.857  0.00  0.00    -0.001 A 
ATOM      2  C   UNL A   1     -32.807  -1.726  30.089  0.00  0.00    -0.003 A 
ATOM      3  C   UNL A   1     -33.867  -0.838  30.491  0.00  0.00    -0.000 A 
ATOM      4  C   UNL A   1     -34.557  -1.178  31.677  0.00  0.00    -0.000 A 
ATOM      5  C   UNL A   1     -34.157  -2.196  32.442  0.00  0.00    -0.000 A 
ATOM      6  C   UNL A   1     -32.985  -2.957  32.081  0.00  0.00    -0.003 A 
ENDROOT
BRANCH   4   7
ATOM      7  C   UNL A   1     -35.747  -0.357  32.098  0.00  0.00    +0.000 A 
ATOM      8  C   UNL A   1     -36.787  -0.825  32.304  0.00  0.00    +0.000 A 
ATOM      9  C   UNL A   1     -37.965  -0.028  32.704  0.00  0.00    +0.000 A 
ATOM     10  C   UNL A   1     -37.788   1.372  32.736  0.00  0.00    +0.005 A 
ATOM     11  C   UNL A   1     -36.569   1.899  32.432  0.00  0.00    +0.055 A 
ATOM     12  C   UNL A   1     -35.470   1.098  32.093  0.00  0.00    +0.005 A 
BRANCH  11  13
ATOM     13  C   UNL A   1     -36.336   3.360  32.475  0.00  0.00    +0.269 C 
ATOM     14  N   UNL A   1     -36.846   4.120  33.254  0.00  0.00    -0.174 NA
ATOM     15  O   UNL A   1     -35.472   3.820  31.612  0.00  0.00    -0.268 OA
BRANCH  14  16
ATOM     16  C   UNL A   1     -36.677   5.546  33.312  0.00  0.00    +0.089 C 
ATOM     17  C   UNL A   1     -37.007   6.295  34.082  0.00  0.00    +0.018 C 
BRANCH  17  18
ATOM     18  C   UNL A   1     -36.844   7.755  33.983  0.00  0.00    +0.001 C 
ATOM     19  C   UNL A   1     -36.188   8.226  32.845  0.00  0.00    +0.000 C 
ENDBRANCH  17  18
ENDBRANCH  14  16
ENDBRANCH  11  13
ENDBRANCH   4   7
BRANCH   1  20
ATOM     20  C   UNL A   1     -31.307  -3.286  30.445  0.00  0.00    +0.142 C 
BRANCH  20  22
ATOM     21  C   UNL A   1     -29.002  -2.814  30.179  0.00  0.00    +0.265 C 
ATOM     22  N   UNL A   1     -30.141  -2.419  30.145  0.00  0.00    -0.197 NA
ATOM     23  O   UNL A   1     -28.718  -4.096  30.301  0.00  0.00    -0.268 OA
BRANCH  21  29
ATOM     24  C   UNL A   1     -28.016  -0.814  28.878  0.00  0.00    +0.005 A 
ATOM     25  C   UNL A   1     -27.064  -0.119  28.608  0.00  0.00    +0.000 A 
ATOM     26  C   UNL A   1     -25.765  -0.390  29.036  0.00  0.00    +0.000 A 
ATOM     27  C   UNL A   1     -25.530  -1.530  29.901  0.00  0.00    +0.000 A 
ATOM     28  C   UNL A   1     -26.689  -2.289  30.181  0.00  0.00    +0.005 A 
ATOM     29  C   UNL A   1     -27.873  -1.951  29.737  0.00  0.00    +0.055 A 
BRANCH  26  30
ATOM     30  C   UNL A   1     -24.538   0.408  28.685  0.00  0.00    +0.000 A 
ATOM     31  C   UNL A   1     -24.526   1.246  27.634  0.00  0.00    +0.000 A 
ATOM     32  C   UNL A   1     -23.306   1.935  27.314  0.00  0.00    +0.000 A 
ATOM     33  C   UNL A   1     -22.127   1.728  27.971  0.00  0.00    +0.000 A 
ATOM     34  C   UNL A   1     -23.307   0.149  29.361  0.00  0.00    +0.000 A 
ATOM     35  C   UNL A   1     -22.108   0.828  29.012  0.00  0.00    +0.000 A 
ENDBRANCH  26  30
ENDBRANCH  21  29
ENDBRANCH  20  22
ENDBRANCH   1  20
TORSDOF 8
