MODEL 4332
MODEL 1
REMARK VINA RESULT:    -7.141      0.000      0.000
REMARK INTER + INTRA:          -7.658
REMARK INTER:                  -7.558
REMARK INTRA:                  -0.100
REMARK UNBOUND:                -0.100
REMARK  Name = No_4332-gen_results/8p0m/2024-11-26-14-13-15/
REMARK  1 active torsions:
REMARK  status: ('A' for Active; 'I' for Inactive)
REMARK    1  A    between atoms: C_5  and  C_16
REMARK                            x       y       z     vdW  Elec       q    Type
REMARK                         _______ _______ _______ _____ _____    ______ ____
ROOT
ATOM      1  C   UNL A   1     -13.742   2.555  34.128  0.00  0.00    +0.199 A 
ATOM      2  C   UNL A   1     -12.969   1.950  34.833  0.00  0.00    +0.074 A 
ATOM      3  C   UNL A   1     -12.943   2.002  36.216  0.00  0.00    -0.012 A 
ATOM      4  C   UNL A   1     -13.928   2.813  36.853  0.00  0.00    +0.003 A 
ATOM      5  C   UNL A   1     -14.870   3.346  36.059  0.00  0.00    +0.083 A 
ATOM      6  C   UNL A   1     -14.840   3.208  34.765  0.00  0.00    +0.049 A 
ATOM      7  C   UNL A   1     -11.872   1.339  37.043  0.00  0.00    +0.045 C 
ATOM      8  C   UNL A   1     -10.753   1.071  36.348  0.00  0.00    -0.015 A 
ATOM      9  C   UNL A   1      -9.655   0.337  37.007  0.00  0.00    -0.004 A 
ATOM     10  C   UNL A   1      -8.573  -0.171  36.215  0.00  0.00    -0.000 A 
ATOM     11  C   UNL A   1      -8.439   0.157  34.904  0.00  0.00    +0.000 A 
ATOM     12  C   UNL A   1      -9.393   0.985  34.271  0.00  0.00    +0.003 A 
ATOM     13  C   UNL A   1     -10.530   1.366  34.969  0.00  0.00    +0.035 A 
ATOM     14  C   UNL A   1     -11.640   1.602  34.200  0.00  0.00    +0.198 C 
ATOM     15  O   UNL A   1     -11.695   1.348  32.972  0.00  0.00    -0.286 OA
ATOM     16  C   UNL A   1     -12.056   1.180  38.460  0.00  0.00    +0.009 C 
ATOM     17  O   UNL A   1     -13.683   2.584  32.771  0.00  0.00    -0.286 OA
ENDROOT
BRANCH   5  18
ATOM     18  C   UNL A   1     -15.937   4.031  36.900  0.00  0.00    +0.388 C 
ATOM     19  O   UNL A   1     -15.847   4.104  38.002  0.00  0.00    -0.241 OA
ATOM     20  O   UNL A   1     -17.002   4.524  36.364  0.00  0.00    -0.241 OA
ENDBRANCH   5  18
TORSDOF 1
ENDMDL
ENDMDL
