REMARK  Name = No_4332-gen_results/8p0m/2024-11-26-14-13-15/
REMARK  1 active torsions:
REMARK  status: ('A' for Active; 'I' for Inactive)
REMARK    1  A    between atoms: C_5  and  C_16
REMARK                            x       y       z     vdW  Elec       q    Type
REMARK                         _______ _______ _______ _____ _____    ______ ____
ROOT
ATOM      1  C   UNL A   1     -28.016  -0.814  28.878  0.00  0.00    +0.199 A 
ATOM      2  C   UNL A   1     -27.064  -0.119  28.608  0.00  0.00    +0.074 A 
ATOM      3  C   UNL A   1     -26.972   0.714  27.506  0.00  0.00    -0.012 A 
ATOM      4  C   UNL A   1     -28.105   0.774  26.642  0.00  0.00    +0.003 A 
ATOM      5  C   UNL A   1     -29.204   0.118  27.048  0.00  0.00    +0.083 A 
ATOM      6  C   UNL A   1     -29.213  -0.609  28.128  0.00  0.00    +0.049 A 
ATOM      7  C   UNL A   1     -25.711   1.452  27.138  0.00  0.00    +0.045 C 
ATOM      8  C   UNL A   1     -24.605   0.925  27.690  0.00  0.00    -0.015 A 
ATOM      9  C   UNL A   1     -23.309   1.602  27.492  0.00  0.00    -0.004 A 
ATOM     10  C   UNL A   1     -22.177   1.197  28.274  0.00  0.00    -0.000 A 
ATOM     11  C   UNL A   1     -22.218   0.093  29.062  0.00  0.00    +0.000 A 
ATOM     12  C   UNL A   1     -23.401  -0.673  29.162  0.00  0.00    +0.003 A 
ATOM     13  C   UNL A   1     -24.556  -0.222  28.540  0.00  0.00    +0.035 A 
ATOM     14  C   UNL A   1     -25.731  -0.602  29.134  0.00  0.00    +0.198 C 
ATOM     15  O   UNL A   1     -25.785  -1.181  30.246  0.00  0.00    -0.286 OA
ATOM     16  C   UNL A   1     -25.759   2.514  26.169  0.00  0.00    +0.009 C 
ATOM     17  O   UNL A   1     -28.048  -1.710  29.898  0.00  0.00    -0.286 OA
ENDROOT
BRANCH   5  18
ATOM     18  C   UNL A   1     -30.368   0.421  26.117  0.00  0.00    +0.388 C 
ATOM     19  O   UNL A   1     -31.384   0.023  26.311  0.00  0.00    -0.241 OA
ATOM     20  O   UNL A   1     -30.209   1.128  25.049  0.00  0.00    -0.241 OA
ENDBRANCH   5  18
TORSDOF 1
