REMARK  Name = No_4333-gen_results/8p0m/2024-11-26-14-13-15/
REMARK  2 active torsions:
REMARK  status: ('A' for Active; 'I' for Inactive)
REMARK    1  A    between atoms: C_1  and  C_2
REMARK    2  A    between atoms: C_5  and  C_6
REMARK                            x       y       z     vdW  Elec       q    Type
REMARK                         _______ _______ _______ _____ _____    ______ ____
ROOT
ATOM      1  C   UNL A   1     -27.064  -0.119  28.608  0.00  0.00    +0.018 A 
ATOM      2  C   UNL A   1     -26.972   0.714  27.506  0.00  0.00    +0.001 A 
ATOM      3  C   UNL A   1     -25.821   1.491  27.116  0.00  0.00    -0.004 A 
ATOM      4  C   UNL A   1     -24.656   1.424  27.918  0.00  0.00    -0.022 A 
ATOM      5  C   UNL A   1     -25.773  -0.195  29.440  0.00  0.00    +0.001 A 
ATOM      6  C   UNL A   1     -24.639   0.541  29.134  0.00  0.00    -0.004 A 
ENDROOT
BRANCH   1   7
ATOM      7  C   UNL A   1     -28.016  -0.814  28.878  0.00  0.00    +0.081 A 
ATOM      8  N   UNL A   1     -27.942  -1.469  30.100  0.00  0.00    -0.244 NA
ATOM      9  C   UNL A   1     -29.062  -2.251  30.538  0.00  0.00    +0.099 A 
ATOM     10  C   UNL A   1     -30.225  -1.932  30.072  0.00  0.00    +0.021 A 
ATOM     11  C   UNL A   1     -30.346  -0.966  29.079  0.00  0.00    +0.003 A 
ATOM     12  C   UNL A   1     -29.268  -0.348  28.570  0.00  0.00    +0.019 A 
ENDBRANCH   1   7
BRANCH   4  13
ATOM     13  C   UNL A   1     -23.460   2.116  27.616  0.00  0.00    +0.026 C 
ATOM     14  C   UNL A   1     -23.507   2.708  26.294  0.00  0.00    +0.005 C 
ENDBRANCH   4  13
TORSDOF 2
