MODEL 4333
MODEL 1
REMARK VINA RESULT:    -6.791      0.000      0.000
REMARK INTER + INTRA:          -8.021
REMARK INTER:                  -7.584
REMARK INTRA:                  -0.437
REMARK UNBOUND:                -0.437
REMARK  Name = No_4333-gen_results/8p0m/2024-11-26-14-13-15/
REMARK  2 active torsions:
REMARK  status: ('A' for Active; 'I' for Inactive)
REMARK    1  A    between atoms: C_1  and  C_2
REMARK    2  A    between atoms: C_5  and  C_6
REMARK                            x       y       z     vdW  Elec       q    Type
REMARK                         _______ _______ _______ _____ _____    ______ ____
ROOT
ATOM      1  C   UNL A   1     -24.017  -1.746  28.799  0.00  0.00    +0.018 A 
ATOM      2  C   UNL A   1     -22.801  -1.227  29.210  0.00  0.00    +0.001 A 
ATOM      3  C   UNL A   1     -22.203   0.006  28.761  0.00  0.00    -0.004 A 
ATOM      4  C   UNL A   1     -22.895   0.784  27.802  0.00  0.00    -0.022 A 
ATOM      5  C   UNL A   1     -24.759  -0.862  27.783  0.00  0.00    +0.001 A 
ATOM      6  C   UNL A   1     -24.232   0.323  27.293  0.00  0.00    -0.004 A 
ENDROOT
BRANCH   1   7
ATOM      7  C   UNL A   1     -24.531  -2.748  29.239  0.00  0.00    +0.081 A 
ATOM      8  N   UNL A   1     -25.903  -2.669  29.438  0.00  0.00    -0.244 NA
ATOM      9  C   UNL A   1     -26.609  -3.837  29.882  0.00  0.00    +0.099 A 
ATOM     10  C   UNL A   1     -26.085  -4.986  29.606  0.00  0.00    +0.021 A 
ATOM     11  C   UNL A   1     -24.820  -5.065  29.033  0.00  0.00    +0.003 A 
ATOM     12  C   UNL A   1     -24.106  -3.960  28.761  0.00  0.00    +0.019 A 
ENDBRANCH   1   7
BRANCH   4  13
ATOM     13  C   UNL A   1     -22.421   2.024  27.314  0.00  0.00    +0.026 C 
ATOM     14  C   UNL A   1     -22.811   2.237  25.935  0.00  0.00    +0.005 C 
ENDBRANCH   4  13
TORSDOF 2
ENDMDL
ENDMDL
