MODEL 4334
MODEL 1
REMARK VINA RESULT:    -6.647      0.000      0.000
REMARK INTER + INTRA:          -9.238
REMARK INTER:                  -8.590
REMARK INTRA:                  -0.648
REMARK UNBOUND:                -0.648
REMARK  Name = No_4334-gen_results/8p0m/2024-11-26-14-13-15/
REMARK  5 active torsions:
REMARK  status: ('A' for Active; 'I' for Inactive)
REMARK    1  A    between atoms: C_4  and  C_5
REMARK    2  A    between atoms: C_5  and  C_8
REMARK    3  A    between atoms: C_8  and  C_16
REMARK    4  A    between atoms: C_9  and  C_10
REMARK    5  A    between atoms: C_11  and  C_12
REMARK                            x       y       z     vdW  Elec       q    Type
REMARK                         _______ _______ _______ _____ _____    ______ ____
ROOT
ATOM      1  C   UNL A   1     -23.586  -0.604  28.779  0.00  0.00    +0.051 C 
ATOM      2  C   UNL A   1     -24.058  -0.083  27.747  0.00  0.00    +0.008 C 
ENDROOT
BRANCH   2   3
ATOM      3  C   UNL A   1     -25.447  -0.174  27.449  0.00  0.00    +0.031 C 
ATOM      4  C   UNL A   1     -25.810   0.232  26.067  0.00  0.00    +0.184 C 
ATOM      5  F   UNL A   1     -26.635   1.424  26.173  0.00  0.00    -0.203 F 
BRANCH   4   6
ATOM      6  C   UNL A   1     -24.863   0.318  25.148  0.00  0.00    +0.368 C 
ATOM      7  F   UNL A   1     -24.253   1.608  25.097  0.00  0.00    -0.191 F 
ATOM      8  F   UNL A   1     -24.923  -0.058  24.153  0.00  0.00    -0.191 F 
ENDBRANCH   4   6
ENDBRANCH   2   3
BRANCH   1   9
ATOM      9  C   UNL A   1     -22.057  -0.525  29.064  0.00  0.00    +0.096 C 
ATOM     10  N   UNL A   1     -20.953  -0.742  28.900  0.00  0.00    -0.191 NA
ENDBRANCH   1   9
BRANCH   1  11
ATOM     11  C   UNL A   1     -24.247  -1.251  29.864  0.00  0.00    +0.064 C 
BRANCH  11  15
ATOM     12  C   UNL A   1     -26.333  -4.476  29.650  0.00  0.00    +0.011 A 
ATOM     13  C   UNL A   1     -25.590  -5.091  29.225  0.00  0.00    +0.001 A 
ATOM     14  C   UNL A   1     -25.942  -3.093  29.966  0.00  0.00    +0.054 A 
ATOM     15  C   UNL A   1     -24.665  -2.594  29.577  0.00  0.00    -0.006 A 
ATOM     16  C   UNL A   1     -24.250  -4.848  28.652  0.00  0.00    -0.000 A 
ATOM     17  C   UNL A   1     -23.820  -3.496  28.867  0.00  0.00    -0.003 A 
ATOM     18 CL   UNL A   1     -26.898  -2.003  30.871  0.00  0.00    -0.083 Cl
ENDBRANCH  11  15
ENDBRANCH   1  11
TORSDOF 5
ENDMDL
ENDMDL
