REMARK  Name = No_4334-gen_results/8p0m/2024-11-26-14-13-15/
REMARK  5 active torsions:
REMARK  status: ('A' for Active; 'I' for Inactive)
REMARK    1  A    between atoms: C_4  and  C_5
REMARK    2  A    between atoms: C_5  and  C_8
REMARK    3  A    between atoms: C_8  and  C_16
REMARK    4  A    between atoms: C_9  and  C_10
REMARK    5  A    between atoms: C_11  and  C_12
REMARK                            x       y       z     vdW  Elec       q    Type
REMARK                         _______ _______ _______ _____ _____    ______ ____
ROOT
ATOM      1  C   UNL A   1     -23.727   0.171  30.026  0.00  0.00    +0.051 C 
ATOM      2  C   UNL A   1     -24.050   1.254  30.557  0.00  0.00    +0.008 C 
ENDROOT
BRANCH   2   3
ATOM      3  C   UNL A   1     -25.281   1.388  31.259  0.00  0.00    +0.031 C 
ATOM      4  C   UNL A   1     -25.543   2.750  31.792  0.00  0.00    +0.184 C 
ATOM      5  F   UNL A   1     -25.543   2.650  33.242  0.00  0.00    -0.203 F 
BRANCH   4   6
ATOM      6  C   UNL A   1     -24.843   3.772  31.328  0.00  0.00    +0.368 C 
ATOM      7  F   UNL A   1     -25.241   5.021  31.892  0.00  0.00    -0.191 F 
ATOM      8  F   UNL A   1     -24.583   3.938  30.308  0.00  0.00    -0.191 F 
ENDBRANCH   4   6
ENDBRANCH   2   3
BRANCH   1   9
ATOM      9  C   UNL A   1     -22.393   0.059  29.229  0.00  0.00    +0.096 C 
ATOM     10  N   UNL A   1     -21.712   0.126  28.321  0.00  0.00    -0.191 NA
ENDBRANCH   1   9
BRANCH   1  11
ATOM     11  C   UNL A   1     -24.370  -1.100  30.072  0.00  0.00    +0.064 C 
BRANCH  11  15
ATOM     12  C   UNL A   1     -28.016  -0.814  28.878  0.00  0.00    +0.011 A 
ATOM     13  C   UNL A   1     -28.469  -0.785  29.829  0.00  0.00    +0.001 A 
ATOM     14  C   UNL A   1     -26.546  -0.876  28.850  0.00  0.00    +0.054 A 
ATOM     15  C   UNL A   1     -25.804  -1.032  30.057  0.00  0.00    -0.006 A 
ATOM     16  C   UNL A   1     -27.990  -1.005  31.209  0.00  0.00    -0.000 A 
ATOM     17  C   UNL A   1     -26.562  -1.137  31.260  0.00  0.00    -0.003 A 
ATOM     18 CL   UNL A   1     -25.599  -0.689  27.440  0.00  0.00    -0.083 Cl
ENDBRANCH  11  15
ENDBRANCH   1  11
TORSDOF 5
