MODEL 4335
MODEL 1
REMARK VINA RESULT:    -5.879      0.000      0.000
REMARK INTER + INTRA:          -5.879
REMARK INTER:                  -5.879
REMARK INTRA:                   0.000
REMARK UNBOUND:                 0.000
REMARK  Name = No_4335-gen_results/8p0m/2024-11-26-14-13-15/
REMARK  0 active torsions:
REMARK  status: ('A' for Active; 'I' for Inactive)
REMARK                            x       y       z     vdW  Elec       q    Type
REMARK                         _______ _______ _______ _____ _____    ______ ____
ROOT
ATOM      1  C   UNL A   1     -24.967  -0.839  28.054  0.00  0.00    +0.051 C 
ATOM      2  C   UNL A   1     -24.287  -0.012  27.491  0.00  0.00    -0.026 A 
ATOM      3  C   UNL A   1     -24.611   0.539  26.252  0.00  0.00    -0.026 A 
ATOM      4  C   UNL A   1     -23.838   1.540  25.491  0.00  0.00    -0.005 A 
ATOM      5  C   UNL A   1     -22.753   2.150  26.191  0.00  0.00    -0.001 A 
ATOM      6  C   UNL A   1     -22.466   1.650  27.486  0.00  0.00    -0.005 A 
ATOM      7  C   UNL A   1     -23.161   0.681  28.084  0.00  0.00    -0.026 A 
ATOM      8  C   UNL A   1     -24.202  -1.973  28.640  0.00  0.00    -0.026 C 
ATOM      9  C   UNL A   1     -23.590  -1.623  29.798  0.00  0.00    -0.030 C 
ATOM     10  C   UNL A   1     -22.540  -0.676  29.989  0.00  0.00    +0.030 C 
ATOM     11  C   UNL A   1     -22.389   0.241  29.276  0.00  0.00    +0.031 C 
ATOM     12  C   UNL A   1     -25.855   0.200  25.467  0.00  0.00    +0.031 C 
ENDROOT
TORSDOF 0
ENDMDL
ENDMDL
