REMARK  Name = No_4335-gen_results/8p0m/2024-11-26-14-13-15/
REMARK  0 active torsions:
REMARK  status: ('A' for Active; 'I' for Inactive)
REMARK                            x       y       z     vdW  Elec       q    Type
REMARK                         _______ _______ _______ _____ _____    ______ ____
ROOT
ATOM      1  C   UNL A   1     -28.016  -0.814  28.878  0.00  0.00    +0.051 C 
ATOM      2  C   UNL A   1     -27.064  -0.119  28.608  0.00  0.00    -0.026 A 
ATOM      3  C   UNL A   1     -25.765  -0.390  29.036  0.00  0.00    -0.026 A 
ATOM      4  C   UNL A   1     -24.552   0.406  28.765  0.00  0.00    -0.005 A 
ATOM      5  C   UNL A   1     -24.696   1.448  27.799  0.00  0.00    -0.001 A 
ATOM      6  C   UNL A   1     -26.001   1.678  27.297  0.00  0.00    -0.005 A 
ATOM      7  C   UNL A   1     -27.074   0.968  27.650  0.00  0.00    -0.026 A 
ATOM      8  C   UNL A   1     -29.230  -0.064  29.300  0.00  0.00    -0.026 C 
ATOM      9  C   UNL A   1     -29.875   0.486  28.243  0.00  0.00    -0.030 C 
ATOM     10  C   UNL A   1     -29.414   1.514  27.366  0.00  0.00    +0.030 C 
ATOM     11  C   UNL A   1     -28.276   1.687  27.152  0.00  0.00    +0.031 C 
ATOM     12  C   UNL A   1     -25.373  -1.589  29.864  0.00  0.00    +0.031 C 
ENDROOT
TORSDOF 0
