MODEL 4336
MODEL 1
REMARK VINA RESULT:    -5.382      0.000      0.000
REMARK INTER + INTRA:          -6.159
REMARK INTER:                  -6.011
REMARK INTRA:                  -0.147
REMARK UNBOUND:                -0.147
REMARK  Name = No_4336-gen_results/8p0m/2024-11-26-14-13-15/
REMARK  2 active torsions:
REMARK  status: ('A' for Active; 'I' for Inactive)
REMARK    1  A    between atoms: C_2  and  C_3
REMARK    2  A    between atoms: C_3  and  C_4
REMARK                            x       y       z     vdW  Elec       q    Type
REMARK                         _______ _______ _______ _____ _____    ______ ____
ROOT
ATOM      1  C   UNL A   1     -24.329  -2.619  29.379  0.00  0.00    -0.011 A 
ATOM      2  C   UNL A   1     -25.671  -2.537  29.805  0.00  0.00    +0.003 A 
ATOM      3  C   UNL A   1     -26.464  -3.658  29.977  0.00  0.00    +0.034 A 
ATOM      4  C   UNL A   1     -26.007  -4.864  29.528  0.00  0.00    +0.007 A 
ATOM      5  C   UNL A   1     -24.750  -5.018  28.956  0.00  0.00    +0.000 A 
ATOM      6  C   UNL A   1     -23.934  -3.896  28.832  0.00  0.00    -0.004 A 
ATOM      7 BR   UNL A   1     -28.178  -3.410  30.693  0.00  0.00    -0.049 Br
ENDROOT
BRANCH   1   8
ATOM      8  C   UNL A   1     -23.432  -1.498  28.901  0.00  0.00    +0.127 C 
BRANCH   8  10
ATOM      9  O   UNL A   1     -21.258  -1.021  28.869  0.00  0.00    -0.259 OA
ATOM     10  C   UNL A   1     -22.418  -1.142  29.278  0.00  0.00    +0.315 C 
ATOM     11  F   UNL A   1     -22.505  -0.224  30.404  0.00  0.00    -0.163 F 
ENDBRANCH   8  10
ENDBRANCH   1   8
TORSDOF 2
ENDMDL
ENDMDL
