REMARK  Name = No_4336-gen_results/8p0m/2024-11-26-14-13-15/
REMARK  2 active torsions:
REMARK  status: ('A' for Active; 'I' for Inactive)
REMARK    1  A    between atoms: C_2  and  C_3
REMARK    2  A    between atoms: C_3  and  C_4
REMARK                            x       y       z     vdW  Elec       q    Type
REMARK                         _______ _______ _______ _____ _____    ______ ____
ROOT
ATOM      1  C   UNL A   1     -24.760  -0.156  29.164  0.00  0.00    -0.011 A 
ATOM      2  C   UNL A   1     -23.389  -0.455  29.016  0.00  0.00    +0.003 A 
ATOM      3  C   UNL A   1     -22.406   0.516  29.095  0.00  0.00    +0.034 A 
ATOM      4  C   UNL A   1     -22.777   1.830  29.112  0.00  0.00    +0.007 A 
ATOM      5  C   UNL A   1     -24.108   2.228  29.111  0.00  0.00    +0.000 A 
ATOM      6  C   UNL A   1     -25.096   1.247  29.083  0.00  0.00    -0.004 A 
ATOM      7 BR   UNL A   1     -20.620  -0.048  29.032  0.00  0.00    -0.049 Br
ENDROOT
BRANCH   1   8
ATOM      8  C   UNL A   1     -25.946  -1.040  28.849  0.00  0.00    +0.127 C 
BRANCH   8  10
ATOM      9  O   UNL A   1     -28.123  -1.335  28.487  0.00  0.00    -0.259 OA
ATOM     10  C   UNL A   1     -27.064  -0.824  28.869  0.00  0.00    +0.315 C 
ATOM     11  F   UNL A   1     -27.462   0.088  29.931  0.00  0.00    -0.163 F 
ENDBRANCH   8  10
ENDBRANCH   1   8
TORSDOF 2
