MODEL 4337
MODEL 1
REMARK VINA RESULT:    -9.395      0.000      0.000
REMARK INTER + INTRA:         -14.060
REMARK INTER:                 -12.141
REMARK INTRA:                  -1.919
REMARK UNBOUND:                -1.919
REMARK  Name = No_4337-gen_results/8p0m/2024-11-26-14-13-15/
REMARK  5 active torsions:
REMARK  status: ('A' for Active; 'I' for Inactive)
REMARK    1  A    between atoms: C_3  and  C_7
REMARK    2  A    between atoms: C_4  and  C_18
REMARK    3  A    between atoms: C_7  and  C_8
REMARK    4  A    between atoms: C_18  and  C_19
REMARK    5  A    between atoms: C_18  and  C_20
REMARK                            x       y       z     vdW  Elec       q    Type
REMARK                         _______ _______ _______ _____ _____    ______ ____
ROOT
ATOM      1  C   UNL A   1     -22.671   1.164  27.688  0.00  0.00    -0.004 A 
ATOM      2  C   UNL A   1     -21.628   1.035  27.760  0.00  0.00    -0.000 A 
ATOM      3  C   UNL A   1     -23.469   0.387  28.593  0.00  0.00    -0.021 A 
ATOM      4  C   UNL A   1     -22.962  -0.571  29.374  0.00  0.00    -0.018 A 
ATOM      5  C   UNL A   1     -21.603  -0.721  29.347  0.00  0.00    -0.004 A 
ATOM      6  C   UNL A   1     -20.861   0.093  28.493  0.00  0.00    -0.000 A 
ENDROOT
BRANCH   3   7
ATOM      7  C   UNL A   1     -24.985   0.637  28.591  0.00  0.00    +0.052 C 
BRANCH   7   8
ATOM      8  C   UNL A   1     -25.547   0.871  27.281  0.00  0.00    -0.018 A 
ATOM      9  C   UNL A   1     -26.371   1.897  26.989  0.00  0.00    -0.004 A 
ATOM     10  C   UNL A   1     -26.928   2.049  25.692  0.00  0.00    -0.000 A 
ATOM     11  C   UNL A   1     -27.830   3.143  25.377  0.00  0.00    -0.000 A 
ATOM     12  C   UNL A   1     -28.572   3.100  24.204  0.00  0.00    -0.000 A 
ATOM     13  C   UNL A   1     -28.442   1.984  23.342  0.00  0.00    -0.000 A 
ATOM     14  C   UNL A   1     -27.791   0.801  23.773  0.00  0.00    -0.000 A 
ATOM     15  C   UNL A   1     -27.132   0.842  24.922  0.00  0.00    -0.000 A 
ATOM     16  C   UNL A   1     -25.366  -0.203  26.344  0.00  0.00    -0.004 A 
ATOM     17  C   UNL A   1     -26.121  -0.273  25.109  0.00  0.00    -0.000 A 
ENDBRANCH   7   8
ENDBRANCH   3   7
BRANCH   4  18
ATOM     18  C   UNL A   1     -23.765  -1.389  30.221  0.00  0.00    +0.095 C 
BRANCH  18  19
ATOM     19  C   UNL A   1     -24.204  -2.579  29.755  0.00  0.00    -0.014 A 
ATOM     20  C   UNL A   1     -23.788  -3.269  28.752  0.00  0.00    -0.004 A 
ATOM     21  C   UNL A   1     -24.121  -4.612  28.470  0.00  0.00    -0.000 A 
ATOM     22  C   UNL A   1     -25.039  -5.205  29.296  0.00  0.00    -0.000 A 
ATOM     23  C   UNL A   1     -25.690  -2.727  29.806  0.00  0.00    -0.004 A 
ATOM     24  C   UNL A   1     -26.118  -4.223  29.624  0.00  0.00    -0.000 A 
ENDBRANCH  18  19
BRANCH  18  25
ATOM     25  C   UNL A   1     -23.953  -0.973  31.557  0.00  0.00    +0.259 C 
ATOM     26  F   UNL A   1     -24.155   0.180  31.685  0.00  0.00    -0.216 F 
ATOM     27  N   UNL A   1     -22.966  -1.458  32.456  0.00  0.00    -0.093 NA
ENDBRANCH  18  25
ENDBRANCH   4  18
TORSDOF 5
ENDMDL
ENDMDL
