REMARK  Name = No_4337-gen_results/8p0m/2024-11-26-14-13-15/
REMARK  5 active torsions:
REMARK  status: ('A' for Active; 'I' for Inactive)
REMARK    1  A    between atoms: C_3  and  C_7
REMARK    2  A    between atoms: C_4  and  C_18
REMARK    3  A    between atoms: C_7  and  C_8
REMARK    4  A    between atoms: C_18  and  C_19
REMARK    5  A    between atoms: C_18  and  C_20
REMARK                            x       y       z     vdW  Elec       q    Type
REMARK                         _______ _______ _______ _____ _____    ______ ____
ROOT
ATOM      1  C   UNL A   1     -28.016  -0.814  28.878  0.00  0.00    -0.004 A 
ATOM      2  C   UNL A   1     -28.469  -0.785  29.829  0.00  0.00    -0.000 A 
ATOM      3  C   UNL A   1     -28.196   0.348  28.055  0.00  0.00    -0.021 A 
ATOM      4  C   UNL A   1     -29.019   1.350  28.378  0.00  0.00    -0.018 A 
ATOM      5  C   UNL A   1     -29.625   1.268  29.601  0.00  0.00    -0.004 A 
ATOM      6  C   UNL A   1     -29.379   0.147  30.392  0.00  0.00    -0.000 A 
ENDROOT
BRANCH   3   7
ATOM      7  C   UNL A   1     -27.455   0.382  26.710  0.00  0.00    +0.052 C 
BRANCH   7   8
ATOM      8  C   UNL A   1     -26.016   0.424  26.824  0.00  0.00    -0.018 A 
ATOM      9  C   UNL A   1     -25.331  -0.059  27.879  0.00  0.00    -0.004 A 
ATOM     10  C   UNL A   1     -23.917   0.052  27.953  0.00  0.00    -0.000 A 
ATOM     11  C   UNL A   1     -23.176  -0.453  29.096  0.00  0.00    -0.000 A 
ATOM     12  C   UNL A   1     -21.850  -0.077  29.270  0.00  0.00    -0.000 A 
ATOM     13  C   UNL A   1     -21.250   0.800  28.334  0.00  0.00    -0.000 A 
ATOM     14  C   UNL A   1     -22.035   1.510  27.391  0.00  0.00    -0.000 A 
ATOM     15  C   UNL A   1     -23.313   1.177  27.275  0.00  0.00    -0.000 A 
ATOM     16  C   UNL A   1     -25.355   1.237  25.841  0.00  0.00    -0.004 A 
ATOM     17  C   UNL A   1     -23.971   1.641  25.990  0.00  0.00    -0.000 A 
ENDBRANCH   7   8
ENDBRANCH   3   7
BRANCH   4  18
ATOM     18  C   UNL A   1     -29.250   2.470  27.528  0.00  0.00    +0.095 C 
BRANCH  18  19
ATOM     19  C   UNL A   1     -28.408   3.525  27.595  0.00  0.00    -0.014 A 
ATOM     20  C   UNL A   1     -27.530   3.817  28.489  0.00  0.00    -0.004 A 
ATOM     21  C   UNL A   1     -26.517   4.794  28.374  0.00  0.00    -0.000 A 
ATOM     22  C   UNL A   1     -26.526   5.559  27.237  0.00  0.00    -0.000 A 
ATOM     23  C   UNL A   1     -29.027   4.811  27.150  0.00  0.00    -0.004 A 
ATOM     24  C   UNL A   1     -27.937   5.904  26.883  0.00  0.00    -0.000 A 
ENDBRANCH  18  19
BRANCH  18  25
ATOM     25  C   UNL A   1     -30.273   2.367  26.561  0.00  0.00    +0.259 C 
ATOM     26  F   UNL A   1     -30.727   1.287  26.445  0.00  0.00    -0.216 F 
ATOM     27  N   UNL A   1     -29.948   2.960  25.312  0.00  0.00    -0.093 NA
ENDBRANCH  18  25
ENDBRANCH   4  18
TORSDOF 5
