REMARK  Name = No_4338-gen_results/8p0m/2024-11-26-14-13-15/
REMARK  0 active torsions:
REMARK  status: ('A' for Active; 'I' for Inactive)
REMARK                            x       y       z     vdW  Elec       q    Type
REMARK                         _______ _______ _______ _____ _____    ______ ____
ROOT
ATOM      1  C   UNL A   1     -28.016  -0.814  28.878  0.00  0.00    +0.015 A 
ATOM      2  C   UNL A   1     -28.469  -0.785  29.829  0.00  0.00    +0.148 A 
ATOM      3  C   UNL A   1     -28.182   0.428  28.113  0.00  0.00    +0.000 A 
ATOM      4  C   UNL A   1     -27.450   0.643  26.850  0.00  0.00    -0.005 C 
ATOM      5  C   UNL A   1     -26.181   0.036  26.715  0.00  0.00    -0.025 C 
ATOM      6  C   UNL A   1     -25.780  -0.933  27.694  0.00  0.00    +0.035 C 
ATOM      7  C   UNL A   1     -26.557  -1.213  28.741  0.00  0.00    +0.053 C 
ATOM      8  N   UNL A   1     -29.592  -0.315  30.205  0.00  0.00    -0.228 NA
ATOM      9  N   UNL A   1     -27.944  -1.815  30.782  0.00  0.00    -0.193 NA
ATOM     10  C   UNL A   1     -26.083  -2.169  29.689  0.00  0.00    -0.004 C 
ATOM     11  C   UNL A   1     -26.873  -2.494  30.704  0.00  0.00    +0.083 C 
ATOM     12  C   UNL A   1     -30.183   0.561  29.376  0.00  0.00    +0.100 A 
ATOM     13  C   UNL A   1     -29.447   1.006  28.183  0.00  0.00    +0.021 A 
ENDROOT
TORSDOF 0
