MODEL 4338
MODEL 1
REMARK VINA RESULT:    -5.796      0.000      0.000
REMARK INTER + INTRA:          -5.796
REMARK INTER:                  -5.796
REMARK INTRA:                   0.000
REMARK UNBOUND:                 0.000
REMARK  Name = No_4338-gen_results/8p0m/2024-11-26-14-13-15/
REMARK  0 active torsions:
REMARK  status: ('A' for Active; 'I' for Inactive)
REMARK                            x       y       z     vdW  Elec       q    Type
REMARK                         _______ _______ _______ _____ _____    ______ ____
ROOT
ATOM      1  C   UNL A   1     -25.856  -2.800  29.956  0.00  0.00    +0.015 A 
ATOM      2  C   UNL A   1     -26.606  -2.063  30.018  0.00  0.00    +0.148 A 
ATOM      3  C   UNL A   1     -26.373  -4.136  29.631  0.00  0.00    +0.000 A 
ATOM      4  C   UNL A   1     -25.455  -5.245  29.309  0.00  0.00    -0.005 C 
ATOM      5  C   UNL A   1     -24.228  -4.923  28.685  0.00  0.00    -0.025 C 
ATOM      6  C   UNL A   1     -23.841  -3.543  28.614  0.00  0.00    +0.035 C 
ATOM      7  C   UNL A   1     -24.642  -2.580  29.070  0.00  0.00    +0.053 C 
ATOM      8  N   UNL A   1     -27.772  -2.099  30.532  0.00  0.00    -0.228 NA
ATOM      9  N   UNL A   1     -26.092  -0.662  29.890  0.00  0.00    -0.193 NA
ATOM     10  C   UNL A   1     -24.203  -1.228  28.943  0.00  0.00    -0.004 C 
ATOM     11  C   UNL A   1     -24.969  -0.268  29.444  0.00  0.00    +0.083 C 
ATOM     12  C   UNL A   1     -28.290  -3.317  30.759  0.00  0.00    +0.100 A 
ATOM     13  C   UNL A   1     -27.547  -4.496  30.287  0.00  0.00    +0.021 A 
ENDROOT
TORSDOF 0
ENDMDL
ENDMDL
