MODEL 4339
MODEL 1
REMARK VINA RESULT:    -5.699      0.000      0.000
REMARK INTER + INTRA:          -8.260
REMARK INTER:                  -7.698
REMARK INTRA:                  -0.562
REMARK UNBOUND:                -0.562
REMARK  Name = No_4339-gen_results/8p0m/2024-11-26-14-13-15/
REMARK  6 active torsions:
REMARK  status: ('A' for Active; 'I' for Inactive)
REMARK    1  A    between atoms: C_1  and  C_7
REMARK    2  A    between atoms: C_3  and  C_14
REMARK    3  A    between atoms: C_6  and  C_10
REMARK    4  A    between atoms: C_14  and  C_15
REMARK    5  A    between atoms: C_15  and  C_16
REMARK    6  A    between atoms: C_16  and  O_17
REMARK                            x       y       z     vdW  Elec       q    Type
REMARK                         _______ _______ _______ _____ _____    ______ ____
ROOT
ATOM      1  C   UNL A   1     -30.207 -15.498  11.282  0.00  0.00    +0.080 A 
ATOM      2  C   UNL A   1     -29.476 -15.717  10.345  0.00  0.00    +0.003 A 
ATOM      3  C   UNL A   1     -29.929 -15.968   9.064  0.00  0.00    -0.016 A 
ATOM      4  C   UNL A   1     -31.238 -15.765   8.853  0.00  0.00    +0.001 A 
ATOM      5  C   UNL A   1     -31.509 -15.002  11.055  0.00  0.00    +0.011 A 
ATOM      6  C   UNL A   1     -32.010 -15.254   9.845  0.00  0.00    +0.055 A 
ENDROOT
BRANCH   6   7
ATOM      7  C   UNL A   1     -33.449 -15.004   9.554  0.00  0.00    +0.265 C 
ATOM      8  O   UNL A   1     -33.992 -15.437   8.733  0.00  0.00    -0.268 OA
ATOM      9  N   UNL A   1     -34.152 -14.354  10.555  0.00  0.00    -0.200 NA
ATOM     10  C   UNL A   1     -35.598 -14.071  10.417  0.00  0.00    +0.139 C 
ENDBRANCH   6   7
BRANCH   1  11
ATOM     11  C   UNL A   1     -29.567 -15.261  12.658  0.00  0.00    +0.388 C 
ATOM     12  O   UNL A   1     -28.790 -15.786  13.167  0.00  0.00    -0.241 OA
ATOM     13  O   UNL A   1     -29.922 -13.992  13.154  0.00  0.00    -0.241 OA
ENDBRANCH   1  11
BRANCH   3  14
ATOM     14  C   UNL A   1     -29.196 -16.404   7.868  0.00  0.00    +0.072 C 
BRANCH  14  15
ATOM     15  C   UNL A   1     -27.786 -15.991   7.822  0.00  0.00    +0.092 C 
ATOM     16  N   UNL A   1     -27.525 -14.605   7.716  0.00  0.00    -0.154 NA
BRANCH  15  17
ATOM     17  C   UNL A   1     -26.719 -16.838   8.011  0.00  0.00    +0.185 C 
BRANCH  17  18
ATOM     18  O   UNL A   1     -26.366 -16.862   9.118  0.00  0.00    -0.345 OA
ATOM     19  C   UNL A   1     -26.647 -18.182   9.863  0.00  0.00    +0.175 C 
ENDBRANCH  17  18
ENDBRANCH  15  17
ENDBRANCH  14  15
ENDBRANCH   3  14
TORSDOF 6
ENDMDL
ENDMDL
