REMARK  Name = No_4339-gen_results/8p0m/2024-11-26-14-13-15/
REMARK  6 active torsions:
REMARK  status: ('A' for Active; 'I' for Inactive)
REMARK    1  A    between atoms: C_1  and  C_7
REMARK    2  A    between atoms: C_3  and  C_14
REMARK    3  A    between atoms: C_6  and  C_10
REMARK    4  A    between atoms: C_14  and  C_15
REMARK    5  A    between atoms: C_15  and  C_16
REMARK    6  A    between atoms: C_16  and  O_17
REMARK                            x       y       z     vdW  Elec       q    Type
REMARK                         _______ _______ _______ _____ _____    ______ ____
ROOT
ATOM      1  C   UNL A   1     -28.016  -0.814  28.878  0.00  0.00    +0.080 A 
ATOM      2  C   UNL A   1     -27.064  -0.119  28.608  0.00  0.00    +0.003 A 
ATOM      3  C   UNL A   1     -27.001   0.691  27.491  0.00  0.00    -0.016 A 
ATOM      4  C   UNL A   1     -28.142   0.828  26.799  0.00  0.00    +0.001 A 
ATOM      5  C   UNL A   1     -29.290  -0.487  28.366  0.00  0.00    +0.011 A 
ATOM      6  C   UNL A   1     -29.285   0.261  27.262  0.00  0.00    +0.055 A 
ENDROOT
BRANCH   6   7
ATOM      7  C   UNL A   1     -30.537   0.474  26.486  0.00  0.00    +0.265 C 
ATOM      8  O   UNL A   1     -31.488   0.031  26.724  0.00  0.00    -0.268 OA
ATOM      9  N   UNL A   1     -30.487   1.491  25.547  0.00  0.00    -0.200 NA
ATOM     10  C   UNL A   1     -31.670   1.837  24.727  0.00  0.00    +0.139 C 
ENDBRANCH   6   7
BRANCH   1  11
ATOM     11  C   UNL A   1     -27.939  -1.686  30.140  0.00  0.00    +0.388 C 
ATOM     12  O   UNL A   1     -28.676  -1.917  30.876  0.00  0.00    -0.241 OA
ATOM     13  O   UNL A   1     -26.775  -2.478  30.121  0.00  0.00    -0.241 OA
ENDBRANCH   1  11
BRANCH   3  14
ATOM     14  C   UNL A   1     -25.878   1.461  26.940  0.00  0.00    +0.072 C 
BRANCH  14  15
ATOM     15  C   UNL A   1     -25.103   2.219  27.933  0.00  0.00    +0.092 C 
ATOM     16  N   UNL A   1     -25.734   3.338  28.524  0.00  0.00    -0.154 NA
BRANCH  15  17
ATOM     17  C   UNL A   1     -23.874   1.838  28.419  0.00  0.00    +0.185 C 
BRANCH  17  18
ATOM     18  O   UNL A   1     -23.763   0.682  28.479  0.00  0.00    -0.345 OA
ATOM     19  C   UNL A   1     -22.994   0.164  29.710  0.00  0.00    +0.175 C 
ENDBRANCH  17  18
ENDBRANCH  15  17
ENDBRANCH  14  15
ENDBRANCH   3  14
TORSDOF 6
