MODEL 433
MODEL 1
REMARK VINA RESULT:    -6.597      0.000      0.000
REMARK INTER + INTRA:         -12.662
REMARK INTER:                 -10.454
REMARK INTRA:                  -2.209
REMARK UNBOUND:                -2.209
REMARK  Name = No_433-gen_results/8p0m/2024-11-26-14-13-15/
REMARK  10 active torsions:
REMARK  status: ('A' for Active; 'I' for Inactive)
REMARK    1  A    between atoms: C_2  and  O_23
REMARK    2  A    between atoms: C_3  and  C_4
REMARK    3  A    between atoms: C_11  and  C_13
REMARK    4  A    between atoms: C_13  and  O_15
REMARK    5  A    between atoms: O_15  and  C_16
REMARK    6  A    between atoms: C_16  and  C_17
REMARK    7  A    between atoms: C_17  and  C_18
REMARK    8  A    between atoms: C_18  and  C_19
REMARK    9  A    between atoms: O_23  and  C_24
REMARK   10  A    between atoms: C_24  and  C_25
REMARK                            x       y       z     vdW  Elec       q    Type
REMARK                         _______ _______ _______ _____ _____    ______ ____
ROOT
ATOM      1  C   UNL A   1     -24.671  -2.674  28.897  0.00  0.00    +0.006 A 
ATOM      2  C   UNL A   1     -23.984  -3.800  28.683  0.00  0.00    +0.000 A 
ATOM      3  C   UNL A   1     -24.588  -5.044  29.075  0.00  0.00    +0.000 A 
ATOM      4  C   UNL A   1     -25.917  -5.004  29.522  0.00  0.00    +0.000 A 
ATOM      5  C   UNL A   1     -25.913  -2.803  29.437  0.00  0.00    +0.076 A 
ATOM      6  C   UNL A   1     -26.502  -3.863  29.828  0.00  0.00    +0.006 A 
ENDROOT
BRANCH   1   9
ATOM      7  C   UNL A   1     -24.631  -0.449  27.562  0.00  0.00    +0.037 A 
ATOM      8  C   UNL A   1     -24.055   0.422  27.421  0.00  0.00    +0.139 A 
ATOM      9  C   UNL A   1     -24.012  -1.422  28.462  0.00  0.00    +0.003 A 
ATOM     10  C   UNL A   1     -23.113   0.777  27.889  0.00  0.00    +0.037 A 
ATOM     11  C   UNL A   1     -22.284   0.091  28.801  0.00  0.00    +0.003 A 
ATOM     12  C   UNL A   1     -22.833  -1.078  29.145  0.00  0.00    +0.000 A 
BRANCH   8  13
ATOM     13  O   UNL A   1     -24.704   1.365  26.436  0.00  0.00    -0.467 OA
BRANCH  13  14
ATOM     14  C   UNL A   1     -26.012   1.692  26.499  0.00  0.00    +0.277 C 
BRANCH  14  15
ATOM     15  C   UNL A   1     -26.660   1.479  25.305  0.00  0.00    +0.255 C 
ATOM     16  O   UNL A   1     -26.505   0.601  24.612  0.00  0.00    -0.284 OA
ENDBRANCH  14  15
ENDBRANCH  13  14
ENDBRANCH   8  13
ENDBRANCH   1   9
BRANCH   5  17
ATOM     17  C   UNL A   1     -26.654  -1.479  29.765  0.00  0.00    +0.341 C 
ATOM     18  O   UNL A   1     -27.460  -0.979  29.053  0.00  0.00    -0.245 OA
BRANCH  17  19
ATOM     19  O   UNL A   1     -26.395  -0.864  30.976  0.00  0.00    -0.445 OA
BRANCH  19  20
ATOM     20  C   UNL A   1     -25.878   0.379  30.983  0.00  0.00    +0.209 C 
BRANCH  20  21
ATOM     21  C   UNL A   1     -24.787   0.624  31.660  0.00  0.00    +0.056 C 
BRANCH  21  22
ATOM     22  C   UNL A   1     -24.504  -0.147  32.769  0.00  0.00    +0.107 C 
BRANCH  22  23
ATOM     23  C   UNL A   1     -23.608  -1.178  32.698  0.00  0.00    +0.398 C 
ATOM     24  F   UNL A   1     -23.925  -2.162  31.982  0.00  0.00    -0.170 F 
ATOM     25  F   UNL A   1     -22.354  -0.893  32.571  0.00  0.00    -0.170 F 
ATOM     26  F   UNL A   1     -23.580  -1.758  34.015  0.00  0.00    -0.170 F 
ENDBRANCH  22  23
ENDBRANCH  21  22
ENDBRANCH  20  21
ENDBRANCH  19  20
ENDBRANCH  17  19
ENDBRANCH   5  17
TORSDOF 10
ENDMDL
ENDMDL
