REMARK  Name = No_434-gen_results/8p0m/2024-11-26-14-13-15/
REMARK  3 active torsions:
REMARK  status: ('A' for Active; 'I' for Inactive)
REMARK    1  A    between atoms: C_2  and  C_13
REMARK    2  A    between atoms: C_4  and  C_6
REMARK    3  A    between atoms: N_15  and  C_16
REMARK                            x       y       z     vdW  Elec       q    Type
REMARK                         _______ _______ _______ _____ _____    ______ ____
ROOT
ATOM      1  C   UNL A   1     -28.016  -0.814  28.878  0.00  0.00    +0.005 A 
ATOM      2  C   UNL A   1     -28.469  -0.785  29.829  0.00  0.00    +0.055 A 
ATOM      3  C   UNL A   1     -26.546  -0.876  28.850  0.00  0.00    +0.002 A 
ATOM      4  C   UNL A   1     -25.804  -1.032  30.057  0.00  0.00    +0.018 A 
ATOM      5  C   UNL A   1     -27.944  -0.987  31.207  0.00  0.00    +0.005 A 
ATOM      6  C   UNL A   1     -26.561  -1.075  31.227  0.00  0.00    +0.002 A 
ENDROOT
BRANCH   4   7
ATOM      7  C   UNL A   1     -24.401  -1.097  30.096  0.00  0.00    +0.085 A 
ATOM      8  N   UNL A   1     -23.689  -1.122  29.118  0.00  0.00    -0.224 NA
ATOM      9  C   UNL A   1     -22.295  -1.014  29.256  0.00  0.00    +0.199 A 
ATOM     10  C   UNL A   1     -23.730  -1.111  31.379  0.00  0.00    +0.040 A 
ATOM     11  C   UNL A   1     -22.330  -0.970  31.522  0.00  0.00    +0.102 A 
ATOM     12  N   UNL A   1     -21.667  -0.920  30.336  0.00  0.00    -0.222 NA
ENDBRANCH   4   7
BRANCH   2  13
ATOM     13  C   UNL A   1     -30.081  -0.666  29.880  0.00  0.00    +0.269 C 
ATOM     14  O   UNL A   1     -30.802  -1.432  30.340  0.00  0.00    -0.268 OA
ATOM     15  N   UNL A   1     -30.487   0.622  29.552  0.00  0.00    -0.175 NA
BRANCH  15  16
ATOM     16  C   UNL A   1     -29.713   1.689  29.128  0.00  0.00    +0.074 A 
ATOM     17  C   UNL A   1     -29.716   2.347  28.291  0.00  0.00    +0.017 A 
ATOM     18  C   UNL A   1     -28.798   3.486  27.940  0.00  0.00    +0.001 A 
ATOM     19  C   UNL A   1     -27.700   3.694  28.762  0.00  0.00    +0.000 A 
ATOM     20  C   UNL A   1     -28.467   1.916  30.012  0.00  0.00    +0.017 A 
ATOM     21  C   UNL A   1     -27.620   2.953  29.861  0.00  0.00    +0.001 A 
ENDBRANCH  15  16
ENDBRANCH   2  13
TORSDOF 3
