MODEL 4340
MODEL 1
REMARK VINA RESULT:    -5.217      0.000      0.000
REMARK INTER + INTRA:          -5.681
REMARK INTER:                  -5.522
REMARK INTRA:                  -0.160
REMARK UNBOUND:                -0.160
REMARK  Name = No_4340-gen_results/8p0m/2024-11-26-14-13-15/
REMARK  1 active torsions:
REMARK  status: ('A' for Active; 'I' for Inactive)
REMARK    1  A    between atoms: C_2  and  C_7
REMARK                            x       y       z     vdW  Elec       q    Type
REMARK                         _______ _______ _______ _____ _____    ______ ____
ROOT
ATOM      1  C   UNL A   1     -23.896  -3.836  28.793  0.00  0.00    +0.004 A 
ATOM      2  C   UNL A   1     -24.379  -2.759  29.053  0.00  0.00    +0.071 A 
ATOM      3  C   UNL A   1     -25.655  -2.656  29.595  0.00  0.00    +0.004 A 
ATOM      4  C   UNL A   1     -26.461  -3.828  29.821  0.00  0.00    -0.000 A 
ATOM      5  C   UNL A   1     -25.834  -5.031  29.470  0.00  0.00    -0.000 A 
ATOM      6  C   UNL A   1     -24.631  -5.073  28.944  0.00  0.00    -0.000 A 
ENDROOT
BRANCH   2   7
ATOM      7  C   UNL A   1     -23.704  -1.447  28.861  0.00  0.00    +0.419 C 
ATOM      8  F   UNL A   1     -24.028  -0.854  27.989  0.00  0.00    -0.166 F 
ATOM      9  F   UNL A   1     -23.997  -0.724  30.042  0.00  0.00    -0.166 F 
ATOM     10  F   UNL A   1     -22.320  -1.555  28.938  0.00  0.00    -0.166 F 
ENDBRANCH   2   7
TORSDOF 1
ENDMDL
ENDMDL
