MODEL 4341
MODEL 1
REMARK VINA RESULT:    -7.518      0.000      0.000
REMARK INTER + INTRA:          -9.012
REMARK INTER:                  -8.836
REMARK INTRA:                  -0.175
REMARK UNBOUND:                -0.175
REMARK  Name = No_4341-gen_results/8p0m/2024-11-26-14-13-15/
REMARK  3 active torsions:
REMARK  status: ('A' for Active; 'I' for Inactive)
REMARK    1  A    between atoms: C_6  and  C_14
REMARK    2  A    between atoms: C_7  and  C_17
REMARK    3  A    between atoms: C_9  and  C_11
REMARK                            x       y       z     vdW  Elec       q    Type
REMARK                         _______ _______ _______ _____ _____    ______ ____
ROOT
ATOM      1  C   UNL A   1     -13.026   2.378  36.718  0.00  0.00    +0.007 A 
ATOM      2  C   UNL A   1     -12.070   1.833  36.217  0.00  0.00    +0.005 A 
ATOM      3  C   UNL A   1     -11.949   1.723  34.836  0.00  0.00    +0.000 A 
ATOM      4  C   UNL A   1     -12.982   2.213  33.960  0.00  0.00    +0.000 A 
ATOM      5  C   UNL A   1     -14.063   2.807  34.625  0.00  0.00    +0.007 A 
ATOM      6  C   UNL A   1     -14.137   2.871  35.934  0.00  0.00    +0.080 A 
ATOM      7  C   UNL A   1     -10.926   1.247  36.966  0.00  0.00    +0.054 A 
ATOM      8  C   UNL A   1      -9.727   1.209  36.502  0.00  0.00    +0.009 A 
ATOM      9  C   UNL A   1      -9.556   1.120  34.990  0.00  0.00    +0.057 A 
ATOM     10  C   UNL A   1     -10.626   1.501  34.191  0.00  0.00    +0.005 A 
ENDROOT
BRANCH   7  11
ATOM     11  C   UNL A   1     -11.110   1.172  38.453  0.00  0.00    +0.249 C 
ATOM     12  O   UNL A   1     -11.192   2.018  39.185  0.00  0.00    -0.270 OA
ATOM     13  N   UNL A   1     -11.178  -0.210  38.887  0.00  0.00    -0.276 N 
ATOM     14  C   UNL A   1     -11.322  -0.512  40.294  0.00  0.00    +0.094 C 
ATOM     15  C   UNL A   1     -12.029  -1.604  40.500  0.00  0.00    +0.022 C 
ATOM     16  C   UNL A   1     -12.137  -2.593  39.530  0.00  0.00    +0.004 C 
ATOM     17  C   UNL A   1     -11.833  -2.305  38.162  0.00  0.00    +0.022 C 
ATOM     18  C   UNL A   1     -11.435  -1.140  37.905  0.00  0.00    +0.094 C 
ENDBRANCH   7  11
BRANCH   9  19
ATOM     19  C   UNL A   1      -8.275   0.768  34.400  0.00  0.00    +0.284 C 
ATOM     20  N   UNL A   1      -7.402   1.711  34.089  0.00  0.00    -0.084 NA
ATOM     21  O   UNL A   1      -7.950  -0.429  34.178  0.00  0.00    -0.267 OA
ENDBRANCH   9  19
BRANCH   6  22
ATOM     22  C   UNL A   1     -15.404   3.386  36.519  0.00  0.00    +0.388 C 
ATOM     23  O   UNL A   1     -15.587   3.473  37.591  0.00  0.00    -0.241 OA
ATOM     24  O   UNL A   1     -16.325   3.774  35.646  0.00  0.00    -0.241 OA
ENDBRANCH   6  22
TORSDOF 3
ENDMDL
ENDMDL
