REMARK  Name = No_4341-gen_results/8p0m/2024-11-26-14-13-15/
REMARK  3 active torsions:
REMARK  status: ('A' for Active; 'I' for Inactive)
REMARK    1  A    between atoms: C_6  and  C_14
REMARK    2  A    between atoms: C_7  and  C_17
REMARK    3  A    between atoms: C_9  and  C_11
REMARK                            x       y       z     vdW  Elec       q    Type
REMARK                         _______ _______ _______ _____ _____    ______ ____
ROOT
ATOM      1  C   UNL A   1     -28.016  -0.814  28.878  0.00  0.00    +0.007 A 
ATOM      2  C   UNL A   1     -27.064  -0.119  28.608  0.00  0.00    +0.005 A 
ATOM      3  C   UNL A   1     -25.792  -0.430  29.076  0.00  0.00    +0.000 A 
ATOM      4  C   UNL A   1     -25.576  -1.565  29.936  0.00  0.00    +0.000 A 
ATOM      5  C   UNL A   1     -26.735  -2.300  30.217  0.00  0.00    +0.007 A 
ATOM      6  C   UNL A   1     -27.918  -1.954  29.763  0.00  0.00    +0.080 A 
ATOM      7  C   UNL A   1     -27.106   1.102  27.759  0.00  0.00    +0.054 A 
ATOM      8  C   UNL A   1     -26.122   1.482  27.023  0.00  0.00    +0.009 A 
ATOM      9  C   UNL A   1     -24.714   1.130  27.489  0.00  0.00    +0.057 A 
ATOM     10  C   UNL A   1     -24.572   0.097  28.407  0.00  0.00    +0.005 A 
ENDROOT
BRANCH   7  11
ATOM     11  C   UNL A   1     -28.482   1.579  27.398  0.00  0.00    +0.249 C 
ATOM     12  O   UNL A   1     -28.948   1.645  26.380  0.00  0.00    -0.270 OA
ATOM     13  N   UNL A   1     -29.209   1.978  28.587  0.00  0.00    -0.276 N 
ATOM     14  C   UNL A   1     -30.551   2.503  28.463  0.00  0.00    +0.094 C 
ATOM     15  C   UNL A   1     -31.309   2.183  29.492  0.00  0.00    +0.022 C 
ATOM     16  C   UNL A   1     -30.760   1.878  30.731  0.00  0.00    +0.004 C 
ATOM     17  C   UNL A   1     -29.381   1.514  30.845  0.00  0.00    +0.022 C 
ATOM     18  C   UNL A   1     -28.705   1.525  29.785  0.00  0.00    +0.094 C 
ENDBRANCH   7  11
BRANCH   9  19
ATOM     19  C   UNL A   1     -23.548   1.768  26.901  0.00  0.00    +0.284 C 
ATOM     20  N   UNL A   1     -22.453   1.948  27.619  0.00  0.00    -0.084 NA
ATOM     21  O   UNL A   1     -23.534   2.155  25.702  0.00  0.00    -0.267 OA
ENDBRANCH   9  19
BRANCH   6  22
ATOM     22  C   UNL A   1     -29.089  -2.726  30.257  0.00  0.00    +0.388 C 
ATOM     23  O   UNL A   1     -30.124  -2.399  30.146  0.00  0.00    -0.241 OA
ATOM     24  O   UNL A   1     -28.809  -3.886  30.838  0.00  0.00    -0.241 OA
ENDBRANCH   6  22
TORSDOF 3
