MODEL 4342
MODEL 1
REMARK VINA RESULT:    -6.448      0.000      0.000
REMARK INTER + INTRA:          -7.025
REMARK INTER:                  -6.824
REMARK INTRA:                  -0.201
REMARK UNBOUND:                -0.201
REMARK  Name = No_4342-gen_results/8p0m/2024-11-26-14-13-15/
REMARK  1 active torsions:
REMARK  status: ('A' for Active; 'I' for Inactive)
REMARK    1  A    between atoms: C_9  and  C_11
REMARK                            x       y       z     vdW  Elec       q    Type
REMARK                         _______ _______ _______ _____ _____    ______ ____
ROOT
ATOM      1  C   UNL A   1     -26.468  -3.390  30.033  0.00  0.00    -0.000 A 
ATOM      2  C   UNL A   1     -25.554  -2.602  29.953  0.00  0.00    -0.000 A 
ATOM      3  C   UNL A   1     -24.324  -2.981  29.426  0.00  0.00    -0.000 A 
ATOM      4  C   UNL A   1     -24.085  -4.336  29.002  0.00  0.00    -0.000 A 
ATOM      5  C   UNL A   1     -25.188  -5.187  29.152  0.00  0.00    -0.000 A 
ATOM      6  C   UNL A   1     -26.325  -4.783  29.671  0.00  0.00    -0.000 A 
ATOM      7  C   UNL A   1     -25.613  -1.175  30.367  0.00  0.00    -0.000 A 
ATOM      8  C   UNL A   1     -24.932  -0.246  29.793  0.00  0.00    +0.004 A 
ATOM      9  C   UNL A   1     -23.593  -0.632  29.176  0.00  0.00    +0.071 A 
ATOM     10  C   UNL A   1     -23.371  -1.973  28.888  0.00  0.00    +0.004 A 
ENDROOT
BRANCH   9  11
ATOM     11  C   UNL A   1     -22.625   0.388  28.794  0.00  0.00    +0.419 C 
ATOM     12  F   UNL A   1     -22.775   1.430  29.464  0.00  0.00    -0.166 F 
ATOM     13  F   UNL A   1     -22.794   0.701  27.440  0.00  0.00    -0.166 F 
ATOM     14  F   UNL A   1     -21.376  -0.109  28.928  0.00  0.00    -0.166 F 
ENDBRANCH   9  11
TORSDOF 1
ENDMDL
ENDMDL
