MODEL 4343
MODEL 1
REMARK VINA RESULT:    -5.564      0.000      0.000
REMARK INTER + INTRA:          -7.503
REMARK INTER:                  -6.865
REMARK INTRA:                  -0.638
REMARK UNBOUND:                -0.638
REMARK  Name = No_4343-gen_results/8p0m/2024-11-26-14-13-15/
REMARK  4 active torsions:
REMARK  status: ('A' for Active; 'I' for Inactive)
REMARK    1  A    between atoms: C_1  and  N_3
REMARK    2  A    between atoms: N_3  and  C_4
REMARK    3  A    between atoms: N_3  and  C_10
REMARK    4  A    between atoms: C_10  and  C_12
REMARK                            x       y       z     vdW  Elec       q    Type
REMARK                         _______ _______ _______ _____ _____    ______ ____
ROOT
ATOM      1  N   UNL A   1     -23.810  -1.529  30.018  0.00  0.00    -0.288 N 
ENDROOT
BRANCH   1   2
ATOM      2  C   UNL A   1     -23.114  -0.764  29.089  0.00  0.00    +0.051 A 
ATOM      3  C   UNL A   1     -23.739   0.130  28.274  0.00  0.00    +0.015 A 
ATOM      4  C   UNL A   1     -23.100   1.200  27.586  0.00  0.00    +0.001 A 
ATOM      5  C   UNL A   1     -21.679   1.141  27.708  0.00  0.00    +0.000 A 
ATOM      6  C   UNL A   1     -21.076   0.229  28.477  0.00  0.00    +0.001 A 
ATOM      7  C   UNL A   1     -21.770  -0.634  29.164  0.00  0.00    +0.015 A 
ENDBRANCH   1   2
BRANCH   1   8
ATOM      8  C   UNL A   1     -23.577  -1.501  31.359  0.00  0.00    +0.061 C 
ATOM      9  C   UNL A   1     -23.854  -0.655  31.923  0.00  0.00    -0.010 C 
ATOM     10  C   UNL A   1     -24.923   0.290  31.719  0.00  0.00    +0.032 C 
ENDBRANCH   1   8
BRANCH   1  11
ATOM     11  C   UNL A   1     -24.595  -2.521  29.507  0.00  0.00    +0.077 C 
ATOM     12  C   UNL A   1     -25.955  -2.604  29.707  0.00  0.00    +0.022 C 
BRANCH  11  13
ATOM     13  C   UNL A   1     -23.999  -3.635  28.856  0.00  0.00    +0.020 C 
ATOM     14  C   UNL A   1     -24.515  -4.916  28.876  0.00  0.00    +0.002 C 
ENDBRANCH  11  13
ENDBRANCH   1  11
TORSDOF 4
ENDMDL
ENDMDL
