REMARK  Name = No_4343-gen_results/8p0m/2024-11-26-14-13-15/
REMARK  4 active torsions:
REMARK  status: ('A' for Active; 'I' for Inactive)
REMARK    1  A    between atoms: C_1  and  N_3
REMARK    2  A    between atoms: N_3  and  C_4
REMARK    3  A    between atoms: N_3  and  C_10
REMARK    4  A    between atoms: C_10  and  C_12
REMARK                            x       y       z     vdW  Elec       q    Type
REMARK                         _______ _______ _______ _____ _____    ______ ____
ROOT
ATOM      1  N   UNL A   1     -28.273   0.170  27.973  0.00  0.00    -0.288 N 
ENDROOT
BRANCH   1   2
ATOM      2  C   UNL A   1     -27.532   0.378  26.815  0.00  0.00    +0.051 A 
ATOM      3  C   UNL A   1     -26.452   1.206  26.786  0.00  0.00    +0.015 A 
ATOM      4  C   UNL A   1     -25.432   1.192  25.793  0.00  0.00    +0.001 A 
ATOM      5  C   UNL A   1     -25.750   0.312  24.714  0.00  0.00    +0.000 A 
ATOM      6  C   UNL A   1     -26.839  -0.463  24.735  0.00  0.00    +0.001 A 
ATOM      7  C   UNL A   1     -27.646  -0.458  25.758  0.00  0.00    +0.015 A 
ENDBRANCH   1   2
BRANCH   1   8
ATOM      8  C   UNL A   1     -28.016  -0.814  28.878  0.00  0.00    +0.061 C 
ATOM      9  C   UNL A   1     -28.469  -0.785  29.829  0.00  0.00    -0.010 C 
ATOM     10  C   UNL A   1     -29.737  -0.235  30.239  0.00  0.00    +0.032 C 
ENDBRANCH   1   8
BRANCH   1  11
ATOM     11  C   UNL A   1     -29.452   0.851  28.059  0.00  0.00    +0.077 C 
ATOM     12  C   UNL A   1     -29.887   1.756  27.117  0.00  0.00    +0.022 C 
BRANCH  11  13
ATOM     13  C   UNL A   1     -30.235   0.770  29.243  0.00  0.00    +0.020 C 
ATOM     14  C   UNL A   1     -31.388   1.497  29.465  0.00  0.00    +0.002 C 
ENDBRANCH  11  13
ENDBRANCH   1  11
TORSDOF 4
