MODEL 4344
MODEL 1
REMARK VINA RESULT:    -4.345      0.000      0.000
REMARK INTER + INTRA:          -4.345
REMARK INTER:                  -4.345
REMARK INTRA:                   0.000
REMARK UNBOUND:                 0.000
REMARK  Name = No_4344-gen_results/8p0m/2024-11-26-14-13-15/
REMARK  0 active torsions:
REMARK  status: ('A' for Active; 'I' for Inactive)
REMARK                            x       y       z     vdW  Elec       q    Type
REMARK                         _______ _______ _______ _____ _____    ______ ____
ROOT
ATOM      1  C   UNL A   1     -26.222  -4.701  29.699  0.00  0.00    +0.011 A 
ATOM      2  C   UNL A   1     -26.175  -3.649  29.726  0.00  0.00    +0.058 A 
ATOM      3  C   UNL A   1     -25.071  -5.385  28.994  0.00  0.00    +0.001 A 
ATOM      4  C   UNL A   1     -23.971  -4.616  28.560  0.00  0.00    +0.000 A 
ATOM      5  C   UNL A   1     -25.153  -2.632  29.389  0.00  0.00    +0.011 A 
ATOM      6  C   UNL A   1     -24.076  -3.225  28.744  0.00  0.00    +0.001 A 
ATOM      7 CL   UNL A   1     -27.557  -2.820  30.584  0.00  0.00    -0.082 Cl
ENDROOT
TORSDOF 0
ENDMDL
ENDMDL
