MODEL 4345
MODEL 1
REMARK VINA RESULT:    -7.115      0.000      0.000
REMARK INTER + INTRA:          -9.703
REMARK INTER:                  -8.778
REMARK INTRA:                  -0.925
REMARK UNBOUND:                -0.925
REMARK  Name = No_4345-gen_results/8p0m/2024-11-26-14-13-15/
REMARK  4 active torsions:
REMARK  status: ('A' for Active; 'I' for Inactive)
REMARK    1  A    between atoms: C_2  and  C_13
REMARK    2  A    between atoms: C_4  and  C_7
REMARK    3  A    between atoms: C_13  and  O_15
REMARK    4  A    between atoms: O_15  and  C_16
REMARK                            x       y       z     vdW  Elec       q    Type
REMARK                         _______ _______ _______ _____ _____    ______ ____
ROOT
ATOM      1  C   UNL A   1     -26.269   0.365  27.439  0.00  0.00    +0.006 A 
ATOM      2  C   UNL A   1     -25.457  -0.101  26.955  0.00  0.00    +0.076 A 
ATOM      3  C   UNL A   1     -27.375   0.818  26.580  0.00  0.00    +0.000 A 
ATOM      4  C   UNL A   1     -27.389   0.504  25.190  0.00  0.00    +0.000 A 
ATOM      5  C   UNL A   1     -25.251  -0.589  25.564  0.00  0.00    +0.006 A 
ATOM      6  C   UNL A   1     -26.252  -0.179  24.735  0.00  0.00    +0.000 A 
ENDROOT
BRANCH   4   7
ATOM      7  C   UNL A   1     -28.440   0.910  24.317  0.00  0.00    +0.000 A 
ATOM      8  C   UNL A   1     -28.678   1.852  23.999  0.00  0.00    +0.000 A 
ATOM      9  C   UNL A   1     -29.867   2.357  23.190  0.00  0.00    +0.000 A 
ATOM     10  C   UNL A   1     -30.755   1.362  22.952  0.00  0.00    +0.000 A 
ATOM     11  C   UNL A   1     -30.598   0.045  23.401  0.00  0.00    +0.000 A 
ATOM     12  C   UNL A   1     -29.378  -0.229  24.121  0.00  0.00    +0.000 A 
ENDBRANCH   4   7
BRANCH   2  13
ATOM     13  C   UNL A   1     -24.279  -0.410  27.996  0.00  0.00    +0.346 C 
ATOM     14  O   UNL A   1     -23.242   0.118  27.967  0.00  0.00    -0.244 OA
BRANCH  13  15
ATOM     15  O   UNL A   1     -24.571  -1.234  28.905  0.00  0.00    -0.421 OA
BRANCH  15  16
ATOM     16  C   UNL A   1     -24.830  -2.273  28.962  0.00  0.00    +0.149 A 
ATOM     17  C   UNL A   1     -23.951  -3.267  28.602  0.00  0.00    +0.038 A 
ATOM     18  C   UNL A   1     -24.222  -4.661  28.802  0.00  0.00    +0.003 A 
ATOM     19  C   UNL A   1     -25.451  -5.017  29.342  0.00  0.00    +0.000 A 
ATOM     20  C   UNL A   1     -26.088  -2.764  29.632  0.00  0.00    +0.038 A 
ATOM     21  C   UNL A   1     -26.369  -4.116  29.770  0.00  0.00    +0.003 A 
ENDBRANCH  15  16
ENDBRANCH  13  15
ENDBRANCH   2  13
TORSDOF 4
ENDMDL
ENDMDL
