REMARK  Name = No_4345-gen_results/8p0m/2024-11-26-14-13-15/
REMARK  4 active torsions:
REMARK  status: ('A' for Active; 'I' for Inactive)
REMARK    1  A    between atoms: C_2  and  C_13
REMARK    2  A    between atoms: C_4  and  C_7
REMARK    3  A    between atoms: C_13  and  O_15
REMARK    4  A    between atoms: O_15  and  C_16
REMARK                            x       y       z     vdW  Elec       q    Type
REMARK                         _______ _______ _______ _____ _____    ______ ____
ROOT
ATOM      1  C   UNL A   1     -28.016  -0.814  28.878  0.00  0.00    +0.006 A 
ATOM      2  C   UNL A   1     -28.469  -0.785  29.829  0.00  0.00    +0.076 A 
ATOM      3  C   UNL A   1     -26.546  -0.876  28.850  0.00  0.00    +0.000 A 
ATOM      4  C   UNL A   1     -25.804  -1.032  30.057  0.00  0.00    +0.000 A 
ATOM      5  C   UNL A   1     -27.944  -0.987  31.207  0.00  0.00    +0.006 A 
ATOM      6  C   UNL A   1     -26.582  -1.039  31.223  0.00  0.00    +0.000 A 
ENDROOT
BRANCH   4   7
ATOM      7  C   UNL A   1     -24.381  -1.108  30.085  0.00  0.00    +0.000 A 
ATOM      8  C   UNL A   1     -23.759  -1.132  30.896  0.00  0.00    +0.000 A 
ATOM      9  C   UNL A   1     -22.239  -1.066  30.985  0.00  0.00    +0.000 A 
ATOM     10  C   UNL A   1     -21.685  -0.865  29.765  0.00  0.00    +0.000 A 
ATOM     11  C   UNL A   1     -22.421  -0.728  28.582  0.00  0.00    +0.000 A 
ATOM     12  C   UNL A   1     -23.852  -0.859  28.716  0.00  0.00    +0.000 A 
ENDBRANCH   4   7
BRANCH   2  13
ATOM     13  C   UNL A   1     -30.052  -0.579  29.697  0.00  0.00    +0.346 C 
ATOM     14  O   UNL A   1     -30.834  -1.258  30.229  0.00  0.00    -0.244 OA
BRANCH  13  15
ATOM     15  O   UNL A   1     -30.406   0.421  29.016  0.00  0.00    -0.421 OA
BRANCH  15  16
ATOM     16  C   UNL A   1     -30.077   1.434  28.888  0.00  0.00    +0.149 A 
ATOM     17  C   UNL A   1     -30.191   2.372  29.886  0.00  0.00    +0.038 A 
ATOM     18  C   UNL A   1     -29.633   3.690  29.788  0.00  0.00    +0.003 A 
ATOM     19  C   UNL A   1     -28.989   4.041  28.609  0.00  0.00    +0.000 A 
ATOM     20  C   UNL A   1     -29.272   1.884  27.695  0.00  0.00    +0.038 A 
ATOM     21  C   UNL A   1     -28.784   3.179  27.583  0.00  0.00    +0.003 A 
ENDBRANCH  15  16
ENDBRANCH  13  15
ENDBRANCH   2  13
TORSDOF 4
