MODEL 4346
MODEL 1
REMARK VINA RESULT:    -7.206      0.000      0.000
REMARK INTER + INTRA:          -9.793
REMARK INTER:                  -8.891
REMARK INTRA:                  -0.901
REMARK UNBOUND:                -0.901
REMARK  Name = No_4346-gen_results/8p0m/2024-11-26-14-13-15/
REMARK  4 active torsions:
REMARK  status: ('A' for Active; 'I' for Inactive)
REMARK    1  A    between atoms: C_2  and  C_15
REMARK    2  A    between atoms: C_8  and  C_11
REMARK    3  A    between atoms: C_15  and  C_16
REMARK    4  A    between atoms: C_18  and  C_19
REMARK                            x       y       z     vdW  Elec       q    Type
REMARK                         _______ _______ _______ _____ _____    ______ ____
ROOT
ATOM      1  C   UNL A   1     -30.824 -10.496  28.285  0.00  0.00    +0.015 A 
ATOM      2  C   UNL A   1     -29.963 -11.128  28.850  0.00  0.00    +0.040 A 
ATOM      3  C   UNL A   1     -29.546 -10.868  30.155  0.00  0.00    +0.003 A 
ATOM      4  C   UNL A   1     -30.122  -9.745  30.870  0.00  0.00    +0.001 A 
ATOM      5  C   UNL A   1     -31.096  -9.031  30.173  0.00  0.00    +0.011 A 
ATOM      6  C   UNL A   1     -31.423  -9.341  28.933  0.00  0.00    +0.058 A 
ATOM      7  C   UNL A   1     -28.500 -11.607  30.919  0.00  0.00    +0.008 A 
ATOM      8  C   UNL A   1     -28.234 -11.413  32.189  0.00  0.00    +0.098 A 
ATOM      9  C   UNL A   1     -29.033 -10.373  32.856  0.00  0.00    +0.008 A 
ATOM     10  C   UNL A   1     -29.884  -9.544  32.244  0.00  0.00    +0.000 A 
ATOM     11 CL   UNL A   1     -32.569  -8.355  28.055  0.00  0.00    -0.082 Cl
ENDROOT
BRANCH   8  12
ATOM     12  C   UNL A   1     -27.269 -12.155  32.973  0.00  0.00    +0.477 C 
ATOM     13  N   UNL A   1     -26.457 -12.927  32.786  0.00  0.00    +0.205 NA
ATOM     14  N   UNL A   1     -27.575 -12.110  34.454  0.00  0.00    +0.205 NA
ENDBRANCH   8  12
BRANCH   2  15
ATOM     15  C   UNL A   1     -29.336 -12.368  28.207  0.00  0.00    +0.196 C 
ATOM     16  O   UNL A   1     -28.708 -12.041  27.073  0.00  0.00    -0.287 OA
BRANCH  15  17
ATOM     17  C   UNL A   1     -29.950 -13.535  28.413  0.00  0.00    +0.039 A 
ATOM     18  C   UNL A   1     -29.970 -14.190  29.413  0.00  0.00    +0.010 A 
ATOM     19  C   UNL A   1     -30.793 -15.417  29.606  0.00  0.00    +0.080 A 
ATOM     20  C   UNL A   1     -30.755 -13.980  27.256  0.00  0.00    +0.003 A 
ATOM     21  C   UNL A   1     -31.516 -15.869  28.495  0.00  0.00    +0.007 A 
ATOM     22  C   UNL A   1     -31.517 -15.124  27.332  0.00  0.00    +0.000 A 
BRANCH  19  23
ATOM     23  C   UNL A   1     -30.796 -16.099  30.825  0.00  0.00    +0.388 C 
ATOM     24  O   UNL A   1     -29.611 -16.391  31.230  0.00  0.00    -0.241 OA
ATOM     25  O   UNL A   1     -31.855 -16.667  31.250  0.00  0.00    -0.241 OA
ENDBRANCH  19  23
ENDBRANCH  15  17
ENDBRANCH   2  15
TORSDOF 4
ENDMDL
ENDMDL
