MODEL 4347
MODEL 1
REMARK VINA RESULT:    -9.483      0.000      0.000
REMARK INTER + INTRA:          -9.483
REMARK INTER:                  -9.483
REMARK INTRA:                   0.000
REMARK UNBOUND:                 0.000
REMARK  Name = No_4347-gen_results/8p0m/2024-11-26-14-13-15/
REMARK  0 active torsions:
REMARK  status: ('A' for Active; 'I' for Inactive)
REMARK                            x       y       z     vdW  Elec       q    Type
REMARK                         _______ _______ _______ _____ _____    ______ ____
ROOT
ATOM      1  C   UNL A   1     -25.395   0.504  32.109  0.00  0.00    -0.003 A 
ATOM      2  C   UNL A   1     -24.955   0.573  30.984  0.00  0.00    -0.001 A 
ATOM      3  C   UNL A   1     -23.888  -0.139  30.542  0.00  0.00    +0.052 A 
ATOM      4  C   UNL A   1     -23.248  -1.013  31.442  0.00  0.00    +0.015 A 
ATOM      5  C   UNL A   1     -24.850  -0.439  33.052  0.00  0.00    -0.000 A 
ATOM      6  C   UNL A   1     -23.758  -1.157  32.667  0.00  0.00    +0.001 A 
ATOM      7  C   UNL A   1     -25.746   1.406  30.028  0.00  0.00    +0.092 C 
ATOM      8  C   UNL A   1     -26.110   0.723  28.698  0.00  0.00    +0.123 C 
ATOM      9  C   UNL A   1     -25.573   0.490  27.640  0.00  0.00    +0.010 C 
ATOM     10  C   UNL A   1     -24.241   0.946  27.242  0.00  0.00    +0.013 A 
ATOM     11  C   UNL A   1     -23.885   1.526  26.385  0.00  0.00    +0.001 A 
ATOM     12  C   UNL A   1     -22.527   2.012  26.208  0.00  0.00    +0.000 A 
ATOM     13  C   UNL A   1     -21.601   1.766  27.290  0.00  0.00    +0.001 A 
ATOM     14  C   UNL A   1     -22.022   1.016  28.289  0.00  0.00    +0.015 A 
ATOM     15  C   UNL A   1     -23.303   0.588  28.360  0.00  0.00    +0.055 A 
ATOM     16  N   UNL A   1     -23.225   0.036  29.342  0.00  0.00    -0.265 N 
ATOM     17  C   UNL A   1     -22.894  -1.440  28.889  0.00  0.00    +0.070 C 
ATOM     18  C   UNL A   1     -23.512  -2.498  28.968  0.00  0.00    +0.019 C 
ATOM     19  C   UNL A   1     -24.816  -2.612  29.425  0.00  0.00    +0.036 A 
ATOM     20  C   UNL A   1     -25.492  -3.862  29.605  0.00  0.00    +0.003 A 
ATOM     21  C   UNL A   1     -26.838  -3.875  30.019  0.00  0.00    +0.000 A 
ATOM     22  C   UNL A   1     -27.408  -2.623  30.281  0.00  0.00    +0.003 A 
ATOM     23  C   UNL A   1     -26.837  -1.430  30.199  0.00  0.00    +0.037 A 
ATOM     24  C   UNL A   1     -25.537  -1.436  29.733  0.00  0.00    +0.145 A 
ATOM     25  O   UNL A   1     -25.793  -0.919  28.589  0.00  0.00    -0.458 OA
ATOM     26  C   UNL A   1     -26.389   0.180  26.412  0.00  0.00    +0.034 C 
ENDROOT
TORSDOF 0
ENDMDL
ENDMDL
