REMARK  Name = No_4347-gen_results/8p0m/2024-11-26-14-13-15/
REMARK  0 active torsions:
REMARK  status: ('A' for Active; 'I' for Inactive)
REMARK                            x       y       z     vdW  Elec       q    Type
REMARK                         _______ _______ _______ _____ _____    ______ ____
ROOT
ATOM      1  C   UNL A   1     -28.016  -0.814  28.878  0.00  0.00    -0.003 A 
ATOM      2  C   UNL A   1     -27.064  -0.119  28.608  0.00  0.00    -0.001 A 
ATOM      3  C   UNL A   1     -26.929   1.171  29.008  0.00  0.00    +0.052 A 
ATOM      4  C   UNL A   1     -27.956   1.741  29.784  0.00  0.00    +0.015 A 
ATOM      5  C   UNL A   1     -29.057  -0.327  29.747  0.00  0.00    -0.000 A 
ATOM      6  C   UNL A   1     -28.983   0.972  30.152  0.00  0.00    +0.001 A 
ATOM      7  C   UNL A   1     -25.939  -0.804  27.902  0.00  0.00    +0.092 C 
ATOM      8  C   UNL A   1     -24.548  -0.613  28.530  0.00  0.00    +0.123 C 
ATOM      9  C   UNL A   1     -23.681   0.230  28.536  0.00  0.00    +0.010 C 
ATOM     10  C   UNL A   1     -23.686   1.462  27.747  0.00  0.00    +0.013 A 
ATOM     11  C   UNL A   1     -22.977   1.880  27.025  0.00  0.00    +0.001 A 
ATOM     12  C   UNL A   1     -23.202   3.069  26.221  0.00  0.00    +0.000 A 
ATOM     13  C   UNL A   1     -24.497   3.699  26.338  0.00  0.00    +0.001 A 
ATOM     14  C   UNL A   1     -25.321   3.225  27.252  0.00  0.00    +0.015 A 
ATOM     15  C   UNL A   1     -25.017   2.122  27.973  0.00  0.00    +0.055 A 
ATOM     16  N   UNL A   1     -25.970   2.067  28.576  0.00  0.00    -0.265 N 
ATOM     17  C   UNL A   1     -25.601   2.866  29.887  0.00  0.00    +0.070 C 
ATOM     18  C   UNL A   1     -25.481   2.535  31.063  0.00  0.00    +0.019 C 
ATOM     19  C   UNL A   1     -25.547   1.227  31.520  0.00  0.00    +0.036 A 
ATOM     20  C   UNL A   1     -25.503   0.863  32.904  0.00  0.00    +0.003 A 
ATOM     21  C   UNL A   1     -25.518  -0.498  33.269  0.00  0.00    +0.000 A 
ATOM     22  C   UNL A   1     -25.632  -1.411  32.214  0.00  0.00    +0.003 A 
ATOM     23  C   UNL A   1     -25.739  -1.156  30.918  0.00  0.00    +0.037 A 
ATOM     24  C   UNL A   1     -25.660   0.180  30.578  0.00  0.00    +0.145 A 
ATOM     25  O   UNL A   1     -24.501   0.122  30.036  0.00  0.00    -0.458 OA
ATOM     26  C   UNL A   1     -22.266  -0.119  28.918  0.00  0.00    +0.034 C 
ENDROOT
TORSDOF 0
