REMARK  Name = No_4348-gen_results/8p0m/2024-11-26-14-13-15/
REMARK  1 active torsions:
REMARK  status: ('A' for Active; 'I' for Inactive)
REMARK    1  A    between atoms: C_3  and  C_7
REMARK                            x       y       z     vdW  Elec       q    Type
REMARK                         _______ _______ _______ _____ _____    ______ ____
ROOT
ATOM      1  C   UNL A   1     -28.016  -0.814  28.878  0.00  0.00    +0.000 A 
ATOM      2  C   UNL A   1     -27.064  -0.119  28.608  0.00  0.00    +0.000 A 
ATOM      3  C   UNL A   1     -25.765  -0.390  29.036  0.00  0.00    +0.000 A 
ATOM      4  C   UNL A   1     -25.530  -1.530  29.901  0.00  0.00    +0.000 A 
ATOM      5  C   UNL A   1     -26.658  -2.292  30.203  0.00  0.00    +0.000 A 
ATOM      6  C   UNL A   1     -27.855  -1.956  29.763  0.00  0.00    +0.000 A 
ENDROOT
BRANCH   3   7
ATOM      7  C   UNL A   1     -24.544   0.413  28.738  0.00  0.00    +0.000 A 
ATOM      8  C   UNL A   1     -24.473   1.206  27.711  0.00  0.00    +0.000 A 
ATOM      9  C   UNL A   1     -23.263   1.911  27.393  0.00  0.00    +0.000 A 
ATOM     10  C   UNL A   1     -22.096   1.712  28.046  0.00  0.00    +0.000 A 
ATOM     11  C   UNL A   1     -23.202   0.073  29.261  0.00  0.00    +0.000 A 
ATOM     12  C   UNL A   1     -22.043   0.739  28.973  0.00  0.00    +0.000 A 
ENDBRANCH   3   7
TORSDOF 1
