MODEL 4348
MODEL 1
REMARK VINA RESULT:    -6.525      0.000      0.000
REMARK INTER + INTRA:          -7.220
REMARK INTER:                  -6.906
REMARK INTRA:                  -0.314
REMARK UNBOUND:                -0.314
REMARK  Name = No_4348-gen_results/8p0m/2024-11-26-14-13-15/
REMARK  1 active torsions:
REMARK  status: ('A' for Active; 'I' for Inactive)
REMARK    1  A    between atoms: C_3  and  C_7
REMARK                            x       y       z     vdW  Elec       q    Type
REMARK                         _______ _______ _______ _____ _____    ______ ____
ROOT
ATOM      1  C   UNL A   1     -23.692   0.810  27.498  0.00  0.00    +0.000 A 
ATOM      2  C   UNL A   1     -24.348  -0.188  27.687  0.00  0.00    +0.000 A 
ATOM      3  C   UNL A   1     -23.937  -1.236  28.509  0.00  0.00    +0.000 A 
ATOM      4  C   UNL A   1     -22.631  -1.173  29.136  0.00  0.00    +0.000 A 
ATOM      5  C   UNL A   1     -21.901  -0.014  28.876  0.00  0.00    +0.000 A 
ATOM      6  C   UNL A   1     -22.362   0.926  28.074  0.00  0.00    +0.000 A 
ENDROOT
BRANCH   3   7
ATOM      7  C   UNL A   1     -24.692  -2.491  28.796  0.00  0.00    +0.000 A 
ATOM      8  C   UNL A   1     -25.766  -2.498  29.527  0.00  0.00    +0.000 A 
ATOM      9  C   UNL A   1     -26.436  -3.724  29.859  0.00  0.00    +0.000 A 
ATOM     10  C   UNL A   1     -25.942  -4.945  29.552  0.00  0.00    +0.000 A 
ATOM     11  C   UNL A   1     -24.093  -3.840  28.688  0.00  0.00    +0.000 A 
ATOM     12  C   UNL A   1     -24.721  -5.016  28.994  0.00  0.00    +0.000 A 
ENDBRANCH   3   7
TORSDOF 1
ENDMDL
ENDMDL
