REMARK  Name = No_4349-gen_results/8p0m/2024-11-26-14-13-15/
REMARK  3 active torsions:
REMARK  status: ('A' for Active; 'I' for Inactive)
REMARK    1  A    between atoms: C_2  and  C_17
REMARK    2  A    between atoms: C_6  and  C_8
REMARK    3  A    between atoms: C_11  and  C_14
REMARK                            x       y       z     vdW  Elec       q    Type
REMARK                         _______ _______ _______ _____ _____    ______ ____
ROOT
ATOM      1  C   UNL A   1     -28.016  -0.814  28.878  0.00  0.00    +0.009 A 
ATOM      2  C   UNL A   1     -27.064  -0.119  28.608  0.00  0.00    +0.066 A 
ATOM      3  C   UNL A   1     -25.765  -0.390  29.036  0.00  0.00    +0.062 A 
ATOM      4  C   UNL A   1     -25.530  -1.530  29.901  0.00  0.00    +0.012 A 
ATOM      5  C   UNL A   1     -26.689  -2.289  30.181  0.00  0.00    +0.004 A 
ATOM      6  C   UNL A   1     -27.873  -1.951  29.737  0.00  0.00    +0.036 A 
ATOM      7 CL   UNL A   1     -24.382   0.559  28.679  0.00  0.00    -0.082 Cl
ENDROOT
BRANCH   6   8
ATOM      8  C   UNL A   1     -29.026  -2.816  30.158  0.00  0.00    +0.162 A 
ATOM      9  N   UNL A   1     -29.343  -2.890  31.397  0.00  0.00    -0.225 NA
ATOM     10  C   UNL A   1     -29.802  -3.967  31.913  0.00  0.00    +0.109 A 
ATOM     11  C   UNL A   1     -30.214  -5.045  31.095  0.00  0.00    +0.118 A 
ATOM     12  C   UNL A   1     -29.891  -4.976  29.739  0.00  0.00    +0.109 A 
ATOM     13  N   UNL A   1     -29.106  -3.939  29.480  0.00  0.00    -0.225 NA
BRANCH  11  14
ATOM     14  C   UNL A   1     -30.929  -6.241  31.614  0.00  0.00    +0.391 C 
ATOM     15  O   UNL A   1     -32.068  -5.991  31.954  0.00  0.00    -0.240 OA
ATOM     16  O   UNL A   1     -30.374  -7.375  31.682  0.00  0.00    -0.240 OA
ENDBRANCH  11  14
ENDBRANCH   6   8
BRANCH   2  17
ATOM     17  C   UNL A   1     -26.923   1.090  27.605  0.00  0.00    +0.266 C 
ATOM     18  N   UNL A   1     -26.870   2.217  28.010  0.00  0.00    -0.200 NA
ATOM     19  O   UNL A   1     -27.258   0.803  26.363  0.00  0.00    -0.268 OA
ATOM     20  C   UNL A   1     -26.868   3.386  27.114  0.00  0.00    +0.139 C 
ENDBRANCH   2  17
TORSDOF 3
