MODEL 4349
MODEL 1
REMARK VINA RESULT:    -6.106      0.000      0.000
REMARK INTER + INTRA:          -7.585
REMARK INTER:                  -7.177
REMARK INTRA:                  -0.408
REMARK UNBOUND:                -0.408
REMARK  Name = No_4349-gen_results/8p0m/2024-11-26-14-13-15/
REMARK  3 active torsions:
REMARK  status: ('A' for Active; 'I' for Inactive)
REMARK    1  A    between atoms: C_2  and  C_17
REMARK    2  A    between atoms: C_6  and  C_8
REMARK    3  A    between atoms: C_11  and  C_14
REMARK                            x       y       z     vdW  Elec       q    Type
REMARK                         _______ _______ _______ _____ _____    ______ ____
ROOT
ATOM      1  C   UNL A   1     -30.258 -12.653  10.118  0.00  0.00    +0.009 A 
ATOM      2  C   UNL A   1     -29.988 -13.695  10.668  0.00  0.00    +0.066 A 
ATOM      3  C   UNL A   1     -30.039 -13.873  12.050  0.00  0.00    +0.062 A 
ATOM      4  C   UNL A   1     -30.377 -12.745  12.896  0.00  0.00    +0.012 A 
ATOM      5  C   UNL A   1     -30.672 -11.560  12.184  0.00  0.00    +0.004 A 
ATOM      6  C   UNL A   1     -30.590 -11.486  10.879  0.00  0.00    +0.036 A 
ATOM      7 CL   UNL A   1     -29.669 -15.328  12.880  0.00  0.00    -0.082 Cl
ENDROOT
BRANCH   6   8
ATOM      8  C   UNL A   1     -30.876 -10.150  10.258  0.00  0.00    +0.162 A 
ATOM      9  N   UNL A   1     -29.974  -9.573   9.554  0.00  0.00    -0.225 NA
ATOM     10  C   UNL A   1     -29.846  -8.300   9.532  0.00  0.00    +0.109 A 
ATOM     11  C   UNL A   1     -30.844  -7.462  10.083  0.00  0.00    +0.118 A 
ATOM     12  C   UNL A   1     -31.844  -8.073  10.841  0.00  0.00    +0.109 A 
ATOM     13  N   UNL A   1     -31.589  -9.361  11.029  0.00  0.00    -0.225 NA
BRANCH  11  14
ATOM     14  C   UNL A   1     -30.852  -5.983   9.923  0.00  0.00    +0.391 C 
ATOM     15  O   UNL A   1     -30.063  -5.602   9.082  0.00  0.00    -0.240 OA
ATOM     16  O   UNL A   1     -31.608  -5.240  10.612  0.00  0.00    -0.240 OA
ENDBRANCH  11  14
ENDBRANCH   6   8
BRANCH   2  17
ATOM     17  C   UNL A   1     -29.719 -15.132  10.078  0.00  0.00    +0.266 C 
ATOM     18  N   UNL A   1     -28.667 -15.397   9.567  0.00  0.00    -0.200 NA
ATOM     19  O   UNL A   1     -30.811 -15.833   9.844  0.00  0.00    -0.268 OA
ATOM     20  C   UNL A   1     -28.411 -16.678   8.888  0.00  0.00    +0.139 C 
ENDBRANCH   2  17
TORSDOF 3
ENDMDL
ENDMDL
