MODEL 434
MODEL 1
REMARK VINA RESULT:    -6.462      0.000      0.000
REMARK INTER + INTRA:          -8.201
REMARK INTER:                  -7.596
REMARK INTRA:                  -0.605
REMARK UNBOUND:                -0.605
REMARK  Name = No_434-gen_results/8p0m/2024-11-26-14-13-15/
REMARK  3 active torsions:
REMARK  status: ('A' for Active; 'I' for Inactive)
REMARK    1  A    between atoms: C_2  and  C_13
REMARK    2  A    between atoms: C_4  and  C_6
REMARK    3  A    between atoms: N_15  and  C_16
REMARK                            x       y       z     vdW  Elec       q    Type
REMARK                         _______ _______ _______ _____ _____    ______ ____
ROOT
ATOM      1  C   UNL A   1     -24.176  -0.908  28.195  0.00  0.00    +0.005 A 
ATOM      2  C   UNL A   1     -23.356  -0.251  28.280  0.00  0.00    +0.055 A 
ATOM      3  C   UNL A   1     -25.300  -0.455  27.360  0.00  0.00    +0.002 A 
ATOM      4  C   UNL A   1     -25.200   0.748  26.601  0.00  0.00    +0.018 A 
ATOM      5  C   UNL A   1     -22.984   1.001  27.566  0.00  0.00    +0.005 A 
ATOM      6  C   UNL A   1     -24.007   1.454  26.747  0.00  0.00    +0.002 A 
ENDROOT
BRANCH   4   7
ATOM      7  C   UNL A   1     -26.237   1.233  25.786  0.00  0.00    +0.085 A 
ATOM      8  N   UNL A   1     -26.649   2.370  25.807  0.00  0.00    -0.224 NA
ATOM      9  C   UNL A   1     -27.569   2.806  24.838  0.00  0.00    +0.199 A 
ATOM     10  C   UNL A   1     -26.858   0.342  24.828  0.00  0.00    +0.040 A 
ATOM     11  C   UNL A   1     -27.759   0.784  23.832  0.00  0.00    +0.102 A 
ATOM     12  N   UNL A   1     -28.061   2.106  23.923  0.00  0.00    -0.222 NA
ENDBRANCH   4   7
BRANCH   2  13
ATOM     13  C   UNL A   1     -22.133  -0.709  29.234  0.00  0.00    +0.269 C 
ATOM     14  O   UNL A   1     -21.115  -1.108  28.884  0.00  0.00    -0.268 OA
ATOM     15  N   UNL A   1     -22.351  -0.294  30.542  0.00  0.00    -0.175 NA
BRANCH  15  16
ATOM     16  C   UNL A   1     -23.465   0.334  31.073  0.00  0.00    +0.074 A 
ATOM     17  C   UNL A   1     -23.813   1.337  31.144  0.00  0.00    +0.017 A 
ATOM     18  C   UNL A   1     -25.065   1.897  31.763  0.00  0.00    +0.001 A 
ATOM     19  C   UNL A   1     -25.887   1.012  32.446  0.00  0.00    +0.000 A 
ATOM     20  C   UNL A   1     -24.376  -0.630  31.866  0.00  0.00    +0.017 A 
ATOM     21  C   UNL A   1     -25.567  -0.276  32.388  0.00  0.00    +0.001 A 
ENDBRANCH  15  16
ENDBRANCH   2  13
TORSDOF 3
ENDMDL
ENDMDL
