REMARK  Name = No_435-gen_results/8p0m/2024-11-26-14-13-15/
REMARK  5 active torsions:
REMARK  status: ('A' for Active; 'I' for Inactive)
REMARK    1  A    between atoms: C_3  and  C_7
REMARK    2  A    between atoms: C_7  and  C_8
REMARK    3  A    between atoms: C_8  and  C_10
REMARK    4  A    between atoms: C_14  and  C_17
REMARK    5  A    between atoms: C_21  and  C_23
REMARK                            x       y       z     vdW  Elec       q    Type
REMARK                         _______ _______ _______ _____ _____    ______ ____
ROOT
ATOM      1  C   UNL A   1     -28.170   1.432  26.285  0.00  0.00    -0.022 A 
ATOM      2  C   UNL A   1     -28.712   1.821  25.062  0.00  0.00    -0.004 A 
ATOM      3  C   UNL A   1     -29.992   2.358  24.973  0.00  0.00    -0.000 A 
ATOM      4  C   UNL A   1     -30.683   2.719  26.120  0.00  0.00    -0.000 A 
ATOM      5  C   UNL A   1     -30.115   2.412  27.358  0.00  0.00    -0.000 A 
ATOM      6  C   UNL A   1     -28.913   1.865  27.472  0.00  0.00    -0.004 A 
ENDROOT
BRANCH   5   7
ATOM      7  C   UNL A   1     -30.950   2.757  28.574  0.00  0.00    +0.006 A 
ATOM      8  C   UNL A   1     -31.515   1.673  29.221  0.00  0.00    +0.000 A 
ATOM      9  C   UNL A   1     -31.847   1.782  30.516  0.00  0.00    +0.000 A 
ATOM     10  C   UNL A   1     -31.902   3.066  31.130  0.00  0.00    +0.000 A 
ATOM     11  C   UNL A   1     -30.774   4.038  29.176  0.00  0.00    +0.080 A 
ATOM     12  C   UNL A   1     -31.280   4.176  30.493  0.00  0.00    +0.007 A 
BRANCH  11  13
ATOM     13  C   UNL A   1     -30.154   5.135  28.561  0.00  0.00    +0.388 C 
ATOM     14  O   UNL A   1     -30.535   5.621  27.625  0.00  0.00    -0.241 OA
ATOM     15  O   UNL A   1     -28.924   5.494  29.115  0.00  0.00    -0.241 OA
ENDBRANCH  11  13
ENDBRANCH   5   7
BRANCH   1  16
ATOM     16  C   UNL A   1     -26.881   0.971  26.372  0.00  0.00    +0.026 C 
ATOM     17  C   UNL A   1     -26.087   1.002  25.106  0.00  0.00    +0.005 C 
BRANCH  16  18
ATOM     18  C   UNL A   1     -26.317   0.399  27.365  0.00  0.00    +0.026 C 
ATOM     19  C   UNL A   1     -25.009  -0.057  27.383  0.00  0.00    +0.005 C 
BRANCH  18  22
ATOM     20  C   UNL A   1     -28.016  -0.814  28.878  0.00  0.00    -0.004 A 
ATOM     21  C   UNL A   1     -28.469  -0.785  29.829  0.00  0.00    -0.000 A 
ATOM     22  C   UNL A   1     -27.087   0.290  28.638  0.00  0.00    -0.022 A 
ATOM     23  C   UNL A   1     -26.832   1.249  29.587  0.00  0.00    -0.004 A 
ATOM     24  C   UNL A   1     -28.391   0.080  31.006  0.00  0.00    -0.000 A 
ATOM     25  C   UNL A   1     -27.494   1.152  30.784  0.00  0.00    -0.000 A 
ENDBRANCH  18  22
ENDBRANCH  16  18
ENDBRANCH   1  16
TORSDOF 5
