REMARK  Name = No_4350-gen_results/8p0m/2024-11-26-14-13-15/
REMARK  3 active torsions:
REMARK  status: ('A' for Active; 'I' for Inactive)
REMARK    1  A    between atoms: C_2  and  C_3
REMARK    2  A    between atoms: C_5  and  C_16
REMARK    3  A    between atoms: C_6  and  C_13
REMARK                            x       y       z     vdW  Elec       q    Type
REMARK                         _______ _______ _______ _____ _____    ______ ____
ROOT
ATOM      1  C   UNL A   1     -26.972   0.714  27.506  0.00  0.00    +0.000 A 
ATOM      2  C   UNL A   1     -28.105   0.774  26.642  0.00  0.00    -0.000 A 
ATOM      3  C   UNL A   1     -28.127   1.512  25.512  0.00  0.00    -0.000 A 
ATOM      4  C   UNL A   1     -26.939   2.263  25.106  0.00  0.00    -0.000 A 
ATOM      5  C   UNL A   1     -25.814   2.221  25.887  0.00  0.00    -0.000 A 
ATOM      6  C   UNL A   1     -25.810   1.478  27.040  0.00  0.00    +0.000 A 
ENDROOT
BRANCH   3   7
ATOM      7  C   UNL A   1     -29.282   1.609  24.645  0.00  0.00    -0.004 A 
ATOM      8  C   UNL A   1     -30.070   2.710  24.637  0.00  0.00    -0.000 A 
ATOM      9  C   UNL A   1     -31.215   2.846  23.839  0.00  0.00    -0.000 A 
ATOM     10  C   UNL A   1     -31.585   1.654  23.150  0.00  0.00    -0.000 A 
ATOM     11  C   UNL A   1     -29.614   0.548  23.796  0.00  0.00    -0.022 A 
ATOM     12  C   UNL A   1     -30.800   0.542  23.203  0.00  0.00    -0.004 A 
ATOM     13  C   UNL A   1     -28.846  -0.735  23.919  0.00  0.00    +0.031 C 
ENDBRANCH   3   7
BRANCH   1  15
ATOM     14  C   UNL A   1     -28.016  -0.814  28.878  0.00  0.00    +0.007 A 
ATOM     15  C   UNL A   1     -27.064  -0.119  28.608  0.00  0.00    +0.000 A 
ATOM     16  C   UNL A   1     -27.959  -1.601  30.143  0.00  0.00    +0.080 A 
ATOM     17  C   UNL A   1     -26.750  -1.751  30.783  0.00  0.00    +0.007 A 
ATOM     18  C   UNL A   1     -25.626  -1.123  30.381  0.00  0.00    +0.000 A 
ATOM     19  C   UNL A   1     -25.724  -0.281  29.311  0.00  0.00    +0.000 A 
BRANCH  16  20
ATOM     20  C   UNL A   1     -29.145  -2.384  30.594  0.00  0.00    +0.388 C 
ATOM     21  O   UNL A   1     -29.907  -1.990  31.218  0.00  0.00    -0.241 OA
ATOM     22  O   UNL A   1     -28.898  -3.715  30.458  0.00  0.00    -0.241 OA
ENDBRANCH  16  20
ENDBRANCH   1  15
TORSDOF 3
