MODEL 4350
MODEL 1
REMARK VINA RESULT:    -8.313      0.000      0.000
REMARK INTER + INTRA:         -10.598
REMARK INTER:                  -9.771
REMARK INTRA:                  -0.827
REMARK UNBOUND:                -0.827
REMARK  Name = No_4350-gen_results/8p0m/2024-11-26-14-13-15/
REMARK  3 active torsions:
REMARK  status: ('A' for Active; 'I' for Inactive)
REMARK    1  A    between atoms: C_2  and  C_3
REMARK    2  A    between atoms: C_5  and  C_16
REMARK    3  A    between atoms: C_6  and  C_13
REMARK                            x       y       z     vdW  Elec       q    Type
REMARK                         _______ _______ _______ _____ _____    ______ ____
ROOT
ATOM      1  C   UNL A   1     -23.576  -1.448  29.020  0.00  0.00    +0.000 A 
ATOM      2  C   UNL A   1     -24.117  -0.303  28.364  0.00  0.00    -0.000 A 
ATOM      3  C   UNL A   1     -23.373   0.775  28.039  0.00  0.00    -0.000 A 
ATOM      4  C   UNL A   1     -21.938   0.786  28.323  0.00  0.00    -0.000 A 
ATOM      5  C   UNL A   1     -21.362  -0.299  28.931  0.00  0.00    -0.000 A 
ATOM      6  C   UNL A   1     -22.132  -1.383  29.268  0.00  0.00    +0.000 A 
ENDROOT
BRANCH   3   7
ATOM      7  C   UNL A   1     -23.916   1.957  27.405  0.00  0.00    -0.004 A 
ATOM      8  C   UNL A   1     -23.485   2.368  26.188  0.00  0.00    -0.000 A 
ATOM      9  C   UNL A   1     -23.955   3.519  25.540  0.00  0.00    -0.000 A 
ATOM     10  C   UNL A   1     -24.813   4.326  26.344  0.00  0.00    -0.000 A 
ATOM     11  C   UNL A   1     -24.901   2.711  28.050  0.00  0.00    -0.022 A 
ATOM     12  C   UNL A   1     -25.203   3.915  27.583  0.00  0.00    -0.004 A 
ATOM     13  C   UNL A   1     -25.263   2.358  29.463  0.00  0.00    +0.031 C 
ENDBRANCH   3   7
BRANCH   1  15
ATOM     14  C   UNL A   1     -25.592  -2.401  29.599  0.00  0.00    +0.007 A 
ATOM     15  C   UNL A   1     -24.438  -2.506  29.253  0.00  0.00    +0.000 A 
ATOM     16  C   UNL A   1     -26.351  -3.657  29.862  0.00  0.00    +0.080 A 
ATOM     17  C   UNL A   1     -25.835  -4.854  29.420  0.00  0.00    +0.007 A 
ATOM     18  C   UNL A   1     -24.615  -4.962  28.857  0.00  0.00    +0.000 A 
ATOM     19  C   UNL A   1     -23.863  -3.827  28.762  0.00  0.00    +0.000 A 
BRANCH  16  20
ATOM     20  C   UNL A   1     -27.738  -3.596  30.405  0.00  0.00    +0.388 C 
ATOM     21  O   UNL A   1     -28.286  -4.450  30.716  0.00  0.00    -0.241 OA
ATOM     22  O   UNL A   1     -28.319  -2.417  30.056  0.00  0.00    -0.241 OA
ENDBRANCH  16  20
ENDBRANCH   1  15
TORSDOF 3
ENDMDL
ENDMDL
