MODEL 4351
MODEL 1
REMARK VINA RESULT:    -8.484      0.000      0.000
REMARK INTER + INTRA:         -10.180
REMARK INTER:                  -9.476
REMARK INTRA:                  -0.704
REMARK UNBOUND:                -0.704
REMARK  Name = No_4351-gen_results/8p0m/2024-11-26-14-13-15/
REMARK  2 active torsions:
REMARK  status: ('A' for Active; 'I' for Inactive)
REMARK    1  A    between atoms: C_8  and  C_15
REMARK    2  A    between atoms: C_21  and  C_22
REMARK                            x       y       z     vdW  Elec       q    Type
REMARK                         _______ _______ _______ _____ _____    ______ ____
ROOT
ATOM      1  C   UNL A   1      -7.285   0.427  36.788  0.00  0.00    +0.030 A 
ATOM      2  C   UNL A   1      -7.409   0.256  35.597  0.00  0.00    +0.140 A 
ATOM      3  C   UNL A   1      -8.507   0.265  34.897  0.00  0.00    +0.030 A 
ATOM      4  C   UNL A   1      -9.739   0.488  35.585  0.00  0.00    +0.009 A 
ATOM      5  C   UNL A   1      -8.479   0.773  37.536  0.00  0.00    +0.002 A 
ATOM      6  C   UNL A   1      -9.650   0.785  36.899  0.00  0.00    +0.000 A 
ATOM      7  F   UNL A   1      -6.269   0.009  34.840  0.00  0.00    -0.204 F 
ATOM      8  C   UNL A   1     -10.897   1.078  37.665  0.00  0.00    +0.000 A 
ATOM      9  C   UNL A   1     -11.834   1.668  37.005  0.00  0.00    +0.000 A 
ATOM     10  C   UNL A   1     -13.086   2.088  37.629  0.00  0.00    +0.000 A 
ATOM     11  C   UNL A   1     -14.092   2.762  36.910  0.00  0.00    +0.000 A 
ATOM     12  C   UNL A   1     -13.896   3.005  35.532  0.00  0.00    +0.000 A 
ATOM     13  C   UNL A   1     -12.701   2.637  34.885  0.00  0.00    +0.000 A 
ATOM     14  C   UNL A   1     -11.721   2.025  35.595  0.00  0.00    +0.006 A 
ATOM     15  C   UNL A   1     -10.575   1.456  34.885  0.00  0.00    +0.080 A 
ENDROOT
BRANCH   8  16
ATOM     16  C   UNL A   1     -11.302  -0.250  38.324  0.00  0.00    +0.000 A 
ATOM     17  C   UNL A   1     -11.463  -1.341  37.501  0.00  0.00    +0.000 A 
ATOM     18  C   UNL A   1     -11.816  -2.567  38.073  0.00  0.00    +0.000 A 
ATOM     19  C   UNL A   1     -12.107  -2.594  39.068  0.00  0.00    +0.000 A 
ATOM     20  C   UNL A   1     -11.690  -0.521  39.599  0.00  0.00    +0.000 A 
ATOM     21  C   UNL A   1     -12.045  -1.605  40.101  0.00  0.00    +0.000 A 
ENDBRANCH   8  16
BRANCH  15  22
ATOM     22  C   UNL A   1     -10.489   1.733  33.420  0.00  0.00    +0.388 C 
ATOM     23  O   UNL A   1     -10.834   1.009  32.631  0.00  0.00    -0.241 OA
ATOM     24  O   UNL A   1      -9.593   2.633  33.137  0.00  0.00    -0.241 OA
ENDBRANCH  15  22
TORSDOF 2
ENDMDL
ENDMDL
