REMARK  Name = No_4351-gen_results/8p0m/2024-11-26-14-13-15/
REMARK  2 active torsions:
REMARK  status: ('A' for Active; 'I' for Inactive)
REMARK    1  A    between atoms: C_8  and  C_15
REMARK    2  A    between atoms: C_21  and  C_22
REMARK                            x       y       z     vdW  Elec       q    Type
REMARK                         _______ _______ _______ _____ _____    ______ ____
ROOT
ATOM      1  C   UNL A   1     -28.016  -0.814  28.878  0.00  0.00    +0.030 A 
ATOM      2  C   UNL A   1     -27.064  -0.119  28.608  0.00  0.00    +0.140 A 
ATOM      3  C   UNL A   1     -26.876   1.133  28.913  0.00  0.00    +0.030 A 
ATOM      4  C   UNL A   1     -27.901   1.807  29.644  0.00  0.00    +0.009 A 
ATOM      5  C   UNL A   1     -29.046  -0.232  29.718  0.00  0.00    +0.002 A 
ATOM      6  C   UNL A   1     -28.940   1.052  30.060  0.00  0.00    +0.000 A 
ATOM      7  F   UNL A   1     -26.021  -0.677  27.877  0.00  0.00    -0.204 F 
ATOM      8  C   UNL A   1     -30.021   1.685  30.872  0.00  0.00    +0.000 A 
ATOM      9  C   UNL A   1     -29.646   2.630  31.663  0.00  0.00    +0.000 A 
ATOM     10  C   UNL A   1     -30.569   3.300  32.576  0.00  0.00    +0.000 A 
ATOM     11  C   UNL A   1     -30.146   4.310  33.461  0.00  0.00    +0.000 A 
ATOM     12  C   UNL A   1     -28.792   4.712  33.437  0.00  0.00    +0.000 A 
ATOM     13  C   UNL A   1     -27.857   4.088  32.590  0.00  0.00    +0.000 A 
ATOM     14  C   UNL A   1     -28.265   3.088  31.769  0.00  0.00    +0.006 A 
ATOM     15  C   UNL A   1     -27.348   2.587  30.745  0.00  0.00    +0.080 A 
ENDROOT
BRANCH   8  16
ATOM     16  C   UNL A   1     -31.121   2.072  29.870  0.00  0.00    +0.000 A 
ATOM     17  C   UNL A   1     -32.230   1.261  29.804  0.00  0.00    +0.000 A 
ATOM     18  C   UNL A   1     -33.254   1.596  28.913  0.00  0.00    +0.000 A 
ATOM     19  C   UNL A   1     -33.089   2.343  28.212  0.00  0.00    +0.000 A 
ATOM     20  C   UNL A   1     -31.133   3.021  28.895  0.00  0.00    +0.000 A 
ATOM     21  C   UNL A   1     -32.028   3.294  28.073  0.00  0.00    +0.000 A 
ENDBRANCH   8  16
BRANCH  15  22
ATOM     22  C   UNL A   1     -25.951   3.114  30.779  0.00  0.00    +0.388 C 
ATOM     23  O   UNL A   1     -25.407   3.367  31.730  0.00  0.00    -0.241 OA
ATOM     24  O   UNL A   1     -25.605   3.674  29.657  0.00  0.00    -0.241 OA
ENDBRANCH  15  22
TORSDOF 2
