MODEL 4352
MODEL 1
REMARK VINA RESULT:    -5.338      0.000      0.000
REMARK INTER + INTRA:          -5.794
REMARK INTER:                  -5.651
REMARK INTRA:                  -0.143
REMARK UNBOUND:                -0.143
REMARK  Name = No_4352-gen_results/8p0m/2024-11-26-14-13-15/
REMARK  1 active torsions:
REMARK  status: ('A' for Active; 'I' for Inactive)
REMARK    1  A    between atoms: C_4  and  C_7
REMARK                            x       y       z     vdW  Elec       q    Type
REMARK                         _______ _______ _______ _____ _____    ______ ____
ROOT
ATOM      1  C   UNL A   1     -24.628  -5.233  28.913  0.00  0.00    -0.000 A 
ATOM      2  C   UNL A   1     -25.605  -5.170  29.302  0.00  0.00    -0.000 A 
ATOM      3  C   UNL A   1     -23.943  -3.959  28.642  0.00  0.00    -0.000 A 
ATOM      4  C   UNL A   1     -24.536  -2.721  29.027  0.00  0.00    -0.000 A 
ATOM      5  C   UNL A   1     -25.789  -2.801  29.580  0.00  0.00    -0.000 A 
ATOM      6  C   UNL A   1     -26.383  -3.996  29.783  0.00  0.00    -0.000 A 
ENDROOT
BRANCH   4   7
ATOM      7  C   UNL A   1     -23.873  -1.465  28.786  0.00  0.00    -0.005 C 
ATOM      8  C   UNL A   1     -22.708  -1.155  29.204  0.00  0.00    -0.026 C 
ATOM      9  C   UNL A   1     -21.988   0.047  28.765  0.00  0.00    +0.031 C 
ENDBRANCH   4   7
TORSDOF 1
ENDMDL
ENDMDL
