MODEL 4353
MODEL 1
REMARK VINA RESULT:    -6.019      0.000      0.000
REMARK INTER + INTRA:          -7.109
REMARK INTER:                  -6.722
REMARK INTRA:                  -0.387
REMARK UNBOUND:                -0.387
REMARK  Name = No_4353-gen_results/8p0m/2024-11-26-14-13-15/
REMARK  2 active torsions:
REMARK  status: ('A' for Active; 'I' for Inactive)
REMARK    1  A    between atoms: C_1  and  C_2
REMARK    2  A    between atoms: C_5  and  C_11
REMARK                            x       y       z     vdW  Elec       q    Type
REMARK                         _______ _______ _______ _____ _____    ______ ____
ROOT
ATOM      1  C   UNL A   1     -23.145   0.890  27.567  0.00  0.00    +0.071 A 
ATOM      2  C   UNL A   1     -24.356   0.293  27.278  0.00  0.00    +0.004 A 
ATOM      3  C   UNL A   1     -24.834  -0.962  27.827  0.00  0.00    +0.004 A 
ATOM      4  C   UNL A   1     -24.009  -1.667  28.732  0.00  0.00    +0.071 A 
ATOM      5  C   UNL A   1     -22.748  -1.048  29.053  0.00  0.00    +0.004 A 
ATOM      6  C   UNL A   1     -22.331   0.161  28.548  0.00  0.00    +0.004 A 
ENDROOT
BRANCH   1   7
ATOM      7  C   UNL A   1     -22.811   1.970  27.138  0.00  0.00    +0.419 C 
ATOM      8  F   UNL A   1     -23.496   2.980  27.436  0.00  0.00    -0.166 F 
ATOM      9  F   UNL A   1     -22.734   1.983  25.769  0.00  0.00    -0.166 F 
ATOM     10  F   UNL A   1     -21.515   2.255  27.591  0.00  0.00    -0.166 F 
ENDBRANCH   1   7
BRANCH   4  11
ATOM     11  C   UNL A   1     -24.350  -2.928  29.289  0.00  0.00    +0.419 C 
ATOM     12  F   UNL A   1     -24.064  -3.041  30.348  0.00  0.00    -0.166 F 
ATOM     13  F   UNL A   1     -25.605  -3.280  28.996  0.00  0.00    -0.166 F 
ATOM     14  F   UNL A   1     -23.639  -3.974  28.591  0.00  0.00    -0.166 F 
ENDBRANCH   4  11
TORSDOF 2
ENDMDL
ENDMDL
