REMARK  Name = No_4353-gen_results/8p0m/2024-11-26-14-13-15/
REMARK  2 active torsions:
REMARK  status: ('A' for Active; 'I' for Inactive)
REMARK    1  A    between atoms: C_1  and  C_2
REMARK    2  A    between atoms: C_5  and  C_11
REMARK                            x       y       z     vdW  Elec       q    Type
REMARK                         _______ _______ _______ _____ _____    ______ ____
ROOT
ATOM      1  C   UNL A   1     -27.064  -0.119  28.608  0.00  0.00    +0.071 A 
ATOM      2  C   UNL A   1     -27.001   0.691  27.491  0.00  0.00    +0.004 A 
ATOM      3  C   UNL A   1     -25.855   1.482  27.083  0.00  0.00    +0.004 A 
ATOM      4  C   UNL A   1     -24.690   1.453  27.881  0.00  0.00    +0.071 A 
ATOM      5  C   UNL A   1     -24.738   0.601  29.042  0.00  0.00    +0.004 A 
ATOM      6  C   UNL A   1     -25.823  -0.169  29.389  0.00  0.00    +0.004 A 
ENDROOT
BRANCH   1   7
ATOM      7  C   UNL A   1     -28.016  -0.814  28.878  0.00  0.00    +0.419 C 
ATOM      8  F   UNL A   1     -27.818  -1.996  29.255  0.00  0.00    -0.166 F 
ATOM      9  F   UNL A   1     -28.897  -0.917  27.832  0.00  0.00    -0.166 F 
ATOM     10  F   UNL A   1     -28.736  -0.210  29.918  0.00  0.00    -0.166 F 
ENDBRANCH   1   7
BRANCH   4  11
ATOM     11  C   UNL A   1     -23.530   2.227  27.608  0.00  0.00    +0.419 C 
ATOM     12  F   UNL A   1     -23.529   2.693  26.609  0.00  0.00    -0.166 F 
ATOM     13  F   UNL A   1     -23.226   3.044  28.620  0.00  0.00    -0.166 F 
ATOM     14  F   UNL A   1     -22.364   1.375  27.630  0.00  0.00    -0.166 F 
ENDBRANCH   4  11
TORSDOF 2
