REMARK  Name = No_4354-gen_results/8p0m/2024-11-26-14-13-15/
REMARK  10 active torsions:
REMARK  status: ('A' for Active; 'I' for Inactive)
REMARK    1  A    between atoms: C_1  and  C_17
REMARK    2  A    between atoms: C_3  and  C_7
REMARK    3  A    between atoms: C_5  and  C_12
REMARK    4  A    between atoms: C_7  and  N_8
REMARK    5  A    between atoms: C_17  and  O_19
REMARK    6  A    between atoms: O_19  and  C_20
REMARK    7  A    between atoms: C_20  and  C_21
REMARK    8  A    between atoms: C_22  and  C_27
REMARK    9  A    between atoms: C_28  and  C_29
REMARK   10  A    between atoms: C_30  and  C_31
REMARK                            x       y       z     vdW  Elec       q    Type
REMARK                         _______ _______ _______ _____ _____    ______ ____
ROOT
ATOM      1  C   UNL A   1     -28.016  -0.814  28.878  0.00  0.00    +0.076 A 
ATOM      2  C   UNL A   1     -27.064  -0.119  28.608  0.00  0.00    +0.006 A 
ATOM      3  C   UNL A   1     -26.972   0.714  27.506  0.00  0.00    +0.030 A 
ATOM      4  C   UNL A   1     -28.105   0.774  26.642  0.00  0.00    +0.007 A 
ATOM      5  C   UNL A   1     -29.204   0.118  27.048  0.00  0.00    +0.080 A 
ATOM      6  C   UNL A   1     -29.213  -0.609  28.128  0.00  0.00    +0.013 A 
ENDROOT
BRANCH   5   7
ATOM      7  C   UNL A   1     -30.396   0.245  26.191  0.00  0.00    +0.388 C 
ATOM      8  O   UNL A   1     -31.452   0.122  26.547  0.00  0.00    -0.241 OA
ATOM      9  O   UNL A   1     -30.194   0.451  24.888  0.00  0.00    -0.241 OA
ENDBRANCH   5   7
BRANCH   3  10
ATOM     10  C   UNL A   1     -25.711   1.452  27.138  0.00  0.00    +0.264 C 
ATOM     11  F   UNL A   1     -25.031   0.857  26.262  0.00  0.00    -0.210 F 
BRANCH  10  12
ATOM     12  N   UNL A   1     -25.404   2.472  27.733  0.00  0.00    -0.235 N 
ATOM     13  C   UNL A   1     -25.666   3.034  28.790  0.00  0.00    +0.312 C 
ATOM     14 CL   UNL A   1     -26.139   4.197  28.869  0.00  0.00    -0.022 Cl
ATOM     15  O   UNL A   1     -25.419   2.251  29.806  0.00  0.00    -0.257 OA
ATOM     16  C   UNL A   1     -24.789   3.561  26.697  0.00  0.00    +0.119 C 
ENDBRANCH  10  12
ENDBRANCH   3  10
BRANCH   1  17
ATOM     17  C   UNL A   1     -28.102  -1.639  30.129  0.00  0.00    +0.342 C 
ATOM     18  O   UNL A   1     -28.072  -2.750  30.107  0.00  0.00    -0.245 OA
BRANCH  17  19
ATOM     19  O   UNL A   1     -28.258  -0.992  31.304  0.00  0.00    -0.440 OA
BRANCH  19  20
ATOM     20  C   UNL A   1     -27.557  -0.079  31.686  0.00  0.00    +0.235 C 
BRANCH  20  21
ATOM     21  C   UNL A   1     -27.508   0.216  33.125  0.00  0.00    +0.021 A 
ATOM     22  C   UNL A   1     -28.211   1.278  33.611  0.00  0.00    -0.001 A 
ATOM     23  C   UNL A   1     -28.160   1.560  35.000  0.00  0.00    -0.000 A 
ATOM     24  C   UNL A   1     -27.450   0.742  35.840  0.00  0.00    -0.000 A 
ATOM     25  C   UNL A   1     -26.711  -0.354  35.307  0.00  0.00    -0.000 A 
ATOM     26  C   UNL A   1     -26.721  -0.575  33.940  0.00  0.00    -0.001 A 
BRANCH  22  27
ATOM     27  C   UNL A   1     -28.969   2.162  32.782  0.00  0.00    -0.000 C 
ATOM     28  C   UNL A   1     -28.527   3.099  32.267  0.00  0.00    -0.000 C 
BRANCH  28  29
ATOM     29  C   UNL A   1     -29.044   4.167  31.695  0.00  0.00    -0.000 C 
ATOM     30  C   UNL A   1     -28.372   5.321  31.274  0.00  0.00    -0.000 C 
BRANCH  30  31
ATOM     31  C   UNL A   1     -27.034   5.470  31.620  0.00  0.00    +0.000 C 
ATOM     32  C   UNL A   1     -26.365   4.466  32.342  0.00  0.00    +0.000 C 
ENDBRANCH  30  31
ENDBRANCH  28  29
ENDBRANCH  22  27
ENDBRANCH  20  21
ENDBRANCH  19  20
ENDBRANCH  17  19
ENDBRANCH   1  17
TORSDOF 10
