MODEL 4354
MODEL 1
REMARK VINA RESULT:    -7.778      0.000      0.000
REMARK INTER + INTRA:         -14.442
REMARK INTER:                 -12.325
REMARK INTRA:                  -2.117
REMARK UNBOUND:                -2.117
REMARK  Name = No_4354-gen_results/8p0m/2024-11-26-14-13-15/
REMARK  10 active torsions:
REMARK  status: ('A' for Active; 'I' for Inactive)
REMARK    1  A    between atoms: C_1  and  C_17
REMARK    2  A    between atoms: C_3  and  C_7
REMARK    3  A    between atoms: C_5  and  C_12
REMARK    4  A    between atoms: C_7  and  N_8
REMARK    5  A    between atoms: C_17  and  O_19
REMARK    6  A    between atoms: O_19  and  C_20
REMARK    7  A    between atoms: C_20  and  C_21
REMARK    8  A    between atoms: C_22  and  C_27
REMARK    9  A    between atoms: C_28  and  C_29
REMARK   10  A    between atoms: C_30  and  C_31
REMARK                            x       y       z     vdW  Elec       q    Type
REMARK                         _______ _______ _______ _____ _____    ______ ____
ROOT
ATOM      1  C   UNL A   1     -12.973   2.587  37.954  0.00  0.00    +0.076 A 
ATOM      2  C   UNL A   1     -14.135   2.923  37.932  0.00  0.00    +0.006 A 
ATOM      3  C   UNL A   1     -14.870   3.175  36.786  0.00  0.00    +0.030 A 
ATOM      4  C   UNL A   1     -14.206   2.994  35.537  0.00  0.00    +0.007 A 
ATOM      5  C   UNL A   1     -12.971   2.470  35.584  0.00  0.00    +0.080 A 
ATOM      6  C   UNL A   1     -12.371   2.221  36.713  0.00  0.00    +0.013 A 
ENDROOT
BRANCH   5   7
ATOM      7  C   UNL A   1     -12.318   2.213  34.288  0.00  0.00    +0.388 C 
ATOM      8  O   UNL A   1     -12.810   1.706  33.417  0.00  0.00    -0.241 OA
ATOM      9  O   UNL A   1     -11.031   2.546  34.175  0.00  0.00    -0.241 OA
ENDBRANCH   5   7
BRANCH   3  10
ATOM     10  C   UNL A   1     -16.272   3.726  36.815  0.00  0.00    +0.264 C 
ATOM     11  F   UNL A   1     -16.845   3.670  35.696  0.00  0.00    -0.210 F 
BRANCH  10  12
ATOM     12  N   UNL A   1     -16.707   4.237  37.834  0.00  0.00    -0.235 N 
ATOM     13  C   UNL A   1     -17.554   4.006  38.689  0.00  0.00    +0.312 C 
ATOM     14 CL   UNL A   1     -18.507   4.781  38.961  0.00  0.00    -0.022 Cl
ATOM     15  O   UNL A   1     -17.348   2.841  39.244  0.00  0.00    -0.257 OA
ATOM     16  C   UNL A   1     -16.349   5.820  37.863  0.00  0.00    +0.119 C 
ENDBRANCH  10  12
ENDBRANCH   3  10
BRANCH   1  17
ATOM     17  C   UNL A   1     -12.242   2.245  39.219  0.00  0.00    +0.342 C 
ATOM     18  O   UNL A   1     -12.709   2.360  40.221  0.00  0.00    -0.245 OA
BRANCH  17  19
ATOM     19  O   UNL A   1     -10.964   1.821  39.116  0.00  0.00    -0.440 OA
BRANCH  19  20
ATOM     20  C   UNL A   1     -10.541   0.786  39.586  0.00  0.00    +0.235 C 
BRANCH  20  21
ATOM     21  C   UNL A   1     -11.003  -0.487  39.014  0.00  0.00    +0.021 A 
ATOM     22  C   UNL A   1     -10.639  -0.817  37.743  0.00  0.00    -0.001 A 
ATOM     23  C   UNL A   1     -11.088  -2.045  37.194  0.00  0.00    -0.000 A 
ATOM     24  C   UNL A   1     -11.838  -2.903  37.957  0.00  0.00    -0.000 A 
ATOM     25  C   UNL A   1     -12.219  -2.530  39.279  0.00  0.00    -0.000 A 
ATOM     26  C   UNL A   1     -11.825  -1.298  39.774  0.00  0.00    -0.001 A 
BRANCH  22  27
ATOM     27  C   UNL A   1      -9.857   0.038  36.905  0.00  0.00    -0.000 C 
ATOM     28  C   UNL A   1      -8.898  -0.302  36.355  0.00  0.00    -0.000 C 
BRANCH  28  29
ATOM     29  C   UNL A   1      -7.902   0.326  35.764  0.00  0.00    -0.000 C 
ATOM     30  C   UNL A   1      -7.031  -0.178  34.791  0.00  0.00    -0.000 C 
BRANCH  30  31
ATOM     31  C   UNL A   1      -7.082  -1.536  34.498  0.00  0.00    +0.000 C 
ATOM     32  C   UNL A   1      -5.931  -2.336  34.609  0.00  0.00    +0.000 C 
ENDBRANCH  30  31
ENDBRANCH  28  29
ENDBRANCH  22  27
ENDBRANCH  20  21
ENDBRANCH  19  20
ENDBRANCH  17  19
ENDBRANCH   1  17
TORSDOF 10
ENDMDL
ENDMDL
