MODEL 4355
MODEL 1
REMARK VINA RESULT:    -6.607      0.000      0.000
REMARK INTER + INTRA:         -10.996
REMARK INTER:                  -9.698
REMARK INTRA:                  -1.298
REMARK UNBOUND:                -1.298
REMARK  Name = No_4355-gen_results/8p0m/2024-11-26-14-13-15/
REMARK  8 active torsions:
REMARK  status: ('A' for Active; 'I' for Inactive)
REMARK    1  A    between atoms: C_4  and  C_11
REMARK    2  A    between atoms: C_6  and  O_15
REMARK    3  A    between atoms: C_11  and  N_12
REMARK    4  A    between atoms: O_15  and  C_16
REMARK    5  A    between atoms: C_16  and  C_17
REMARK    6  A    between atoms: C_17  and  C_18
REMARK    7  A    between atoms: C_18  and  C_19
REMARK    8  A    between atoms: N_22  and  C_23
REMARK                            x       y       z     vdW  Elec       q    Type
REMARK                         _______ _______ _______ _____ _____    ______ ____
ROOT
ATOM      1  O   UNL A   1      -7.973   0.994  36.377  0.00  0.00    -0.474 OA
ENDROOT
BRANCH   1   7
ATOM      2  C   UNL A   1      -8.549   0.668  38.717  0.00  0.00    +0.037 A 
ATOM      3  C   UNL A   1      -9.279   0.206  39.563  0.00  0.00    +0.003 A 
ATOM      4  C   UNL A   1     -10.259  -0.724  39.236  0.00  0.00    -0.003 A 
ATOM      5  C   UNL A   1     -11.223  -1.357  40.181  0.00  0.00    -0.006 A 
ATOM      6  C   UNL A   1     -12.244  -2.304  39.821  0.00  0.00    -0.003 A 
ATOM      7  C   UNL A   1      -8.805   0.397  37.293  0.00  0.00    +0.139 A 
ATOM      8  C   UNL A   1      -9.703  -0.562  36.893  0.00  0.00    +0.037 A 
ATOM      9  C   UNL A   1     -10.534  -1.160  37.855  0.00  0.00    +0.003 A 
ATOM     10  C   UNL A   1     -12.182  -2.701  38.445  0.00  0.00    -0.000 A 
ATOM     11  C   UNL A   1     -11.450  -2.147  37.519  0.00  0.00    +0.000 A 
BRANCH   5  12
ATOM     12  C   UNL A   1     -11.165  -1.047  41.641  0.00  0.00    +0.099 C 
BRANCH  12  13
ATOM     13  N   UNL A   1     -10.260  -1.599  42.360  0.00  0.00    -0.267 NA
ATOM     14  C   UNL A   1      -9.983  -2.867  42.227  0.00  0.00    +0.090 C 
ATOM     15  C   UNL A   1      -9.565  -0.846  43.320  0.00  0.00    +0.090 C 
ENDBRANCH  12  13
ENDBRANCH   5  12
ENDBRANCH   1   7
BRANCH   1  16
ATOM     16  C   UNL A   1      -8.278   0.810  35.006  0.00  0.00    +0.225 C 
BRANCH  16  17
ATOM     17  C   UNL A   1      -8.389   2.024  34.321  0.00  0.00    +0.163 C 
ATOM     18 CL   UNL A   1      -7.453   3.349  35.075  0.00  0.00    -0.108 Cl
BRANCH  17  19
ATOM     19  C   UNL A   1      -9.548   2.339  33.788  0.00  0.00    +0.248 C 
ATOM     20  O   UNL A   1      -9.568   3.807  33.446  0.00  0.00    -0.212 OA
BRANCH  19  21
ATOM     21  C   UNL A   1     -10.663   1.939  34.369  0.00  0.00    +0.277 C 
ATOM     22  O   UNL A   1     -11.490   1.513  33.615  0.00  0.00    -0.270 OA
ATOM     23  N   UNL A   1     -11.176   2.560  35.482  0.00  0.00    -0.177 NA
BRANCH  23  24
ATOM     24  C   UNL A   1     -12.226   2.698  35.861  0.00  0.00    +0.073 A 
ATOM     25  C   UNL A   1     -13.205   3.120  35.391  0.00  0.00    +0.017 A 
ATOM     26  C   UNL A   1     -14.536   3.278  35.980  0.00  0.00    +0.001 A 
ATOM     27  C   UNL A   1     -14.684   2.926  37.319  0.00  0.00    +0.000 A 
ATOM     28  C   UNL A   1     -13.559   2.512  38.036  0.00  0.00    +0.001 A 
ATOM     29  C   UNL A   1     -12.410   2.361  37.410  0.00  0.00    +0.017 A 
ENDBRANCH  23  24
ENDBRANCH  19  21
ENDBRANCH  17  19
ENDBRANCH  16  17
ENDBRANCH   1  16
TORSDOF 8
ENDMDL
ENDMDL
