REMARK  Name = No_4355-gen_results/8p0m/2024-11-26-14-13-15/
REMARK  8 active torsions:
REMARK  status: ('A' for Active; 'I' for Inactive)
REMARK    1  A    between atoms: C_4  and  C_11
REMARK    2  A    between atoms: C_6  and  O_15
REMARK    3  A    between atoms: C_11  and  N_12
REMARK    4  A    between atoms: O_15  and  C_16
REMARK    5  A    between atoms: C_16  and  C_17
REMARK    6  A    between atoms: C_17  and  C_18
REMARK    7  A    between atoms: C_18  and  C_19
REMARK    8  A    between atoms: N_22  and  C_23
REMARK                            x       y       z     vdW  Elec       q    Type
REMARK                         _______ _______ _______ _____ _____    ______ ____
ROOT
ATOM      1  O   UNL A   1     -29.012  -2.619  30.167  0.00  0.00    -0.474 OA
ENDROOT
BRANCH   1   7
ATOM      2  C   UNL A   1     -28.016  -0.814  28.878  0.00  0.00    +0.037 A 
ATOM      3  C   UNL A   1     -27.064  -0.119  28.608  0.00  0.00    +0.003 A 
ATOM      4  C   UNL A   1     -25.792  -0.430  29.076  0.00  0.00    -0.003 A 
ATOM      5  C   UNL A   1     -24.546   0.349  28.823  0.00  0.00    -0.006 A 
ATOM      6  C   UNL A   1     -23.241   0.022  29.332  0.00  0.00    -0.003 A 
ATOM      7  C   UNL A   1     -27.882  -1.899  29.863  0.00  0.00    +0.139 A 
ATOM      8  C   UNL A   1     -26.653  -2.314  30.314  0.00  0.00    +0.037 A 
ATOM      9  C   UNL A   1     -25.515  -1.561  29.979  0.00  0.00    +0.003 A 
ATOM     10  C   UNL A   1     -23.207  -1.229  30.031  0.00  0.00    -0.000 A 
ATOM     11  C   UNL A   1     -24.243  -1.936  30.388  0.00  0.00    +0.000 A 
BRANCH   5  12
ATOM     12  C   UNL A   1     -24.577   1.565  27.957  0.00  0.00    +0.099 C 
BRANCH  12  13
ATOM     13  N   UNL A   1     -23.613   1.774  27.140  0.00  0.00    -0.267 NA
ATOM     14  C   UNL A   1     -22.390   1.919  27.573  0.00  0.00    +0.090 C 
ATOM     15  C   UNL A   1     -23.864   1.872  25.762  0.00  0.00    +0.090 C 
ENDBRANCH  12  13
ENDBRANCH   5  12
ENDBRANCH   1   7
BRANCH   1  16
ATOM     16  C   UNL A   1     -29.351  -2.748  31.537  0.00  0.00    +0.225 C 
BRANCH  16  17
ATOM     17  C   UNL A   1     -30.729  -2.648  31.753  0.00  0.00    +0.163 C 
ATOM     18 CL   UNL A   1     -31.373  -3.936  32.815  0.00  0.00    -0.108 Cl
BRANCH  17  19
ATOM     19  C   UNL A   1     -31.492  -2.256  30.758  0.00  0.00    +0.248 C 
ATOM     20  O   UNL A   1     -31.850  -3.439  29.896  0.00  0.00    -0.212 OA
BRANCH  19  21
ATOM     21  C   UNL A   1     -31.147  -1.198  30.049  0.00  0.00    +0.277 C 
ATOM     22  O   UNL A   1     -30.901  -0.224  30.700  0.00  0.00    -0.270 OA
ATOM     23  N   UNL A   1     -31.686  -0.934  28.813  0.00  0.00    -0.177 NA
BRANCH  23  24
ATOM     24  C   UNL A   1     -31.889   0.024  28.260  0.00  0.00    +0.073 A 
ATOM     25  C   UNL A   1     -32.709   0.362  27.505  0.00  0.00    +0.017 A 
ATOM     26  C   UNL A   1     -32.879   1.642  26.816  0.00  0.00    +0.001 A 
ATOM     27  C   UNL A   1     -31.906   2.614  27.032  0.00  0.00    +0.000 A 
ATOM     28  C   UNL A   1     -30.802   2.299  27.827  0.00  0.00    +0.001 A 
ATOM     29  C   UNL A   1     -30.756   1.134  28.441  0.00  0.00    +0.017 A 
ENDBRANCH  23  24
ENDBRANCH  19  21
ENDBRANCH  17  19
ENDBRANCH  16  17
ENDBRANCH   1  16
TORSDOF 8
