MODEL 4356
MODEL 1
REMARK VINA RESULT:    -5.885      0.000      0.000
REMARK INTER + INTRA:          -5.885
REMARK INTER:                  -5.885
REMARK INTRA:                   0.000
REMARK UNBOUND:                 0.000
REMARK  Name = No_4356-gen_results/8p0m/2024-11-26-14-13-15/
REMARK  0 active torsions:
REMARK  status: ('A' for Active; 'I' for Inactive)
REMARK                            x       y       z     vdW  Elec       q    Type
REMARK                         _______ _______ _______ _____ _____    ______ ____
ROOT
ATOM      1  C   UNL A   1     -24.589  -2.842  28.986  0.00  0.00    -0.004 A 
ATOM      2  C   UNL A   1     -23.841  -3.547  28.753  0.00  0.00    -0.000 A 
ATOM      3  C   UNL A   1     -25.664  -3.309  29.814  0.00  0.00    -0.000 A 
ATOM      4  C   UNL A   1     -26.654  -2.368  30.375  0.00  0.00    -0.000 A 
ATOM      5  C   UNL A   1     -26.263  -1.043  30.644  0.00  0.00    -0.000 A 
ATOM      6  C   UNL A   1     -25.001  -0.600  30.196  0.00  0.00    -0.004 A 
ATOM      7  C   UNL A   1     -24.172  -1.433  29.541  0.00  0.00    -0.022 A 
ATOM      8  C   UNL A   1     -23.980  -4.835  28.464  0.00  0.00    -0.000 A 
ATOM      9  C   UNL A   1     -25.197  -5.368  28.998  0.00  0.00    -0.000 A 
ATOM     10  C   UNL A   1     -26.131  -4.585  29.645  0.00  0.00    -0.000 A 
ATOM     11  C   UNL A   1     -22.837  -1.029  29.163  0.00  0.00    +0.031 C 
ENDROOT
TORSDOF 0
ENDMDL
ENDMDL
