MODEL 4357
MODEL 1
REMARK VINA RESULT:    -5.826      0.000      0.000
REMARK INTER + INTRA:          -9.254
REMARK INTER:                  -7.869
REMARK INTRA:                  -1.385
REMARK UNBOUND:                -1.385
REMARK  Name = No_4357-gen_results/8p0m/2024-11-26-14-13-15/
REMARK  6 active torsions:
REMARK  status: ('A' for Active; 'I' for Inactive)
REMARK    1  A    between atoms: C_2  and  C_7
REMARK    2  A    between atoms: C_7  and  C_9
REMARK    3  A    between atoms: C_9  and  C_10
REMARK    4  A    between atoms: C_10  and  C_11
REMARK    5  A    between atoms: C_11  and  C_13
REMARK    6  A    between atoms: C_13  and  C_14
REMARK                            x       y       z     vdW  Elec       q    Type
REMARK                         _______ _______ _______ _____ _____    ______ ____
ROOT
ATOM      1  C   UNL A   1     -24.618  -1.232  28.526  0.00  0.00    +0.022 C 
ATOM      2  C   UNL A   1     -25.679  -0.364  28.250  0.00  0.00    +0.005 C 
ENDROOT
BRANCH   1   4
ATOM      3  C   UNL A   1     -25.910  -3.022  29.472  0.00  0.00    -0.004 A 
ATOM      4  C   UNL A   1     -24.914  -2.685  28.874  0.00  0.00    -0.022 A 
ATOM      5  C   UNL A   1     -23.966  -3.549  28.432  0.00  0.00    -0.004 A 
ATOM      6  C   UNL A   1     -24.146  -4.923  28.681  0.00  0.00    -0.000 A 
ATOM      7  C   UNL A   1     -26.205  -4.417  29.678  0.00  0.00    -0.000 A 
ATOM      8  C   UNL A   1     -25.270  -5.324  29.278  0.00  0.00    -0.000 A 
ENDBRANCH   1   4
BRANCH   1   9
ATOM      9  C   UNL A   1     -23.342  -0.632  28.741  0.00  0.00    +0.004 C 
BRANCH   9  10
ATOM     10  C   UNL A   1     -22.723  -0.461  29.979  0.00  0.00    +0.001 C 
BRANCH  10  11
ATOM     11  C   UNL A   1     -23.457   0.006  31.109  0.00  0.00    +0.004 C 
ATOM     12  C   UNL A   1     -23.817   1.391  31.034  0.00  0.00    +0.000 C 
BRANCH  11  13
ATOM     13  C   UNL A   1     -23.919  -0.757  32.099  0.00  0.00    +0.028 C 
BRANCH  13  14
ATOM     14  C   UNL A   1     -25.202  -0.427  32.699  0.00  0.00    -0.007 C 
ATOM     15  C   UNL A   1     -25.396  -0.450  34.117  0.00  0.00    +0.101 C 
ATOM     16  N   UNL A   1     -24.367  -0.814  34.821  0.00  0.00    -0.127 NA
ENDBRANCH  13  14
ENDBRANCH  11  13
ENDBRANCH  10  11
ENDBRANCH   9  10
ENDBRANCH   1   9
TORSDOF 6
ENDMDL
ENDMDL
