REMARK  Name = No_4357-gen_results/8p0m/2024-11-26-14-13-15/
REMARK  6 active torsions:
REMARK  status: ('A' for Active; 'I' for Inactive)
REMARK    1  A    between atoms: C_2  and  C_7
REMARK    2  A    between atoms: C_7  and  C_9
REMARK    3  A    between atoms: C_9  and  C_10
REMARK    4  A    between atoms: C_10  and  C_11
REMARK    5  A    between atoms: C_11  and  C_13
REMARK    6  A    between atoms: C_13  and  C_14
REMARK                            x       y       z     vdW  Elec       q    Type
REMARK                         _______ _______ _______ _____ _____    ______ ____
ROOT
ATOM      1  C   UNL A   1     -25.881  -0.626  27.794  0.00  0.00    +0.022 C 
ATOM      2  C   UNL A   1     -25.422   0.130  26.710  0.00  0.00    +0.005 C 
ENDROOT
BRANCH   1   4
ATOM      3  C   UNL A   1     -28.016  -0.814  28.878  0.00  0.00    -0.004 A 
ATOM      4  C   UNL A   1     -27.064  -0.119  28.608  0.00  0.00    -0.022 A 
ATOM      5  C   UNL A   1     -26.929   1.171  29.008  0.00  0.00    -0.004 A 
ATOM      6  C   UNL A   1     -27.956   1.741  29.784  0.00  0.00    -0.000 A 
ATOM      7  C   UNL A   1     -29.057  -0.327  29.747  0.00  0.00    -0.000 A 
ATOM      8  C   UNL A   1     -28.983   0.972  30.152  0.00  0.00    -0.000 A 
ENDBRANCH   1   4
BRANCH   1   9
ATOM      9  C   UNL A   1     -25.033  -1.682  28.240  0.00  0.00    +0.004 C 
BRANCH   9  10
ATOM     10  C   UNL A   1     -24.398  -1.744  29.480  0.00  0.00    +0.001 C 
BRANCH  10  11
ATOM     11  C   UNL A   1     -24.021  -0.556  30.174  0.00  0.00    +0.004 C 
ATOM     12  C   UNL A   1     -23.832  -0.743  31.582  0.00  0.00    +0.000 C 
BRANCH  11  13
ATOM     13  C   UNL A   1     -23.716   0.608  29.602  0.00  0.00    +0.028 C 
BRANCH  13  14
ATOM     14  C   UNL A   1     -22.496   0.705  28.817  0.00  0.00    -0.007 C 
ATOM     15  C   UNL A   1     -22.294   1.759  27.870  0.00  0.00    +0.101 C 
ATOM     16  N   UNL A   1     -23.279   2.595  27.738  0.00  0.00    -0.127 NA
ENDBRANCH  13  14
ENDBRANCH  11  13
ENDBRANCH  10  11
ENDBRANCH   9  10
ENDBRANCH   1   9
TORSDOF 6
