MODEL 4358
MODEL 1
REMARK VINA RESULT:    -7.037      0.000      0.000
REMARK INTER + INTRA:         -10.528
REMARK INTER:                  -9.094
REMARK INTRA:                  -1.434
REMARK UNBOUND:                -1.434
REMARK  Name = No_4358-gen_results/8p0m/2024-11-26-14-13-15/
REMARK  5 active torsions:
REMARK  status: ('A' for Active; 'I' for Inactive)
REMARK    1  A    between atoms: C_3  and  O_7
REMARK    2  A    between atoms: C_4  and  C_17
REMARK    3  A    between atoms: C_5  and  C_23
REMARK    4  A    between atoms: O_7  and  C_8
REMARK    5  A    between atoms: C_11  and  C_14
REMARK                            x       y       z     vdW  Elec       q    Type
REMARK                         _______ _______ _______ _____ _____    ______ ____
ROOT
ATOM      1  C   UNL A   1     -24.282   1.344  25.681  0.00  0.00    +0.037 A 
ATOM      2  C   UNL A   1     -23.498   1.876  26.144  0.00  0.00    +0.003 A 
ATOM      3  C   UNL A   1     -24.889   0.304  26.461  0.00  0.00    +0.145 A 
ATOM      4  C   UNL A   1     -24.406  -0.102  27.639  0.00  0.00    +0.041 A 
ATOM      5  C   UNL A   1     -23.339   0.598  28.130  0.00  0.00    +0.083 A 
ATOM      6  C   UNL A   1     -22.814   1.637  27.364  0.00  0.00    +0.007 A 
ENDROOT
BRANCH   4   7
ATOM      7  C   UNL A   1     -25.027  -1.192  28.335  0.00  0.00    +0.003 A 
ATOM      8  C   UNL A   1     -24.588  -2.341  28.353  0.00  0.00    +0.000 A 
ATOM      9  C   UNL A   1     -25.256  -3.416  29.130  0.00  0.00    +0.000 A 
ATOM     10  C   UNL A   1     -26.357  -3.080  29.951  0.00  0.00    +0.000 A 
ATOM     11  C   UNL A   1     -26.733  -1.773  29.966  0.00  0.00    +0.000 A 
ATOM     12  C   UNL A   1     -26.128  -0.788  29.167  0.00  0.00    +0.000 A 
ENDBRANCH   4   7
BRANCH   5  13
ATOM     13  C   UNL A   1     -22.709   0.208  29.425  0.00  0.00    +0.388 C 
ATOM     14  O   UNL A   1     -23.075   0.573  30.515  0.00  0.00    -0.241 OA
ATOM     15  O   UNL A   1     -21.598  -0.529  29.272  0.00  0.00    -0.241 OA
ENDBRANCH   5  13
BRANCH   3  16
ATOM     16  O   UNL A   1     -26.036  -0.173  25.804  0.00  0.00    -0.454 OA
BRANCH  16  17
ATOM     17  C   UNL A   1     -27.128   0.619  25.576  0.00  0.00    +0.145 A 
ATOM     18  C   UNL A   1     -27.727   1.306  26.620  0.00  0.00    +0.038 A 
ATOM     19  C   UNL A   1     -28.737   2.225  26.347  0.00  0.00    +0.008 A 
ATOM     20  C   UNL A   1     -28.759   2.983  25.177  0.00  0.00    +0.057 A 
ATOM     21  C   UNL A   1     -27.909   2.562  24.142  0.00  0.00    +0.008 A 
ATOM     22  C   UNL A   1     -27.757   0.731  24.315  0.00  0.00    +0.038 A 
BRANCH  20  23
ATOM     23  C   UNL A   1     -29.527   4.157  24.931  0.00  0.00    +0.284 C 
ATOM     24  N   UNL A   1     -30.714   4.134  24.394  0.00  0.00    -0.084 NA
ATOM     25  O   UNL A   1     -29.031   5.279  25.348  0.00  0.00    -0.267 OA
ENDBRANCH  20  23
ENDBRANCH  16  17
ENDBRANCH   3  16
TORSDOF 5
ENDMDL
ENDMDL
