REMARK  Name = No_4358-gen_results/8p0m/2024-11-26-14-13-15/
REMARK  5 active torsions:
REMARK  status: ('A' for Active; 'I' for Inactive)
REMARK    1  A    between atoms: C_3  and  O_7
REMARK    2  A    between atoms: C_4  and  C_17
REMARK    3  A    between atoms: C_5  and  C_23
REMARK    4  A    between atoms: O_7  and  C_8
REMARK    5  A    between atoms: C_11  and  C_14
REMARK                            x       y       z     vdW  Elec       q    Type
REMARK                         _______ _______ _______ _____ _____    ______ ____
ROOT
ATOM      1  C   UNL A   1     -28.016  -0.814  28.878  0.00  0.00    +0.037 A 
ATOM      2  C   UNL A   1     -28.469  -0.785  29.829  0.00  0.00    +0.003 A 
ATOM      3  C   UNL A   1     -28.196   0.348  28.055  0.00  0.00    +0.145 A 
ATOM      4  C   UNL A   1     -29.019   1.350  28.378  0.00  0.00    +0.041 A 
ATOM      5  C   UNL A   1     -29.625   1.268  29.601  0.00  0.00    +0.083 A 
ATOM      6  C   UNL A   1     -29.379   0.147  30.392  0.00  0.00    +0.007 A 
ENDROOT
BRANCH   4   7
ATOM      7  C   UNL A   1     -29.200   2.452  27.477  0.00  0.00    +0.003 A 
ATOM      8  C   UNL A   1     -28.289   3.173  27.074  0.00  0.00    +0.000 A 
ATOM      9  C   UNL A   1     -28.538   4.272  26.106  0.00  0.00    +0.000 A 
ATOM     10  C   UNL A   1     -29.833   4.417  25.558  0.00  0.00    +0.000 A 
ATOM     11  C   UNL A   1     -30.774   3.525  25.968  0.00  0.00    +0.000 A 
ATOM     12  C   UNL A   1     -30.530   2.538  26.938  0.00  0.00    +0.000 A 
ENDBRANCH   4   7
BRANCH   5  13
ATOM     13  C   UNL A   1     -30.582   2.322  30.045  0.00  0.00    +0.388 C 
ATOM     14  O   UNL A   1     -31.758   2.353  29.777  0.00  0.00    -0.241 OA
ATOM     15  O   UNL A   1     -29.991   3.327  30.710  0.00  0.00    -0.241 OA
ENDBRANCH   5  13
BRANCH   3  16
ATOM     16  O   UNL A   1     -27.378   0.255  26.917  0.00  0.00    -0.454 OA
BRANCH  16  17
ATOM     17  C   UNL A   1     -26.015   0.358  26.988  0.00  0.00    +0.145 A 
ATOM     18  C   UNL A   1     -25.423   1.524  27.447  0.00  0.00    +0.038 A 
ATOM     19  C   UNL A   1     -24.047   1.557  27.659  0.00  0.00    +0.008 A 
ATOM     20  C   UNL A   1     -23.330   0.437  28.078  0.00  0.00    +0.057 A 
ATOM     21  C   UNL A   1     -23.983  -0.801  27.973  0.00  0.00    +0.008 A 
ATOM     22  C   UNL A   1     -25.135  -0.653  26.539  0.00  0.00    +0.038 A 
BRANCH  20  23
ATOM     23  C   UNL A   1     -22.018   0.418  28.633  0.00  0.00    +0.284 C 
ATOM     24  N   UNL A   1     -21.670  -0.366  29.614  0.00  0.00    -0.084 NA
ATOM     25  O   UNL A   1     -21.128   1.165  28.059  0.00  0.00    -0.267 OA
ENDBRANCH  20  23
ENDBRANCH  16  17
ENDBRANCH   3  16
TORSDOF 5
