MODEL 4359
MODEL 1
REMARK VINA RESULT:    -7.115      0.000      0.000
REMARK INTER + INTRA:         -10.099
REMARK INTER:                  -8.779
REMARK INTRA:                  -1.319
REMARK UNBOUND:                -1.319
REMARK  Name = No_4359-gen_results/8p0m/2024-11-26-14-13-15/
REMARK  4 active torsions:
REMARK  status: ('A' for Active; 'I' for Inactive)
REMARK    1  A    between atoms: C_3  and  C_4
REMARK    2  A    between atoms: C_4  and  C_8
REMARK    3  A    between atoms: C_7  and  C_15
REMARK    4  A    between atoms: C_15  and  C_16
REMARK                            x       y       z     vdW  Elec       q    Type
REMARK                         _______ _______ _______ _____ _____    ______ ____
ROOT
ATOM      1  C   UNL A   1     -24.716   0.150  27.144  0.00  0.00    +0.007 A 
ATOM      2  C   UNL A   1     -23.912   0.769  26.859  0.00  0.00    +0.057 A 
ATOM      3  C   UNL A   1     -24.739  -0.255  28.601  0.00  0.00    -0.021 A 
ATOM      4  C   UNL A   1     -22.914   1.504  27.647  0.00  0.00    +0.011 A 
ATOM      5  C   UNL A   1     -22.891   1.208  28.993  0.00  0.00    -0.003 A 
ATOM      6  C   UNL A   1     -23.814   0.348  29.528  0.00  0.00    -0.022 A 
ATOM      7 CL   UNL A   1     -23.866   1.243  25.120  0.00  0.00    -0.082 Cl
ENDROOT
BRANCH   6   8
ATOM      8  C   UNL A   1     -23.771   0.059  30.923  0.00  0.00    +0.040 C 
ATOM      9  C   UNL A   1     -22.711  -0.794  31.380  0.00  0.00    +0.009 C 
BRANCH   8  10
ATOM     10  C   UNL A   1     -24.571   0.673  31.895  0.00  0.00    -0.040 C 
ATOM     11  C   UNL A   1     -24.838   2.025  31.972  0.00  0.00    -0.009 C 
ATOM     12  C   UNL A   1     -25.122  -0.128  33.069  0.00  0.00    +0.027 C 
ENDBRANCH   8  10
ENDBRANCH   6   8
BRANCH   3  13
ATOM     13  C   UNL A   1     -25.637  -1.205  29.209  0.00  0.00    +0.052 C 
BRANCH  13  14
ATOM     14  C   UNL A   1     -25.268  -2.612  29.077  0.00  0.00    -0.018 A 
ATOM     15  C   UNL A   1     -24.276  -2.992  28.621  0.00  0.00    -0.004 A 
ATOM     16  C   UNL A   1     -23.994  -4.453  28.577  0.00  0.00    -0.000 A 
ATOM     17  C   UNL A   1     -24.937  -5.368  29.067  0.00  0.00    -0.000 A 
ATOM     18  C   UNL A   1     -26.220  -3.573  29.684  0.00  0.00    -0.004 A 
ATOM     19  C   UNL A   1     -26.016  -4.911  29.626  0.00  0.00    -0.000 A 
ENDBRANCH  13  14
ENDBRANCH   3  13
TORSDOF 4
ENDMDL
ENDMDL
