REMARK  Name = No_4359-gen_results/8p0m/2024-11-26-14-13-15/
REMARK  4 active torsions:
REMARK  status: ('A' for Active; 'I' for Inactive)
REMARK    1  A    between atoms: C_3  and  C_4
REMARK    2  A    between atoms: C_4  and  C_8
REMARK    3  A    between atoms: C_7  and  C_15
REMARK    4  A    between atoms: C_15  and  C_16
REMARK                            x       y       z     vdW  Elec       q    Type
REMARK                         _______ _______ _______ _____ _____    ______ ____
ROOT
ATOM      1  C   UNL A   1     -28.016  -0.814  28.878  0.00  0.00    +0.007 A 
ATOM      2  C   UNL A   1     -28.469  -0.785  29.829  0.00  0.00    +0.057 A 
ATOM      3  C   UNL A   1     -26.504  -0.778  28.877  0.00  0.00    -0.021 A 
ATOM      4  C   UNL A   1     -27.918  -0.937  31.182  0.00  0.00    +0.011 A 
ATOM      5  C   UNL A   1     -26.542  -0.940  31.261  0.00  0.00    -0.003 A 
ATOM      6  C   UNL A   1     -25.783  -0.893  30.120  0.00  0.00    -0.022 A 
ATOM      7 CL   UNL A   1     -30.272  -0.810  29.840  0.00  0.00    -0.082 Cl
ENDROOT
BRANCH   6   8
ATOM      8  C   UNL A   1     -24.362  -0.900  30.227  0.00  0.00    +0.040 C 
ATOM      9  C   UNL A   1     -23.711  -2.178  30.168  0.00  0.00    +0.009 C 
BRANCH   8  10
ATOM     10  C   UNL A   1     -23.550   0.241  30.212  0.00  0.00    -0.040 C 
ATOM     11  C   UNL A   1     -22.172   0.240  30.133  0.00  0.00    -0.009 C 
ATOM     12  C   UNL A   1     -24.151   1.626  30.425  0.00  0.00    +0.027 C 
ENDBRANCH   8  10
ENDBRANCH   6   8
BRANCH   3  13
ATOM     13  C   UNL A   1     -25.654  -0.660  27.719  0.00  0.00    +0.052 C 
BRANCH  13  14
ATOM     14  C   UNL A   1     -25.213   0.692  27.383  0.00  0.00    -0.018 A 
ATOM     15  C   UNL A   1     -25.882   1.633  27.430  0.00  0.00    -0.004 A 
ATOM     16  C   UNL A   1     -25.307   2.966  27.101  0.00  0.00    -0.000 A 
ATOM     17  C   UNL A   1     -23.964   3.079  26.714  0.00  0.00    -0.000 A 
ATOM     18  C   UNL A   1     -23.769   0.824  27.070  0.00  0.00    -0.004 A 
ATOM     19  C   UNL A   1     -23.221   2.014  26.726  0.00  0.00    -0.000 A 
ENDBRANCH  13  14
ENDBRANCH   3  13
TORSDOF 4
