MODEL 435
MODEL 1
REMARK VINA RESULT:    -8.277      0.000      0.000
REMARK INTER + INTRA:         -12.275
REMARK INTER:                 -10.696
REMARK INTRA:                  -1.579
REMARK UNBOUND:                -1.579
REMARK  Name = No_435-gen_results/8p0m/2024-11-26-14-13-15/
REMARK  5 active torsions:
REMARK  status: ('A' for Active; 'I' for Inactive)
REMARK    1  A    between atoms: C_3  and  C_7
REMARK    2  A    between atoms: C_7  and  C_8
REMARK    3  A    between atoms: C_8  and  C_10
REMARK    4  A    between atoms: C_14  and  C_17
REMARK    5  A    between atoms: C_21  and  C_23
REMARK                            x       y       z     vdW  Elec       q    Type
REMARK                         _______ _______ _______ _____ _____    ______ ____
ROOT
ATOM      1  C   UNL A   1     -23.966   1.032  28.350  0.00  0.00    -0.022 A 
ATOM      2  C   UNL A   1     -23.012   1.178  29.355  0.00  0.00    -0.004 A 
ATOM      3  C   UNL A   1     -22.758   0.160  30.267  0.00  0.00    -0.000 A 
ATOM      4  C   UNL A   1     -23.292  -1.105  30.075  0.00  0.00    -0.000 A 
ATOM      5  C   UNL A   1     -24.188  -1.291  29.020  0.00  0.00    -0.000 A 
ATOM      6  C   UNL A   1     -24.478  -0.327  28.157  0.00  0.00    -0.004 A 
ENDROOT
BRANCH   5   7
ATOM      7  C   UNL A   1     -24.801  -2.671  28.906  0.00  0.00    +0.006 A 
ATOM      8  C   UNL A   1     -23.937  -3.661  28.473  0.00  0.00    +0.000 A 
ATOM      9  C   UNL A   1     -24.196  -4.940  28.783  0.00  0.00    +0.000 A 
ATOM     10  C   UNL A   1     -25.480  -5.305  29.279  0.00  0.00    +0.000 A 
ATOM     11  C   UNL A   1     -26.022  -2.930  29.597  0.00  0.00    +0.080 A 
ATOM     12  C   UNL A   1     -26.355  -4.297  29.771  0.00  0.00    +0.007 A 
BRANCH  11  13
ATOM     13  C   UNL A   1     -26.886  -1.944  30.095  0.00  0.00    +0.388 C 
ATOM     14  O   UNL A   1     -27.677  -1.441  29.479  0.00  0.00    -0.241 OA
ATOM     15  O   UNL A   1     -26.592  -1.513  31.390  0.00  0.00    -0.241 OA
ENDBRANCH  11  13
ENDBRANCH   5   7
BRANCH   1  16
ATOM     16  C   UNL A   1     -24.159   2.014  27.411  0.00  0.00    +0.026 C 
ATOM     17  C   UNL A   1     -24.616   3.338  27.932  0.00  0.00    +0.005 C 
BRANCH  16  18
ATOM     18  C   UNL A   1     -24.124   1.901  26.139  0.00  0.00    +0.026 C 
ATOM     19  C   UNL A   1     -23.051   2.257  25.339  0.00  0.00    +0.005 C 
BRANCH  18  22
ATOM     20  C   UNL A   1     -25.167  -0.057  24.826  0.00  0.00    -0.004 A 
ATOM     21  C   UNL A   1     -26.070  -0.409  24.413  0.00  0.00    -0.000 A 
ATOM     22  C   UNL A   1     -25.285   1.255  25.463  0.00  0.00    -0.022 A 
ATOM     23  C   UNL A   1     -26.478   1.933  25.521  0.00  0.00    -0.004 A 
ATOM     24  C   UNL A   1     -27.448   0.075  24.330  0.00  0.00    -0.000 A 
ATOM     25  C   UNL A   1     -27.574   1.344  24.943  0.00  0.00    -0.000 A 
ENDBRANCH  18  22
ENDBRANCH  16  18
ENDBRANCH   1  16
TORSDOF 5
ENDMDL
ENDMDL
