REMARK  Name = No_436-gen_results/8p0m/2024-11-26-14-13-15/
REMARK  3 active torsions:
REMARK  status: ('A' for Active; 'I' for Inactive)
REMARK    1  A    between atoms: C_1  and  C_6
REMARK    2  A    between atoms: C_3  and  C_13
REMARK    3  A    between atoms: C_5  and  C_10
REMARK                            x       y       z     vdW  Elec       q    Type
REMARK                         _______ _______ _______ _____ _____    ______ ____
ROOT
ATOM      1  C   UNL A   1     -28.016  -0.814  28.878  0.00  0.00    +0.080 A 
ATOM      2  C   UNL A   1     -27.064  -0.119  28.608  0.00  0.00    +0.007 A 
ATOM      3  C   UNL A   1     -26.972   0.714  27.506  0.00  0.00    +0.000 A 
ATOM      4  C   UNL A   1     -28.105   0.774  26.642  0.00  0.00    +0.007 A 
ATOM      5  C   UNL A   1     -29.201   0.104  27.053  0.00  0.00    +0.080 A 
ATOM      6  C   UNL A   1     -29.164  -0.639  28.148  0.00  0.00    +0.013 A 
ENDROOT
BRANCH   3   7
ATOM      7  C   UNL A   1     -25.695   1.437  27.133  0.00  0.00    +0.000 A 
ATOM      8  C   UNL A   1     -24.580   0.987  27.735  0.00  0.00    +0.000 A 
ATOM      9  C   UNL A   1     -23.339   1.719  27.574  0.00  0.00    +0.000 A 
ATOM     10  C   UNL A   1     -23.336   2.634  26.539  0.00  0.00    +0.000 A 
ATOM     11  C   UNL A   1     -24.482   3.022  25.885  0.00  0.00    +0.000 A 
ATOM     12  C   UNL A   1     -25.705   2.438  26.184  0.00  0.00    +0.000 A 
ENDBRANCH   3   7
BRANCH   1  13
ATOM     13  C   UNL A   1     -28.022  -1.590  30.088  0.00  0.00    +0.388 C 
ATOM     14  O   UNL A   1     -28.825  -1.891  30.710  0.00  0.00    -0.241 OA
ATOM     15  O   UNL A   1     -26.795  -2.221  30.343  0.00  0.00    -0.241 OA
ENDBRANCH   1  13
BRANCH   5  16
ATOM     16  C   UNL A   1     -30.297   0.268  26.015  0.00  0.00    +0.388 C 
ATOM     17  O   UNL A   1     -30.260   0.446  24.883  0.00  0.00    -0.241 OA
ATOM     18  O   UNL A   1     -31.525   0.283  26.598  0.00  0.00    -0.241 OA
ENDBRANCH   5  16
TORSDOF 3
