MODEL 4360
MODEL 1
REMARK VINA RESULT:    -5.434      0.000      0.000
REMARK INTER + INTRA:          -6.231
REMARK INTER:                  -6.069
REMARK INTRA:                  -0.162
REMARK UNBOUND:                -0.162
REMARK  Name = No_4360-gen_results/8p0m/2024-11-26-14-13-15/
REMARK  2 active torsions:
REMARK  status: ('A' for Active; 'I' for Inactive)
REMARK    1  A    between atoms: C_2  and  C_11
REMARK    2  A    between atoms: C_7  and  C_8
REMARK                            x       y       z     vdW  Elec       q    Type
REMARK                         _______ _______ _______ _____ _____    ______ ____
ROOT
ATOM      1  C   UNL A   1     -21.840   1.188  27.906  0.00  0.00    +0.146 A 
ATOM      2  C   UNL A   1     -22.837   1.181  27.564  0.00  0.00    +0.107 A 
ATOM      3  F   UNL A   1     -21.063   2.211  27.529  0.00  0.00    -0.204 F 
ATOM      4  C   UNL A   1     -21.045   0.166  28.458  0.00  0.00    +0.030 A 
ATOM      5  C   UNL A   1     -21.700  -0.891  29.151  0.00  0.00    +0.009 A 
ATOM      6  C   UNL A   1     -23.731  -0.009  28.121  0.00  0.00    +0.015 A 
ATOM      7  C   UNL A   1     -23.054  -0.971  28.811  0.00  0.00    +0.080 A 
ENDROOT
BRANCH   7   8
ATOM      8  C   UNL A   1     -23.821  -2.111  29.357  0.00  0.00    +0.388 C 
ATOM      9  O   UNL A   1     -24.713  -2.025  30.096  0.00  0.00    -0.241 OA
ATOM     10  O   UNL A   1     -23.453  -3.225  28.808  0.00  0.00    -0.241 OA
ENDBRANCH   7   8
BRANCH   2  11
ATOM     11  C   UNL A   1     -23.611   2.240  26.821  0.00  0.00    +0.390 C 
ATOM     12  O   UNL A   1     -23.622   2.293  25.667  0.00  0.00    -0.240 OA
ATOM     13  O   UNL A   1     -24.055   3.338  27.511  0.00  0.00    -0.240 OA
ENDBRANCH   2  11
TORSDOF 2
ENDMDL
ENDMDL
