REMARK  Name = No_4360-gen_results/8p0m/2024-11-26-14-13-15/
REMARK  2 active torsions:
REMARK  status: ('A' for Active; 'I' for Inactive)
REMARK    1  A    between atoms: C_2  and  C_11
REMARK    2  A    between atoms: C_7  and  C_8
REMARK                            x       y       z     vdW  Elec       q    Type
REMARK                         _______ _______ _______ _____ _____    ______ ____
ROOT
ATOM      1  C   UNL A   1     -28.016  -0.814  28.878  0.00  0.00    +0.146 A 
ATOM      2  C   UNL A   1     -28.469  -0.785  29.829  0.00  0.00    +0.107 A 
ATOM      3  F   UNL A   1     -26.916  -1.564  28.737  0.00  0.00    -0.204 F 
ATOM      4  C   UNL A   1     -28.165   0.026  27.758  0.00  0.00    +0.030 A 
ATOM      5  C   UNL A   1     -29.403   0.710  27.594  0.00  0.00    +0.009 A 
ATOM      6  C   UNL A   1     -29.820   0.047  29.907  0.00  0.00    +0.015 A 
ATOM      7  C   UNL A   1     -30.122   0.771  28.792  0.00  0.00    +0.080 A 
ENDROOT
BRANCH   7   8
ATOM      8  C   UNL A   1     -31.365   1.573  28.793  0.00  0.00    +0.388 C 
ATOM      9  O   UNL A   1     -31.716   2.261  29.660  0.00  0.00    -0.241 OA
ATOM     10  O   UNL A   1     -31.959   1.510  27.644  0.00  0.00    -0.241 OA
ENDBRANCH   7   8
BRANCH   2  11
ATOM     11  C   UNL A   1     -28.167  -1.592  31.067  0.00  0.00    +0.390 C 
ATOM     12  O   UNL A   1     -27.531  -2.556  31.029  0.00  0.00    -0.240 OA
ATOM     13  O   UNL A   1     -28.903  -1.362  32.199  0.00  0.00    -0.240 OA
ENDBRANCH   2  11
TORSDOF 2
