MODEL 4361
MODEL 1
REMARK VINA RESULT:    -5.120      0.000      0.000
REMARK INTER + INTRA:          -5.120
REMARK INTER:                  -5.120
REMARK INTRA:                   0.000
REMARK UNBOUND:                 0.000
REMARK  Name = No_4361-gen_results/8p0m/2024-11-26-14-13-15/
REMARK  0 active torsions:
REMARK  status: ('A' for Active; 'I' for Inactive)
REMARK                            x       y       z     vdW  Elec       q    Type
REMARK                         _______ _______ _______ _____ _____    ______ ____
ROOT
ATOM      1  C   UNL A   1     -24.345  -5.181  28.791  0.00  0.00    +0.271 C 
ATOM      2  C   UNL A   1     -25.082  -4.351  29.269  0.00  0.00    +0.012 C 
ATOM      3  C   UNL A   1     -26.370  -4.592  29.718  0.00  0.00    +0.027 C 
ATOM      4  C   UNL A   1     -27.299  -3.607  30.217  0.00  0.00    +0.004 C 
ATOM      5  C   UNL A   1     -26.886  -2.255  30.274  0.00  0.00    +0.001 C 
ATOM      6  C   UNL A   1     -25.575  -1.940  29.832  0.00  0.00    +0.004 C 
ATOM      7  C   UNL A   1     -24.782  -2.936  29.350  0.00  0.00    +0.027 C 
ATOM      8  F   UNL A   1     -23.643  -4.926  27.776  0.00  0.00    -0.173 F 
ATOM      9  F   UNL A   1     -24.978  -6.335  28.456  0.00  0.00    -0.173 F 
ENDROOT
TORSDOF 0
ENDMDL
ENDMDL
