REMARK  Name = No_4362-gen_results/8p0m/2024-11-26-14-13-15/
REMARK  1 active torsions:
REMARK  status: ('A' for Active; 'I' for Inactive)
REMARK    1  A    between atoms: C_5  and  C_7
REMARK                            x       y       z     vdW  Elec       q    Type
REMARK                         _______ _______ _______ _____ _____    ______ ____
ROOT
ATOM      1  C   UNL A   1     -28.016  -0.814  28.878  0.00  0.00    -0.000 A 
ATOM      2  C   UNL A   1     -27.064  -0.119  28.608  0.00  0.00    -0.000 A 
ATOM      3  C   UNL A   1     -26.972   0.714  27.506  0.00  0.00    -0.000 A 
ATOM      4  C   UNL A   1     -28.105   0.774  26.642  0.00  0.00    -0.000 A 
ATOM      5  C   UNL A   1     -29.201   0.104  27.053  0.00  0.00    -0.000 A 
ATOM      6  C   UNL A   1     -29.210  -0.603  28.185  0.00  0.00    -0.000 A 
ENDROOT
BRANCH   5   7
ATOM      7  C   UNL A   1     -30.370   0.226  26.160  0.00  0.00    -0.005 C 
ATOM      8  C   UNL A   1     -31.393  -0.478  26.462  0.00  0.00    -0.026 C 
ATOM      9  C   UNL A   1     -31.472  -1.185  27.741  0.00  0.00    +0.031 C 
ENDBRANCH   5   7
TORSDOF 1
