MODEL 4362
MODEL 1
REMARK VINA RESULT:    -5.046      0.000      0.000
REMARK INTER + INTRA:          -5.145
REMARK INTER:                  -5.341
REMARK INTRA:                   0.196
REMARK UNBOUND:                 0.196
REMARK  Name = No_4362-gen_results/8p0m/2024-11-26-14-13-15/
REMARK  1 active torsions:
REMARK  status: ('A' for Active; 'I' for Inactive)
REMARK    1  A    between atoms: C_5  and  C_7
REMARK                            x       y       z     vdW  Elec       q    Type
REMARK                         _______ _______ _______ _____ _____    ______ ____
ROOT
ATOM      1  C   UNL A   1     -26.479  -3.834  29.903  0.00  0.00    -0.000 A 
ATOM      2  C   UNL A   1     -26.050  -4.894  29.508  0.00  0.00    -0.000 A 
ATOM      3  C   UNL A   1     -24.814  -5.082  28.914  0.00  0.00    -0.000 A 
ATOM      4  C   UNL A   1     -23.974  -3.936  28.788  0.00  0.00    -0.000 A 
ATOM      5  C   UNL A   1     -24.421  -2.806  29.372  0.00  0.00    -0.000 A 
ATOM      6  C   UNL A   1     -25.598  -2.755  29.999  0.00  0.00    -0.000 A 
ENDROOT
BRANCH   5   7
ATOM      7  C   UNL A   1     -23.506  -1.652  29.264  0.00  0.00    -0.005 C 
ATOM      8  C   UNL A   1     -23.806  -0.767  28.392  0.00  0.00    -0.026 C 
ATOM      9  C   UNL A   1     -25.099  -0.791  27.706  0.00  0.00    +0.031 C 
ENDBRANCH   5   7
TORSDOF 1
ENDMDL
ENDMDL
