MODEL 4363
MODEL 1
REMARK VINA RESULT:    -6.487      0.000      0.000
REMARK INTER + INTRA:          -7.247
REMARK INTER:                  -6.866
REMARK INTRA:                  -0.382
REMARK UNBOUND:                -0.382
REMARK  Name = No_4363-gen_results/8p0m/2024-11-26-14-13-15/
REMARK  1 active torsions:
REMARK  status: ('A' for Active; 'I' for Inactive)
REMARK    1  A    between atoms: C_3  and  C_7
REMARK                            x       y       z     vdW  Elec       q    Type
REMARK                         _______ _______ _______ _____ _____    ______ ____
ROOT
ATOM      1  C   UNL A   1     -25.851  -2.566  29.728  0.00  0.00    +0.000 A 
ATOM      2  C   UNL A   1     -26.374  -3.463  29.910  0.00  0.00    +0.000 A 
ATOM      3  C   UNL A   1     -24.593  -2.654  29.092  0.00  0.00    +0.000 A 
ATOM      4  C   UNL A   1     -24.043  -3.866  28.725  0.00  0.00    +0.000 A 
ATOM      5  C   UNL A   1     -24.800  -4.994  28.995  0.00  0.00    +0.000 A 
ATOM      6  C   UNL A   1     -26.039  -4.857  29.584  0.00  0.00    +0.000 A 
ENDROOT
BRANCH   3   7
ATOM      7  C   UNL A   1     -23.755  -1.457  28.754  0.00  0.00    +0.000 A 
ATOM      8  C   UNL A   1     -22.606  -1.287  29.175  0.00  0.00    +0.000 A 
ATOM      9  C   UNL A   1     -24.357  -0.464  27.877  0.00  0.00    +0.000 A 
ATOM     10  C   UNL A   1     -21.927  -0.025  29.068  0.00  0.00    +0.000 A 
ATOM     11  C   UNL A   1     -23.654   0.644  27.496  0.00  0.00    +0.000 A 
ATOM     12  C   UNL A   1     -22.404   0.888  28.134  0.00  0.00    +0.000 A 
ENDBRANCH   3   7
TORSDOF 1
ENDMDL
ENDMDL
