REMARK  Name = No_4364-gen_results/8p0m/2024-11-26-14-13-15/
REMARK  7 active torsions:
REMARK  status: ('A' for Active; 'I' for Inactive)
REMARK    1  A    between atoms: C_1  and  C_2
REMARK    2  A    between atoms: C_1  and  C_8
REMARK    3  A    between atoms: C_3  and  C_19
REMARK    4  A    between atoms: C_5  and  C_11
REMARK    5  A    between atoms: N_10  and  C_14
REMARK    6  A    between atoms: N_10  and  C_23
REMARK    7  A    between atoms: C_14  and  C_15
REMARK                            x       y       z     vdW  Elec       q    Type
REMARK                         _______ _______ _______ _____ _____    ______ ____
ROOT
ATOM      1  C   UNL A   1     -27.064  -0.119  28.608  0.00  0.00    -0.009 A 
ATOM      2  C   UNL A   1     -26.972   0.714  27.506  0.00  0.00    +0.068 A 
ATOM      3  C   UNL A   1     -25.820   1.491  27.116  0.00  0.00    +0.010 A 
ATOM      4  C   UNL A   1     -24.656   1.424  27.918  0.00  0.00    +0.080 A 
ATOM      5  C   UNL A   1     -24.685   0.590  29.066  0.00  0.00    +0.006 A 
ATOM      6  C   UNL A   1     -25.810  -0.127  29.334  0.00  0.00    -0.004 A 
ENDROOT
BRANCH   2   7
ATOM      7  C   UNL A   1     -28.121   0.860  26.577  0.00  0.00    +0.418 C 
ATOM      8  F   UNL A   1     -28.012   0.475  25.493  0.00  0.00    -0.166 F 
ATOM      9  F   UNL A   1     -28.550   2.186  26.642  0.00  0.00    -0.166 F 
ATOM     10  F   UNL A   1     -29.306   0.348  27.070  0.00  0.00    -0.166 F 
ENDBRANCH   2   7
BRANCH   4  11
ATOM     11  C   UNL A   1     -23.469   2.199  27.601  0.00  0.00    +0.388 C 
ATOM     12  O   UNL A   1     -22.542   2.205  28.455  0.00  0.00    -0.241 OA
ATOM     13  O   UNL A   1     -23.305   2.637  26.379  0.00  0.00    -0.241 OA
ENDBRANCH   4  11
BRANCH   1  14
ATOM     14  C   UNL A   1     -28.016  -0.814  28.878  0.00  0.00    +0.112 C 
BRANCH  14  15
ATOM     15  C   UNL A   1     -28.694  -0.473  30.159  0.00  0.00    +0.235 C 
ATOM     16  O   UNL A   1     -28.731   0.507  30.639  0.00  0.00    -0.274 OA
ATOM     17  N   UNL A   1     -29.325  -1.640  30.801  0.00  0.00    -0.236 N 
BRANCH  17  18
ATOM     18  C   UNL A   1     -30.096  -1.327  32.044  0.00  0.00    +0.065 C 
ATOM     19  C   UNL A   1     -31.016  -0.862  32.300  0.00  0.00    -0.010 C 
ATOM     20  C   UNL A   1     -31.619  -0.653  33.560  0.00  0.00    +0.032 C 
ENDBRANCH  17  18
BRANCH  17  21
ATOM     21  C   UNL A   1     -29.373  -2.937  30.321  0.00  0.00    +0.264 C 
ATOM     22 CL   UNL A   1     -30.788  -3.376  29.635  0.00  0.00    -0.080 Cl
BRANCH  21  23
ATOM     23  C   UNL A   1     -28.388  -3.680  30.596  0.00  0.00    +0.399 C 
ATOM     24  O   UNL A   1     -27.364  -3.549  30.419  0.00  0.00    -0.242 OA
ATOM     25  O   UNL A   1     -28.656  -4.794  31.450  0.00  0.00    -0.242 OA
ENDBRANCH  21  23
ENDBRANCH  17  21
ENDBRANCH  14  15
ENDBRANCH   1  14
TORSDOF 7
