MODEL 4364
MODEL 1
REMARK VINA RESULT:    -6.617      0.000      0.000
REMARK INTER + INTRA:         -10.538
REMARK INTER:                  -9.325
REMARK INTRA:                  -1.213
REMARK UNBOUND:                -1.213
REMARK  Name = No_4364-gen_results/8p0m/2024-11-26-14-13-15/
REMARK  7 active torsions:
REMARK  status: ('A' for Active; 'I' for Inactive)
REMARK    1  A    between atoms: C_1  and  C_2
REMARK    2  A    between atoms: C_1  and  C_8
REMARK    3  A    between atoms: C_3  and  C_19
REMARK    4  A    between atoms: C_5  and  C_11
REMARK    5  A    between atoms: N_10  and  C_14
REMARK    6  A    between atoms: N_10  and  C_23
REMARK    7  A    between atoms: C_14  and  C_15
REMARK                            x       y       z     vdW  Elec       q    Type
REMARK                         _______ _______ _______ _____ _____    ______ ____
ROOT
ATOM      1  C   UNL A   1     -29.683 -11.167  29.122  0.00  0.00    -0.009 A 
ATOM      2  C   UNL A   1     -29.798 -11.233  27.744  0.00  0.00    +0.068 A 
ATOM      3  C   UNL A   1     -30.560 -10.338  26.906  0.00  0.00    +0.010 A 
ATOM      4  C   UNL A   1     -31.276  -9.283  27.520  0.00  0.00    +0.080 A 
ATOM      5  C   UNL A   1     -31.203  -9.161  28.932  0.00  0.00    +0.006 A 
ATOM      6  C   UNL A   1     -30.433 -10.037  29.632  0.00  0.00    -0.004 A 
ENDROOT
BRANCH   2   7
ATOM      7  C   UNL A   1     -29.083 -12.287  26.980  0.00  0.00    +0.418 C 
ATOM      8  F   UNL A   1     -27.929 -12.253  26.932  0.00  0.00    -0.166 F 
ATOM      9  F   UNL A   1     -29.677 -12.371  25.720  0.00  0.00    -0.166 F 
ATOM     10  F   UNL A   1     -29.435 -13.574  27.341  0.00  0.00    -0.166 F 
ENDBRANCH   2   7
BRANCH   4  11
ATOM     11  C   UNL A   1     -32.085  -8.361  26.742  0.00  0.00    +0.388 C 
ATOM     12  O   UNL A   1     -31.508  -7.340  26.280  0.00  0.00    -0.241 OA
ATOM     13  O   UNL A   1     -33.275  -8.737  26.348  0.00  0.00    -0.241 OA
ENDBRANCH   4  11
BRANCH   1  14
ATOM     14  C   UNL A   1     -28.984 -11.886  29.798  0.00  0.00    +0.112 C 
BRANCH  14  15
ATOM     15  C   UNL A   1     -29.725 -12.869  30.635  0.00  0.00    +0.235 C 
ATOM     16  O   UNL A   1     -30.458 -13.601  30.290  0.00  0.00    -0.274 OA
ATOM     17  N   UNL A   1     -29.408 -12.753  32.070  0.00  0.00    -0.236 N 
BRANCH  17  18
ATOM     18  C   UNL A   1     -30.060 -13.782  32.938  0.00  0.00    +0.065 C 
ATOM     19  C   UNL A   1     -30.620 -13.805  33.840  0.00  0.00    -0.010 C 
ATOM     20  C   UNL A   1     -31.189 -14.893  34.538  0.00  0.00    +0.032 C 
ENDBRANCH  17  18
BRANCH  17  21
ATOM     21  C   UNL A   1     -28.503 -11.889  32.661  0.00  0.00    +0.264 C 
ATOM     22 CL   UNL A   1     -28.954 -10.321  32.695  0.00  0.00    -0.080 Cl
BRANCH  21  23
ATOM     23  C   UNL A   1     -27.376 -12.373  32.969  0.00  0.00    +0.399 C 
ATOM     24  O   UNL A   1     -26.558 -12.634  32.370  0.00  0.00    -0.242 OA
ATOM     25  O   UNL A   1     -27.063 -12.406  34.363  0.00  0.00    -0.242 OA
ENDBRANCH  21  23
ENDBRANCH  17  21
ENDBRANCH  14  15
ENDBRANCH   1  14
TORSDOF 7
ENDMDL
ENDMDL
