MODEL 4365
MODEL 1
REMARK VINA RESULT:    -4.819      0.000      0.000
REMARK INTER + INTRA:          -5.335
REMARK INTER:                  -5.101
REMARK INTRA:                  -0.234
REMARK UNBOUND:                -0.234
REMARK  Name = No_4365-gen_results/8p0m/2024-11-26-14-13-15/
REMARK  1 active torsions:
REMARK  status: ('A' for Active; 'I' for Inactive)
REMARK    1  A    between atoms: C_3  and  C_4
REMARK                            x       y       z     vdW  Elec       q    Type
REMARK                         _______ _______ _______ _____ _____    ______ ____
ROOT
ATOM      1  C   UNL A   1     -23.856  -3.674  28.699  0.00  0.00    -0.000 A 
ATOM      2  C   UNL A   1     -24.206  -4.667  28.648  0.00  0.00    -0.000 A 
ATOM      3  C   UNL A   1     -24.680  -2.717  29.329  0.00  0.00    -0.000 A 
ATOM      4  C   UNL A   1     -25.459  -5.281  29.120  0.00  0.00    -0.000 A 
ATOM      5  C   UNL A   1     -26.327  -4.391  29.754  0.00  0.00    -0.000 A 
ATOM      6  C   UNL A   1     -25.945  -3.098  29.918  0.00  0.00    -0.000 A 
ENDROOT
BRANCH   3   7
ATOM      7  C   UNL A   1     -24.291  -1.304  29.580  0.00  0.00    -0.005 C 
ATOM      8  C   UNL A   1     -24.421  -0.383  28.496  0.00  0.00    -0.026 C 
ATOM      9  C   UNL A   1     -25.239  -0.649  27.383  0.00  0.00    +0.031 C 
ENDBRANCH   3   7
TORSDOF 1
ENDMDL
ENDMDL
