MODEL 4366
MODEL 1
REMARK VINA RESULT:    -8.202      0.000      0.000
REMARK INTER + INTRA:          -9.166
REMARK INTER:                  -8.681
REMARK INTRA:                  -0.485
REMARK UNBOUND:                -0.485
REMARK  Name = No_4366-gen_results/8p0m/2024-11-26-14-13-15/
REMARK  1 active torsions:
REMARK  status: ('A' for Active; 'I' for Inactive)
REMARK    1  A    between atoms: C_9  and  C_13
REMARK                            x       y       z     vdW  Elec       q    Type
REMARK                         _______ _______ _______ _____ _____    ______ ____
ROOT
ATOM      1  C   UNL A   1     -22.073  -0.198  29.109  0.00  0.00    +0.000 A 
ATOM      2  C   UNL A   1     -22.497   0.477  28.200  0.00  0.00    +0.001 A 
ATOM      3  C   UNL A   1     -23.768   0.405  27.732  0.00  0.00    +0.013 A 
ATOM      4  C   UNL A   1     -24.303   1.226  26.622  0.00  0.00    +0.085 A 
ATOM      5  C   UNL A   1     -23.408   2.173  26.025  0.00  0.00    +0.151 A 
ATOM      6  C   UNL A   1     -22.115   2.267  26.588  0.00  0.00    +0.030 A 
ATOM      7  C   UNL A   1     -21.688   1.472  27.620  0.00  0.00    +0.002 A 
ATOM      8  C   UNL A   1     -22.629  -1.447  29.317  0.00  0.00    +0.000 A 
ATOM      9  C   UNL A   1     -23.862  -1.732  28.860  0.00  0.00    +0.000 A 
ATOM     10  C   UNL A   1     -24.439  -0.841  27.920  0.00  0.00    +0.001 A 
ATOM     11  F   UNL A   1     -23.792   3.070  25.179  0.00  0.00    -0.203 F 
ATOM     12 CL   UNL A   1     -25.890   1.131  26.004  0.00  0.00    -0.080 Cl
ENDROOT
BRANCH   9  13
ATOM     13  C   UNL A   1     -24.646  -2.902  29.288  0.00  0.00    +0.000 A 
ATOM     14  C   UNL A   1     -24.407  -3.992  28.813  0.00  0.00    +0.000 A 
ATOM     15  C   UNL A   1     -25.114  -5.151  29.200  0.00  0.00    +0.000 A 
ATOM     16  C   UNL A   1     -25.991  -2.615  29.558  0.00  0.00    +0.000 A 
ATOM     17  C   UNL A   1     -26.831  -3.673  30.007  0.00  0.00    +0.000 A 
ATOM     18  C   UNL A   1     -26.384  -4.948  29.725  0.00  0.00    +0.000 A 
ENDBRANCH   9  13
TORSDOF 1
ENDMDL
ENDMDL
