REMARK  Name = No_4366-gen_results/8p0m/2024-11-26-14-13-15/
REMARK  1 active torsions:
REMARK  status: ('A' for Active; 'I' for Inactive)
REMARK    1  A    between atoms: C_9  and  C_13
REMARK                            x       y       z     vdW  Elec       q    Type
REMARK                         _______ _______ _______ _____ _____    ______ ____
ROOT
ATOM      1  C   UNL A   1     -28.016  -0.814  28.878  0.00  0.00    +0.000 A 
ATOM      2  C   UNL A   1     -27.064  -0.119  28.608  0.00  0.00    +0.001 A 
ATOM      3  C   UNL A   1     -26.929   1.171  29.008  0.00  0.00    +0.013 A 
ATOM      4  C   UNL A   1     -25.770   2.034  28.688  0.00  0.00    +0.085 A 
ATOM      5  C   UNL A   1     -24.714   1.443  27.919  0.00  0.00    +0.151 A 
ATOM      6  C   UNL A   1     -24.859   0.078  27.584  0.00  0.00    +0.030 A 
ATOM      7  C   UNL A   1     -25.965  -0.661  27.916  0.00  0.00    +0.002 A 
ATOM      8  C   UNL A   1     -29.241  -0.204  29.074  0.00  0.00    +0.000 A 
ATOM      9  C   UNL A   1     -29.314   1.097  29.408  0.00  0.00    +0.000 A 
ATOM     10  C   UNL A   1     -28.142   1.882  29.259  0.00  0.00    +0.001 A 
ATOM     11  F   UNL A   1     -23.575   2.020  27.726  0.00  0.00    -0.203 F 
ATOM     12 CL   UNL A   1     -25.596   3.663  29.160  0.00  0.00    -0.080 Cl
ENDROOT
BRANCH   9  13
ATOM     13  C   UNL A   1     -30.528   1.746  29.928  0.00  0.00    +0.000 A 
ATOM     14  C   UNL A   1     -31.477   1.922  29.193  0.00  0.00    +0.000 A 
ATOM     15  C   UNL A   1     -32.673   2.521  29.643  0.00  0.00    +0.000 A 
ATOM     16  C   UNL A   1     -30.275   2.743  30.879  0.00  0.00    +0.000 A 
ATOM     17  C   UNL A   1     -31.385   3.414  31.467  0.00  0.00    +0.000 A 
ATOM     18  C   UNL A   1     -32.566   3.345  30.756  0.00  0.00    +0.000 A 
ENDBRANCH   9  13
TORSDOF 1
