MODEL 4367
MODEL 1
REMARK VINA RESULT:    -5.270      0.000      0.000
REMARK INTER + INTRA:          -6.260
REMARK INTER:                  -5.887
REMARK INTRA:                  -0.373
REMARK UNBOUND:                -0.373
REMARK  Name = No_4367-gen_results/8p0m/2024-11-26-14-13-15/
REMARK  2 active torsions:
REMARK  status: ('A' for Active; 'I' for Inactive)
REMARK    1  A    between atoms: C_3  and  C_4
REMARK    2  A    between atoms: C_4  and  C_8
REMARK                            x       y       z     vdW  Elec       q    Type
REMARK                         _______ _______ _______ _____ _____    ______ ____
ROOT
ATOM      1  C   UNL A   1     -26.298  -4.370  29.707  0.00  0.00    -0.000 A 
ATOM      2  C   UNL A   1     -26.001  -3.198  29.722  0.00  0.00    -0.004 A 
ATOM      3  C   UNL A   1     -24.841  -2.743  29.103  0.00  0.00    -0.018 A 
ATOM      4  C   UNL A   1     -25.329  -5.366  29.245  0.00  0.00    -0.000 A 
ATOM      5  C   UNL A   1     -24.262  -4.905  28.644  0.00  0.00    -0.000 A 
ATOM      6  C   UNL A   1     -23.907  -3.624  28.498  0.00  0.00    -0.004 A 
ENDROOT
BRANCH   3   7
ATOM      7  C   UNL A   1     -24.485  -1.371  29.030  0.00  0.00    +0.052 C 
BRANCH   7   8
ATOM      8  C   UNL A   1     -23.207  -0.860  29.031  0.00  0.00    -0.026 C 
ATOM      9  C   UNL A   1     -22.509  -0.593  30.211  0.00  0.00    -0.030 C 
ATOM     10  C   UNL A   1     -23.238  -0.514  31.443  0.00  0.00    +0.030 C 
ENDBRANCH   7   8
ENDBRANCH   3   7
TORSDOF 2
ENDMDL
ENDMDL
