REMARK  Name = No_4368-gen_results/8p0m/2024-11-26-14-13-15/
REMARK  3 active torsions:
REMARK  status: ('A' for Active; 'I' for Inactive)
REMARK    1  A    between atoms: C_3  and  C_7
REMARK    2  A    between atoms: C_6  and  C_20
REMARK    3  A    between atoms: C_10  and  C_11
REMARK                            x       y       z     vdW  Elec       q    Type
REMARK                         _______ _______ _______ _____ _____    ______ ____
ROOT
ATOM      1  C   UNL A   1     -28.016  -0.814  28.878  0.00  0.00    +0.000 A 
ATOM      2  C   UNL A   1     -28.469  -0.785  29.829  0.00  0.00    -0.000 A 
ATOM      3  C   UNL A   1     -27.136   0.236  28.535  0.00  0.00    +0.001 A 
ATOM      4  C   UNL A   1     -26.875   1.282  29.398  0.00  0.00    -0.004 A 
ATOM      5  C   UNL A   1     -28.361   0.199  30.924  0.00  0.00    -0.004 A 
ATOM      6  C   UNL A   1     -27.528   1.223  30.636  0.00  0.00    -0.022 A 
ENDROOT
BRANCH   6   7
ATOM      7  C   UNL A   1     -27.364   2.378  31.619  0.00  0.00    +0.027 C 
ATOM      8  C   UNL A   1     -28.306   3.300  31.750  0.00  0.00    +0.009 C 
ATOM      9  C   UNL A   1     -29.439   3.339  31.009  0.00  0.00    +0.001 C 
ATOM     10  C   UNL A   1     -30.406   4.407  31.164  0.00  0.00    +0.000 C 
ATOM     11  C   UNL A   1     -30.119   5.353  32.103  0.00  0.00    +0.000 C 
ATOM     12  C   UNL A   1     -29.011   5.362  32.878  0.00  0.00    +0.005 C 
ATOM     13  C   UNL A   1     -28.052   4.365  32.732  0.00  0.00    +0.026 C 
ATOM     14  C   UNL A   1     -26.127   2.317  32.434  0.00  0.00    +0.034 C 
ATOM     15  C   UNL A   1     -26.238   1.950  33.879  0.00  0.00    +0.015 C 
ATOM     16  C   UNL A   1     -25.415   3.758  32.412  0.00  0.00    +0.005 C 
ATOM     17  C   UNL A   1     -24.561   3.912  31.279  0.00  0.00    +0.000 C 
ATOM     18  C   UNL A   1     -26.400   4.897  32.532  0.00  0.00    +0.005 C 
ATOM     19  C   UNL A   1     -28.147   3.642  34.191  0.00  0.00    +0.014 C 
ATOM     20  C   UNL A   1     -27.383   2.855  34.565  0.00  0.00    -0.110 C 
ENDBRANCH   6   7
BRANCH   3  21
ATOM     21  C   UNL A   1     -26.399   0.295  27.228  0.00  0.00    +0.011 A 
ATOM     22  C   UNL A   1     -26.902   0.728  26.213  0.00  0.00    +0.058 A 
ATOM     23  C   UNL A   1     -26.175   0.636  24.926  0.00  0.00    +0.011 A 
ATOM     24  C   UNL A   1     -25.077  -0.207  27.239  0.00  0.00    +0.001 A 
ATOM     25  C   UNL A   1     -24.810   0.242  24.985  0.00  0.00    +0.001 A 
ATOM     26  C   UNL A   1     -24.291  -0.101  26.151  0.00  0.00    +0.000 A 
ATOM     27 CL   UNL A   1     -28.569   1.213  25.979  0.00  0.00    -0.082 Cl
BRANCH  24  28
ATOM     28  C   UNL A   1     -24.466  -0.675  28.569  0.00  0.00    +0.000 A 
ATOM     29  C   UNL A   1     -24.078  -1.586  29.145  0.00  0.00    +0.000 A 
ATOM     30  C   UNL A   1     -23.440  -1.609  30.401  0.00  0.00    +0.000 A 
ATOM     31  C   UNL A   1     -23.670  -0.547  31.233  0.00  0.00    +0.000 A 
ATOM     32  C   UNL A   1     -24.455   0.590  29.614  0.00  0.00    +0.000 A 
ATOM     33  C   UNL A   1     -23.916   0.574  30.777  0.00  0.00    +0.000 A 
ENDBRANCH  24  28
ENDBRANCH   3  21
TORSDOF 3
