MODEL 4368
MODEL 1
REMARK VINA RESULT:    -8.020      0.000      0.000
REMARK INTER + INTRA:         -12.225
REMARK INTER:                  -9.426
REMARK INTRA:                  -2.799
REMARK UNBOUND:                -2.799
REMARK  Name = No_4368-gen_results/8p0m/2024-11-26-14-13-15/
REMARK  3 active torsions:
REMARK  status: ('A' for Active; 'I' for Inactive)
REMARK    1  A    between atoms: C_3  and  C_7
REMARK    2  A    between atoms: C_6  and  C_20
REMARK    3  A    between atoms: C_10  and  C_11
REMARK                            x       y       z     vdW  Elec       q    Type
REMARK                         _______ _______ _______ _____ _____    ______ ____
ROOT
ATOM      1  C   UNL A   1     -27.622  -8.992   8.541  0.00  0.00    +0.000 A 
ATOM      2  C   UNL A   1     -27.313  -9.525   9.396  0.00  0.00    -0.000 A 
ATOM      3  C   UNL A   1     -28.878  -9.313   7.982  0.00  0.00    +0.001 A 
ATOM      4  C   UNL A   1     -29.684 -10.299   8.515  0.00  0.00    -0.004 A 
ATOM      5  C   UNL A   1     -27.973 -10.606  10.154  0.00  0.00    -0.004 A 
ATOM      6  C   UNL A   1     -29.180 -10.946   9.651  0.00  0.00    -0.022 A 
ENDROOT
BRANCH   6   7
ATOM      7  C   UNL A   1     -29.965 -12.105  10.257  0.00  0.00    +0.027 C 
ATOM      8  C   UNL A   1     -29.685 -13.359   9.935  0.00  0.00    +0.009 C 
ATOM      9  C   UNL A   1     -28.748 -13.719   9.026  0.00  0.00    +0.001 C 
ATOM     10  C   UNL A   1     -28.527 -15.109   8.679  0.00  0.00    +0.000 C 
ATOM     11  C   UNL A   1     -29.300 -16.025   9.329  0.00  0.00    +0.000 C 
ATOM     12  C   UNL A   1     -30.243 -15.728  10.251  0.00  0.00    +0.005 C 
ATOM     13  C   UNL A   1     -30.496 -14.401  10.583  0.00  0.00    +0.026 C 
ATOM     14  C   UNL A   1     -30.978 -11.700  11.260  0.00  0.00    +0.034 C 
ATOM     15  C   UNL A   1     -30.706 -11.973  12.705  0.00  0.00    +0.015 C 
ATOM     16  C   UNL A   1     -32.363 -12.449  10.937  0.00  0.00    +0.005 C 
ATOM     17  C   UNL A   1     -33.145 -11.732   9.982  0.00  0.00    +0.000 C 
ATOM     18  C   UNL A   1     -32.166 -13.891  10.533  0.00  0.00    +0.005 C 
ATOM     19  C   UNL A   1     -30.042 -14.393  12.150  0.00  0.00    +0.014 C 
ATOM     20  C   UNL A   1     -30.255 -13.512  12.872  0.00  0.00    -0.110 C 
ENDBRANCH   6   7
BRANCH   3  21
ATOM     21  C   UNL A   1     -29.450  -8.605   6.788  0.00  0.00    +0.011 A 
ATOM     22  C   UNL A   1     -29.201  -8.939   5.649  0.00  0.00    +0.058 A 
ATOM     23  C   UNL A   1     -29.685  -8.121   4.512  0.00  0.00    +0.011 A 
ATOM     24  C   UNL A   1     -30.288  -7.500   7.065  0.00  0.00    +0.001 A 
ATOM     25  C   UNL A   1     -30.620  -7.093   4.812  0.00  0.00    +0.001 A 
ATOM     26  C   UNL A   1     -30.939  -6.863   6.074  0.00  0.00    +0.000 A 
ATOM     27 CL   UNL A   1     -28.052 -10.153   5.126  0.00  0.00    -0.082 Cl
BRANCH  24  28
ATOM     28  C   UNL A   1     -30.627  -7.167   8.527  0.00  0.00    +0.000 A 
ATOM     29  C   UNL A   1     -30.249  -6.644   9.473  0.00  0.00    +0.000 A 
ATOM     30  C   UNL A   1     -30.942  -6.436  10.682  0.00  0.00    +0.000 A 
ATOM     31  C   UNL A   1     -31.981  -7.284  10.956  0.00  0.00    +0.000 A 
ATOM     32  C   UNL A   1     -32.015  -7.943   8.932  0.00  0.00    +0.000 A 
ATOM     33  C   UNL A   1     -32.636  -7.798  10.044  0.00  0.00    +0.000 A 
ENDBRANCH  24  28
ENDBRANCH   3  21
TORSDOF 3
ENDMDL
ENDMDL
