MODEL 4369
MODEL 1
REMARK VINA RESULT:    -4.256      0.000      0.000
REMARK INTER + INTRA:          -4.256
REMARK INTER:                  -4.256
REMARK INTRA:                   0.000
REMARK UNBOUND:                 0.000
REMARK  Name = No_4369-gen_results/8p0m/2024-11-26-14-13-15/
REMARK  0 active torsions:
REMARK  status: ('A' for Active; 'I' for Inactive)
REMARK                            x       y       z     vdW  Elec       q    Type
REMARK                         _______ _______ _______ _____ _____    ______ ____
ROOT
ATOM      1  C   UNL A   1     -26.382  -3.833  29.771  0.00  0.00    +0.000 A 
ATOM      2  C   UNL A   1     -26.089  -4.834  29.621  0.00  0.00    +0.000 A 
ATOM      3  C   UNL A   1     -25.400  -2.798  29.410  0.00  0.00    +0.000 A 
ATOM      4  C   UNL A   1     -24.180  -3.150  28.762  0.00  0.00    +0.000 A 
ATOM      5  C   UNL A   1     -24.928  -5.456  28.927  0.00  0.00    +0.000 A 
ATOM      6  C   UNL A   1     -23.990  -4.528  28.586  0.00  0.00    +0.000 A 
ENDROOT
TORSDOF 0
ENDMDL
ENDMDL
