REMARK  Name = No_437-gen_results/8p0m/2024-11-26-14-13-15/
REMARK  0 active torsions:
REMARK  status: ('A' for Active; 'I' for Inactive)
REMARK                            x       y       z     vdW  Elec       q    Type
REMARK                         _______ _______ _______ _____ _____    ______ ____
ROOT
ATOM      1  C   UNL A   1     -28.016  -0.814  28.878  0.00  0.00    +0.000 A 
ATOM      2  C   UNL A   1     -27.064  -0.119  28.608  0.00  0.00    +0.000 A 
ATOM      3  C   UNL A   1     -26.876   1.133  28.913  0.00  0.00    +0.000 A 
ATOM      4  C   UNL A   1     -27.901   1.807  29.644  0.00  0.00    +0.000 A 
ATOM      5  C   UNL A   1     -29.046  -0.232  29.718  0.00  0.00    +0.000 A 
ATOM      6  C   UNL A   1     -28.940   1.052  30.060  0.00  0.00    +0.000 A 
ATOM      7  C   UNL A   1     -30.163  -1.117  30.125  0.00  0.00    +0.000 A 
ATOM      8  C   UNL A   1     -30.637  -0.994  31.359  0.00  0.00    +0.000 A 
ATOM      9  C   UNL A   1     -30.502   0.370  31.929  0.00  0.00    +0.000 A 
ATOM     10  C   UNL A   1     -29.569   1.276  31.451  0.00  0.00    +0.000 A 
ATOM     11  C   UNL A   1     -25.941  -0.689  27.601  0.00  0.00    +0.000 A 
ATOM     12  C   UNL A   1     -25.002   0.199  27.027  0.00  0.00    +0.000 A 
ATOM     13  C   UNL A   1     -24.903   1.504  27.415  0.00  0.00    +0.000 A 
ATOM     14  C   UNL A   1     -25.785   1.994  28.288  0.00  0.00    +0.000 A 
ENDROOT
TORSDOF 0
