MODEL 4370
MODEL 1
REMARK VINA RESULT:    -4.439      0.000      0.000
REMARK INTER + INTRA:          -4.439
REMARK INTER:                  -4.439
REMARK INTRA:                   0.000
REMARK UNBOUND:                 0.000
REMARK  Name = No_4370-gen_results/8p0m/2024-11-26-14-13-15/
REMARK  0 active torsions:
REMARK  status: ('A' for Active; 'I' for Inactive)
REMARK                            x       y       z     vdW  Elec       q    Type
REMARK                         _______ _______ _______ _____ _____    ______ ____
ROOT
ATOM      1  C   UNL A   1     -26.138  -4.700  29.680  0.00  0.00    +0.007 A 
ATOM      2  C   UNL A   1     -26.089  -3.494  29.756  0.00  0.00    +0.035 A 
ATOM      3  C   UNL A   1     -25.133  -2.706  29.355  0.00  0.00    +0.007 A 
ATOM      4  C   UNL A   1     -23.980  -3.300  28.758  0.00  0.00    +0.001 A 
ATOM      5  C   UNL A   1     -25.055  -5.366  28.982  0.00  0.00    +0.001 A 
ATOM      6  C   UNL A   1     -24.026  -4.633  28.556  0.00  0.00    +0.000 A 
ATOM      7 BR   UNL A   1     -27.584  -2.539  30.562  0.00  0.00    -0.049 Br
ENDROOT
TORSDOF 0
ENDMDL
ENDMDL
