MODEL 4371
MODEL 1
REMARK VINA RESULT:    -7.764      0.000      0.000
REMARK INTER + INTRA:         -11.031
REMARK INTER:                 -10.033
REMARK INTRA:                  -0.998
REMARK UNBOUND:                -0.998
REMARK  Name = No_4371-gen_results/8p0m/2024-11-26-14-13-15/
REMARK  5 active torsions:
REMARK  status: ('A' for Active; 'I' for Inactive)
REMARK    1  A    between atoms: C_3  and  C_4
REMARK    2  A    between atoms: C_10  and  C_13
REMARK    3  A    between atoms: N_15  and  C_16
REMARK    4  A    between atoms: C_16  and  C_17
REMARK    5  A    between atoms: C_20  and  C_23
REMARK                            x       y       z     vdW  Elec       q    Type
REMARK                         _______ _______ _______ _____ _____    ______ ____
ROOT
ATOM      1  C   UNL A   1      -7.306  -0.020  34.896  0.00  0.00    +0.265 C 
ATOM      2  O   UNL A   1      -8.216  -0.280  34.137  0.00  0.00    -0.268 OA
ATOM      3  N   UNL A   1      -7.585   0.311  36.189  0.00  0.00    -0.197 NA
ENDROOT
BRANCH   1   7
ATOM      4  C   UNL A   1      -5.676  -1.945  34.400  0.00  0.00    +0.005 A 
ATOM      5  C   UNL A   1      -4.572  -2.356  34.130  0.00  0.00    +0.000 A 
ATOM      6  C   UNL A   1      -3.456  -1.532  34.226  0.00  0.00    +0.000 A 
ATOM      7  C   UNL A   1      -5.949  -0.529  34.629  0.00  0.00    +0.055 A 
ATOM      8  C   UNL A   1      -4.899   0.340  34.847  0.00  0.00    +0.005 A 
ATOM      9  C   UNL A   1      -3.605  -0.128  34.584  0.00  0.00    +0.000 A 
BRANCH   6  10
ATOM     10  C   UNL A   1      -2.049  -1.915  33.913  0.00  0.00    +0.000 A 
ATOM     11  C   UNL A   1      -1.843  -2.559  32.657  0.00  0.00    +0.000 A 
ATOM     12  C   UNL A   1      -0.571  -2.996  32.292  0.00  0.00    +0.000 A 
ATOM     13  C   UNL A   1       0.443  -2.913  33.270  0.00  0.00    +0.000 A 
ATOM     14  C   UNL A   1       0.252  -2.316  34.482  0.00  0.00    +0.000 A 
ATOM     15  C   UNL A   1      -1.058  -1.830  34.853  0.00  0.00    +0.000 A 
ENDBRANCH   6  10
ENDBRANCH   1   7
BRANCH   3  16
ATOM     16  C   UNL A   1      -8.953   0.727  36.560  0.00  0.00    +0.142 C 
BRANCH  16  17
ATOM     17  C   UNL A   1      -9.547  -0.089  37.296  0.00  0.00    -0.001 A 
ATOM     18  C   UNL A   1     -10.216  -0.826  37.178  0.00  0.00    -0.003 A 
ATOM     19  C   UNL A   1     -11.058  -1.452  37.585  0.00  0.00    +0.004 A 
ATOM     20  C   UNL A   1     -11.099  -1.427  39.102  0.00  0.00    +0.071 A 
ATOM     21  C   UNL A   1     -10.205  -0.628  39.663  0.00  0.00    +0.004 A 
ATOM     22  C   UNL A   1      -9.402   0.164  38.831  0.00  0.00    -0.003 A 
BRANCH  20  23
ATOM     23  C   UNL A   1     -12.012  -2.333  39.875  0.00  0.00    +0.419 C 
ATOM     24  F   UNL A   1     -11.518  -2.944  40.787  0.00  0.00    -0.166 F 
ATOM     25  F   UNL A   1     -12.614  -3.197  39.005  0.00  0.00    -0.166 F 
ATOM     26  F   UNL A   1     -13.003  -1.496  40.351  0.00  0.00    -0.166 F 
ENDBRANCH  20  23
ENDBRANCH  16  17
ENDBRANCH   3  16
TORSDOF 5
ENDMDL
ENDMDL
