REMARK  Name = No_4371-gen_results/8p0m/2024-11-26-14-13-15/
REMARK  5 active torsions:
REMARK  status: ('A' for Active; 'I' for Inactive)
REMARK    1  A    between atoms: C_3  and  C_4
REMARK    2  A    between atoms: C_10  and  C_13
REMARK    3  A    between atoms: N_15  and  C_16
REMARK    4  A    between atoms: C_16  and  C_17
REMARK    5  A    between atoms: C_20  and  C_23
REMARK                            x       y       z     vdW  Elec       q    Type
REMARK                         _______ _______ _______ _____ _____    ______ ____
ROOT
ATOM      1  C   UNL A   1     -29.123  -2.688  30.245  0.00  0.00    +0.265 C 
ATOM      2  O   UNL A   1     -29.039  -3.897  30.311  0.00  0.00    -0.268 OA
ATOM      3  N   UNL A   1     -30.101  -2.045  30.944  0.00  0.00    -0.197 NA
ENDROOT
BRANCH   1   7
ATOM      4  C   UNL A   1     -28.016  -0.814  28.878  0.00  0.00    +0.005 A 
ATOM      5  C   UNL A   1     -27.064  -0.119  28.608  0.00  0.00    +0.000 A 
ATOM      6  C   UNL A   1     -25.792  -0.430  29.076  0.00  0.00    +0.000 A 
ATOM      7  C   UNL A   1     -27.947  -1.882  29.871  0.00  0.00    +0.055 A 
ATOM      8  C   UNL A   1     -26.716  -2.329  30.306  0.00  0.00    +0.005 A 
ATOM      9  C   UNL A   1     -25.592  -1.564  29.967  0.00  0.00    +0.000 A 
BRANCH   6  10
ATOM     10  C   UNL A   1     -24.546   0.349  28.823  0.00  0.00    +0.000 A 
ATOM     11  C   UNL A   1     -24.659   1.420  27.888  0.00  0.00    +0.000 A 
ATOM     12  C   UNL A   1     -23.540   2.179  27.550  0.00  0.00    +0.000 A 
ATOM     13  C   UNL A   1     -22.293   1.743  28.047  0.00  0.00    +0.000 A 
ATOM     14  C   UNL A   1     -22.171   0.708  28.928  0.00  0.00    +0.000 A 
ATOM     15  C   UNL A   1     -23.334  -0.062  29.308  0.00  0.00    +0.000 A 
ENDBRANCH   6  10
ENDBRANCH   1   7
BRANCH   3  16
ATOM     16  C   UNL A   1     -31.262  -2.806  31.449  0.00  0.00    +0.142 C 
BRANCH  16  17
ATOM     17  C   UNL A   1     -32.364  -2.353  31.074  0.00  0.00    -0.001 A 
ATOM     18  C   UNL A   1     -32.986  -2.494  30.300  0.00  0.00    -0.003 A 
ATOM     19  C   UNL A   1     -33.775  -2.102  29.600  0.00  0.00    +0.004 A 
ATOM     20  C   UNL A   1     -34.494  -0.896  30.178  0.00  0.00    +0.071 A 
ATOM     21  C   UNL A   1     -34.021  -0.480  31.342  0.00  0.00    +0.004 A 
ATOM     22  C   UNL A   1     -32.882  -1.109  31.864  0.00  0.00    -0.003 A 
BRANCH  20  23
ATOM     23  C   UNL A   1     -35.709  -0.318  29.514  0.00  0.00    +0.419 C 
ATOM     24  F   UNL A   1     -36.377   0.434  30.176  0.00  0.00    -0.166 F 
ATOM     25  F   UNL A   1     -36.483  -1.341  29.044  0.00  0.00    -0.166 F 
ATOM     26  F   UNL A   1     -35.213   0.344  28.407  0.00  0.00    -0.166 F 
ENDBRANCH  20  23
ENDBRANCH  16  17
ENDBRANCH   3  16
TORSDOF 5
