MODEL 4372
MODEL 1
REMARK VINA RESULT:    -4.579      0.000      0.000
REMARK INTER + INTRA:          -4.579
REMARK INTER:                  -4.579
REMARK INTRA:                   0.000
REMARK UNBOUND:                 0.000
REMARK  Name = No_4372-gen_results/8p0m/2024-11-26-14-13-15/
REMARK  0 active torsions:
REMARK  status: ('A' for Active; 'I' for Inactive)
REMARK                            x       y       z     vdW  Elec       q    Type
REMARK                         _______ _______ _______ _____ _____    ______ ____
ROOT
ATOM      1  C   UNL A   1     -10.142  -9.755  18.344  0.00  0.00    +0.030 A 
ATOM      2  C   UNL A   1      -9.193 -10.405  17.974  0.00  0.00    +0.140 A 
ATOM      3  C   UNL A   1      -8.049 -10.553  18.691  0.00  0.00    +0.030 A 
ATOM      4  C   UNL A   1      -7.956  -9.912  19.940  0.00  0.00    +0.002 A 
ATOM      5  C   UNL A   1     -10.153  -9.151  19.653  0.00  0.00    +0.002 A 
ATOM      6  C   UNL A   1      -9.017  -9.245  20.399  0.00  0.00    +0.000 A 
ATOM      7  F   UNL A   1      -9.209 -11.051  16.780  0.00  0.00    -0.204 F 
ENDROOT
TORSDOF 0
ENDMDL
ENDMDL
