MODEL 4373
MODEL 1
REMARK VINA RESULT:    -5.308      0.000      0.000
REMARK INTER + INTRA:          -5.820
REMARK INTER:                  -5.618
REMARK INTRA:                  -0.201
REMARK UNBOUND:                -0.201
REMARK  Name = No_4373-gen_results/8p0m/2024-11-26-14-13-15/
REMARK  1 active torsions:
REMARK  status: ('A' for Active; 'I' for Inactive)
REMARK    1  A    between atoms: C_1  and  C_2
REMARK                            x       y       z     vdW  Elec       q    Type
REMARK                         _______ _______ _______ _____ _____    ______ ____
ROOT
ATOM      1  C   UNL A   1     -22.885   0.844  27.721  0.00  0.00    +0.071 A 
ATOM      2  C   UNL A   1     -24.124   0.285  27.476  0.00  0.00    +0.004 A 
ATOM      3  C   UNL A   1     -24.623  -0.951  28.049  0.00  0.00    -0.004 A 
ATOM      4  C   UNL A   1     -23.791  -1.676  28.931  0.00  0.00    -0.022 A 
ATOM      5  C   UNL A   1     -22.501  -1.096  29.206  0.00  0.00    -0.004 A 
ATOM      6  C   UNL A   1     -22.064   0.096  28.679  0.00  0.00    +0.004 A 
ATOM      7  C   UNL A   1     -24.167  -2.935  29.497  0.00  0.00    +0.031 C 
ENDROOT
BRANCH   1   8
ATOM      8  C   UNL A   1     -22.532   1.910  27.273  0.00  0.00    +0.419 C 
ATOM      9  F   UNL A   1     -22.621   1.943  25.951  0.00  0.00    -0.166 F 
ATOM     10  F   UNL A   1     -21.155   2.109  27.505  0.00  0.00    -0.166 F 
ATOM     11  F   UNL A   1     -23.366   2.871  27.437  0.00  0.00    -0.166 F 
ENDBRANCH   1   8
TORSDOF 1
ENDMDL
ENDMDL
