REMARK  Name = No_4373-gen_results/8p0m/2024-11-26-14-13-15/
REMARK  1 active torsions:
REMARK  status: ('A' for Active; 'I' for Inactive)
REMARK    1  A    between atoms: C_1  and  C_2
REMARK                            x       y       z     vdW  Elec       q    Type
REMARK                         _______ _______ _______ _____ _____    ______ ____
ROOT
ATOM      1  C   UNL A   1     -27.064  -0.119  28.608  0.00  0.00    +0.071 A 
ATOM      2  C   UNL A   1     -27.001   0.691  27.491  0.00  0.00    +0.004 A 
ATOM      3  C   UNL A   1     -25.855   1.482  27.083  0.00  0.00    -0.004 A 
ATOM      4  C   UNL A   1     -24.690   1.453  27.881  0.00  0.00    -0.022 A 
ATOM      5  C   UNL A   1     -24.738   0.601  29.042  0.00  0.00    -0.004 A 
ATOM      6  C   UNL A   1     -25.823  -0.169  29.389  0.00  0.00    +0.004 A 
ATOM      7  C   UNL A   1     -23.533   2.246  27.598  0.00  0.00    +0.031 C 
ENDROOT
BRANCH   1   8
ATOM      8  C   UNL A   1     -28.016  -0.814  28.878  0.00  0.00    +0.419 C 
ATOM      9  F   UNL A   1     -28.614  -0.418  29.993  0.00  0.00    -0.166 F 
ATOM     10  F   UNL A   1     -27.596  -2.124  29.189  0.00  0.00    -0.166 F 
ATOM     11  F   UNL A   1     -29.055  -0.617  28.152  0.00  0.00    -0.166 F 
ENDBRANCH   1   8
TORSDOF 1
