MODEL 4374
MODEL 1
REMARK VINA RESULT:    -6.020      0.000      0.000
REMARK INTER + INTRA:          -6.286
REMARK INTER:                  -6.372
REMARK INTRA:                   0.085
REMARK UNBOUND:                 0.085
REMARK  Name = No_4374-gen_results/8p0m/2024-11-26-14-13-15/
REMARK  1 active torsions:
REMARK  status: ('A' for Active; 'I' for Inactive)
REMARK    1  A    between atoms: C_2  and  C_7
REMARK                            x       y       z     vdW  Elec       q    Type
REMARK                         _______ _______ _______ _____ _____    ______ ____
ROOT
ATOM      1  C   UNL A   1     -23.379  -1.277  29.256  0.00  0.00    +0.249 C 
ATOM      2  O   UNL A   1     -22.558  -1.103  29.946  0.00  0.00    -0.270 OA
ATOM      3  N   UNL A   1     -23.651  -0.426  28.180  0.00  0.00    -0.276 N 
ATOM      4  C   UNL A   1     -22.835   0.724  28.003  0.00  0.00    +0.094 C 
ATOM      5  C   UNL A   1     -24.713  -0.630  27.205  0.00  0.00    +0.094 C 
ATOM      6  C   UNL A   1     -25.286   0.103  26.719  0.00  0.00    +0.022 C 
ATOM      7  C   UNL A   1     -23.558   1.766  27.271  0.00  0.00    +0.022 C 
ATOM      8  C   UNL A   1     -24.648   1.445  26.432  0.00  0.00    +0.004 C 
ENDROOT
BRANCH   1  10
ATOM      9  C   UNL A   1     -25.395  -2.131  29.895  0.00  0.00    +0.004 A 
ATOM     10  C   UNL A   1     -24.515  -2.405  29.384  0.00  0.00    +0.054 A 
ATOM     11  C   UNL A   1     -26.442  -3.216  30.013  0.00  0.00    +0.000 A 
ATOM     12  C   UNL A   1     -26.136  -4.523  29.580  0.00  0.00    +0.000 A 
ATOM     13  C   UNL A   1     -23.944  -3.674  28.878  0.00  0.00    +0.004 A 
ATOM     14  C   UNL A   1     -24.877  -4.697  28.976  0.00  0.00    +0.000 A 
ENDBRANCH   1  10
TORSDOF 1
ENDMDL
ENDMDL
