MODEL 4375
MODEL 1
REMARK VINA RESULT:    -7.299      0.000      0.000
REMARK INTER + INTRA:         -12.987
REMARK INTER:                  -9.432
REMARK INTRA:                  -3.554
REMARK UNBOUND:                -3.554
REMARK  Name = No_4375-gen_results/8p0m/2024-11-26-14-13-15/
REMARK  5 active torsions:
REMARK  status: ('A' for Active; 'I' for Inactive)
REMARK    1  A    between atoms: C_1  and  C_2
REMARK    2  A    between atoms: C_5  and  C_13
REMARK    3  A    between atoms: C_12  and  O_17
REMARK    4  A    between atoms: O_17  and  C_18
REMARK    5  A    between atoms: C_24  and  C_26
REMARK                            x       y       z     vdW  Elec       q    Type
REMARK                         _______ _______ _______ _____ _____    ______ ____
ROOT
ATOM      1  C   UNL A   1     -32.865 -11.763   9.894  0.00  0.00    +0.166 C 
ATOM      2  C   UNL A   1     -31.571 -11.268   9.863  0.00  0.00    +0.048 C 
ATOM      3  C   UNL A   1     -33.862 -11.162   9.084  0.00  0.00    +0.044 C 
ATOM      4  C   UNL A   1     -33.608 -10.071   8.311  0.00  0.00    +0.004 C 
ATOM      5  C   UNL A   1     -31.279 -10.104   9.084  0.00  0.00    +0.022 C 
ATOM      6  C   UNL A   1     -32.300  -9.522   8.279  0.00  0.00    +0.004 C 
ATOM      7  C   UNL A   1     -30.532 -11.783  10.687  0.00  0.00    +0.030 C 
ATOM      8  C   UNL A   1     -29.495 -11.999  10.447  0.00  0.00    +0.030 C 
ATOM      9  C   UNL A   1     -29.094 -11.861   9.010  0.00  0.00    -0.026 A 
ATOM     10  C   UNL A   1     -28.167 -12.722   8.360  0.00  0.00    -0.005 A 
ATOM     11  C   UNL A   1     -28.566 -13.037   7.054  0.00  0.00    -0.000 A 
ATOM     12  C   UNL A   1     -29.401 -12.236   6.246  0.00  0.00    -0.000 A 
ATOM     13  C   UNL A   1     -30.210 -11.296   6.932  0.00  0.00    -0.005 A 
ATOM     14  C   UNL A   1     -30.112 -11.192   8.233  0.00  0.00    -0.027 A 
ATOM     15  C   UNL A   1     -31.981  -8.332   7.447  0.00  0.00    +0.000 C 
ATOM     16  C   UNL A   1     -30.433  -9.050   9.791  0.00  0.00    +0.004 C 
ENDROOT
BRANCH   7  17
ATOM     17  C   UNL A   1     -30.972 -11.940  12.140  0.00  0.00    -0.026 C 
ATOM     18  C   UNL A   1     -30.239 -12.894  12.897  0.00  0.00    -0.005 C 
ENDBRANCH   7  17
BRANCH   1  19
ATOM     19  O   UNL A   1     -33.076 -12.807  10.526  0.00  0.00    -0.479 OA
BRANCH  19  25
ATOM     20  C   UNL A   1     -33.496 -14.877   9.621  0.00  0.00    +0.034 A 
ATOM     21  C   UNL A   1     -34.572 -15.946   9.697  0.00  0.00    +0.003 A 
ATOM     22  C   UNL A   1     -35.975 -15.645   9.796  0.00  0.00    +0.000 A 
ATOM     23  C   UNL A   1     -36.268 -14.428  10.282  0.00  0.00    +0.003 A 
ATOM     24  C   UNL A   1     -35.304 -13.505  10.573  0.00  0.00    +0.037 A 
ATOM     25  C   UNL A   1     -33.986 -13.757  10.315  0.00  0.00    +0.138 A 
BRANCH  20  26
ATOM     26  C   UNL A   1     -32.332 -15.201   9.579  0.00  0.00    +0.003 A 
ATOM     27  C   UNL A   1     -31.505 -15.343  10.575  0.00  0.00    +0.000 A 
ATOM     28  C   UNL A   1     -30.081 -15.749  10.482  0.00  0.00    +0.004 A 
ATOM     29  C   UNL A   1     -29.594 -16.054   9.180  0.00  0.00    +0.071 A 
ATOM     30  C   UNL A   1     -30.509 -15.971   8.125  0.00  0.00    +0.004 A 
ATOM     31  C   UNL A   1     -31.805 -15.599   8.283  0.00  0.00    +0.000 A 
BRANCH  29  32
ATOM     32  C   UNL A   1     -28.239 -16.497   8.958  0.00  0.00    +0.419 C 
ATOM     33  F   UNL A   1     -27.524 -15.593   8.730  0.00  0.00    -0.166 F 
ATOM     34  F   UNL A   1     -27.833 -17.251  10.073  0.00  0.00    -0.166 F 
ATOM     35  F   UNL A   1     -28.222 -17.337   7.912  0.00  0.00    -0.166 F 
ENDBRANCH  29  32
ENDBRANCH  20  26
ENDBRANCH  19  25
ENDBRANCH   1  19
TORSDOF 5
ENDMDL
ENDMDL
