REMARK  Name = No_4376-gen_results/8p0m/2024-11-26-14-13-15/
REMARK  3 active torsions:
REMARK  status: ('A' for Active; 'I' for Inactive)
REMARK    1  A    between atoms: C_1  and  C_2
REMARK    2  A    between atoms: C_1  and  P_8
REMARK    3  A    between atoms: C_5  and  C_12
REMARK                            x       y       z     vdW  Elec       q    Type
REMARK                         _______ _______ _______ _____ _____    ______ ____
ROOT
ATOM      1  C   UNL A   1     -27.064  -0.119  28.608  0.00  0.00    -0.015 A 
ATOM      2  C   UNL A   1     -27.001   0.691  27.491  0.00  0.00    -0.004 A 
ATOM      3  C   UNL A   1     -25.855   1.482  27.083  0.00  0.00    +0.004 A 
ATOM      4  C   UNL A   1     -24.690   1.453  27.881  0.00  0.00    +0.057 A 
ATOM      5  C   UNL A   1     -24.738   0.601  29.042  0.00  0.00    +0.004 A 
ATOM      6  C   UNL A   1     -25.823  -0.169  29.389  0.00  0.00    -0.004 A 
ENDROOT
BRANCH   4   7
ATOM      7  C   UNL A   1     -23.553   2.282  27.575  0.00  0.00    +0.284 C 
ATOM      8  N   UNL A   1     -22.511   2.221  28.353  0.00  0.00    -0.084 NA
ATOM      9  O   UNL A   1     -23.565   2.983  26.513  0.00  0.00    -0.267 OA
ENDBRANCH   4   7
BRANCH   1  10
ATOM     10  C   UNL A   1     -28.016  -0.814  28.878  0.00  0.00    +0.085 C 
BRANCH  10  11
ATOM     11  P   UNL A   1     -28.208  -1.511  30.453  0.00  0.00    +0.122 P 
ATOM     12  O   UNL A   1     -28.890  -2.798  30.283  0.00  0.00    -0.460 OA
ATOM     13  O   UNL A   1     -26.800  -1.701  30.997  0.00  0.00    -0.357 OA
ATOM     14  O   UNL A   1     -28.990  -0.538  31.303  0.00  0.00    -0.357 OA
ENDBRANCH  10  11
ENDBRANCH   1  10
TORSDOF 3
