MODEL 4376
MODEL 1
REMARK VINA RESULT:    -5.299      0.000      0.000
REMARK INTER + INTRA:          -6.417
REMARK INTER:                  -6.228
REMARK INTRA:                  -0.189
REMARK UNBOUND:                -0.189
REMARK  Name = No_4376-gen_results/8p0m/2024-11-26-14-13-15/
REMARK  3 active torsions:
REMARK  status: ('A' for Active; 'I' for Inactive)
REMARK    1  A    between atoms: C_1  and  C_2
REMARK    2  A    between atoms: C_1  and  P_8
REMARK    3  A    between atoms: C_5  and  C_12
REMARK                            x       y       z     vdW  Elec       q    Type
REMARK                         _______ _______ _______ _____ _____    ______ ____
ROOT
ATOM      1  C   UNL A   1     -28.910 -11.775  31.694  0.00  0.00    -0.015 A 
ATOM      2  C   UNL A   1     -28.678 -11.218  30.452  0.00  0.00    -0.004 A 
ATOM      3  C   UNL A   1     -29.035 -11.813  29.177  0.00  0.00    +0.004 A 
ATOM      4  C   UNL A   1     -29.666 -13.077  29.170  0.00  0.00    +0.057 A 
ATOM      5  C   UNL A   1     -29.926 -13.663  30.461  0.00  0.00    +0.004 A 
ATOM      6  C   UNL A   1     -29.611 -13.063  31.657  0.00  0.00    -0.004 A 
ENDROOT
BRANCH   4   7
ATOM      7  C   UNL A   1     -29.967 -13.756  27.936  0.00  0.00    +0.284 C 
ATOM      8  N   UNL A   1     -29.333 -13.395  26.858  0.00  0.00    -0.084 NA
ATOM      9  O   UNL A   1     -30.775 -14.739  27.951  0.00  0.00    -0.267 OA
ENDBRANCH   4   7
BRANCH   1  10
ATOM     10  C   UNL A   1     -28.655 -11.217  32.736  0.00  0.00    +0.085 C 
BRANCH  10  11
ATOM     11  P   UNL A   1     -27.559 -11.908  33.887  0.00  0.00    +0.122 P 
ATOM     12  O   UNL A   1     -26.577 -12.698  33.138  0.00  0.00    -0.460 OA
ATOM     13  O   UNL A   1     -26.899 -10.731  34.590  0.00  0.00    -0.357 OA
ATOM     14  O   UNL A   1     -28.364 -12.737  34.860  0.00  0.00    -0.357 OA
ENDBRANCH  10  11
ENDBRANCH   1  10
TORSDOF 3
ENDMDL
ENDMDL
