REMARK  Name = No_4377-gen_results/8p0m/2024-11-26-14-13-15/
REMARK  8 active torsions:
REMARK  status: ('A' for Active; 'I' for Inactive)
REMARK    1  A    between atoms: C_3  and  O_7
REMARK    2  A    between atoms: C_6  and  C_12
REMARK    3  A    between atoms: O_7  and  C_8
REMARK    4  A    between atoms: C_8  and  C_9
REMARK    5  A    between atoms: N_13  and  C_15
REMARK    6  A    between atoms: C_15  and  C_16
REMARK    7  A    between atoms: C_15  and  C_22
REMARK    8  A    between atoms: C_22  and  C_23
REMARK                            x       y       z     vdW  Elec       q    Type
REMARK                         _______ _______ _______ _____ _____    ______ ____
ROOT
ATOM      1  C   UNL A   1     -29.040  -2.807  30.155  0.00  0.00    +0.265 C 
ATOM      2  N   UNL A   1     -30.209  -2.288  30.230  0.00  0.00    -0.199 NA
ATOM      3  O   UNL A   1     -28.897  -4.103  30.114  0.00  0.00    -0.268 OA
ENDROOT
BRANCH   1   9
ATOM      4  C   UNL A   1     -28.016  -0.814  28.878  0.00  0.00    +0.008 A 
ATOM      5  C   UNL A   1     -27.064  -0.119  28.608  0.00  0.00    +0.037 A 
ATOM      6  C   UNL A   1     -25.765  -0.390  29.036  0.00  0.00    +0.139 A 
ATOM      7  C   UNL A   1     -25.530  -1.530  29.901  0.00  0.00    +0.037 A 
ATOM      8  C   UNL A   1     -26.689  -2.289  30.181  0.00  0.00    +0.008 A 
ATOM      9  C   UNL A   1     -27.873  -1.951  29.737  0.00  0.00    +0.055 A 
BRANCH   6  10
ATOM     10  O   UNL A   1     -24.659   0.382  28.769  0.00  0.00    -0.464 OA
BRANCH  10  11
ATOM     11  C   UNL A   1     -23.406   0.073  29.101  0.00  0.00    +0.319 C 
BRANCH  11  12
ATOM     12  C   UNL A   1     -22.394   1.018  28.749  0.00  0.00    +0.408 C 
ATOM     13  O   UNL A   1     -22.823   2.210  28.380  0.00  0.00    -0.241 OA
ATOM     14  O   UNL A   1     -21.198   0.876  28.992  0.00  0.00    -0.241 OA
ENDBRANCH  11  12
ENDBRANCH  10  11
ENDBRANCH   6  10
ENDBRANCH   1   9
BRANCH   2  15
ATOM     15  C   UNL A   1     -31.377  -3.106  30.555  0.00  0.00    +0.122 C 
BRANCH  15  16
ATOM     16  C   UNL A   1     -32.236  -3.270  29.498  0.00  0.00    -0.002 A 
ATOM     17  C   UNL A   1     -32.464  -2.216  28.664  0.00  0.00    -0.003 A 
ATOM     18  C   UNL A   1     -33.150  -2.317  27.478  0.00  0.00    -0.000 A 
ATOM     19  C   UNL A   1     -33.667  -3.623  27.136  0.00  0.00    -0.000 A 
ATOM     20  C   UNL A   1     -33.442  -4.702  27.953  0.00  0.00    -0.000 A 
ATOM     21  C   UNL A   1     -32.662  -4.522  29.087  0.00  0.00    -0.003 A 
ENDBRANCH  15  16
BRANCH  15  22
ATOM     22  C   UNL A   1     -31.545  -3.444  31.856  0.00  0.00    +0.052 C 
BRANCH  22  23
ATOM     23  C   UNL A   1     -32.185  -3.214  32.615  0.00  0.00    -0.020 A 
ATOM     24  C   UNL A   1     -33.180  -2.019  32.487  0.00  0.00    -0.004 A 
ATOM     25  C   UNL A   1     -34.073  -1.641  33.534  0.00  0.00    -0.000 A 
ATOM     26  C   UNL A   1     -33.995  -2.460  34.666  0.00  0.00    -0.000 A 
ATOM     27  C   UNL A   1     -33.187  -3.491  34.864  0.00  0.00    -0.000 A 
ATOM     28  C   UNL A   1     -32.292  -3.872  33.870  0.00  0.00    -0.004 A 
ENDBRANCH  22  23
ENDBRANCH  15  22
ENDBRANCH   2  15
TORSDOF 8
