MODEL 4377
MODEL 1
REMARK VINA RESULT:    -7.596      0.000      0.000
REMARK INTER + INTRA:         -12.432
REMARK INTER:                 -11.148
REMARK INTRA:                  -1.284
REMARK UNBOUND:                -1.284
REMARK  Name = No_4377-gen_results/8p0m/2024-11-26-14-13-15/
REMARK  8 active torsions:
REMARK  status: ('A' for Active; 'I' for Inactive)
REMARK    1  A    between atoms: C_3  and  O_7
REMARK    2  A    between atoms: C_6  and  C_12
REMARK    3  A    between atoms: O_7  and  C_8
REMARK    4  A    between atoms: C_8  and  C_9
REMARK    5  A    between atoms: N_13  and  C_15
REMARK    6  A    between atoms: C_15  and  C_16
REMARK    7  A    between atoms: C_15  and  C_22
REMARK    8  A    between atoms: C_22  and  C_23
REMARK                            x       y       z     vdW  Elec       q    Type
REMARK                         _______ _______ _______ _____ _____    ______ ____
ROOT
ATOM      1  C   UNL A   1      -8.060   0.208  36.104  0.00  0.00    +0.265 C 
ATOM      2  N   UNL A   1      -9.195  -0.386  36.088  0.00  0.00    -0.199 NA
ATOM      3  O   UNL A   1      -7.839   1.182  36.943  0.00  0.00    -0.268 OA
ENDROOT
BRANCH   1   9
ATOM      4  C   UNL A   1      -5.553   0.112  35.506  0.00  0.00    +0.008 A 
ATOM      5  C   UNL A   1      -4.615  -0.467  35.008  0.00  0.00    +0.037 A 
ATOM      6  C   UNL A   1      -4.736  -1.653  34.286  0.00  0.00    +0.139 A 
ATOM      7  C   UNL A   1      -6.040  -2.276  34.163  0.00  0.00    +0.037 A 
ATOM      8  C   UNL A   1      -7.085  -1.549  34.777  0.00  0.00    +0.008 A 
ATOM      9  C   UNL A   1      -6.873  -0.441  35.442  0.00  0.00    +0.055 A 
BRANCH   6  10
ATOM     10  O   UNL A   1      -3.696  -2.353  33.720  0.00  0.00    -0.464 OA
BRANCH  10  11
ATOM     11  C   UNL A   1      -2.402  -2.119  33.937  0.00  0.00    +0.319 C 
BRANCH  11  12
ATOM     12  C   UNL A   1      -1.572  -1.970  32.784  0.00  0.00    +0.408 C 
ATOM     13  O   UNL A   1      -1.197  -3.090  32.196  0.00  0.00    -0.241 OA
ATOM     14  O   UNL A   1      -1.395  -0.910  32.190  0.00  0.00    -0.241 OA
ENDBRANCH  11  12
ENDBRANCH  10  11
ENDBRANCH   6  10
ENDBRANCH   1   9
BRANCH   2  15
ATOM     15  C   UNL A   1     -10.349   0.176  36.788  0.00  0.00    +0.122 C 
BRANCH  15  16
ATOM     16  C   UNL A   1     -10.880  -0.671  37.727  0.00  0.00    -0.002 A 
ATOM     17  C   UNL A   1     -11.234  -0.168  38.944  0.00  0.00    -0.003 A 
ATOM     18  C   UNL A   1     -11.941  -0.876  39.885  0.00  0.00    -0.000 A 
ATOM     19  C   UNL A   1     -12.295  -2.236  39.544  0.00  0.00    -0.000 A 
ATOM     20  C   UNL A   1     -11.960  -2.762  38.322  0.00  0.00    -0.000 A 
ATOM     21  C   UNL A   1     -11.322  -1.942  37.401  0.00  0.00    -0.003 A 
ENDBRANCH  15  16
BRANCH  15  22
ATOM     22  C   UNL A   1     -10.837   1.350  36.320  0.00  0.00    +0.052 C 
BRANCH  22  23
ATOM     23  C   UNL A   1     -11.649   1.670  35.793  0.00  0.00    -0.020 A 
ATOM     24  C   UNL A   1     -12.748   2.545  36.471  0.00  0.00    -0.004 A 
ATOM     25  C   UNL A   1     -13.916   2.990  35.783  0.00  0.00    -0.000 A 
ATOM     26  C   UNL A   1     -13.965   2.597  34.441  0.00  0.00    -0.000 A 
ATOM     27  C   UNL A   1     -13.084   1.858  33.782  0.00  0.00    -0.000 A 
ATOM     28  C   UNL A   1     -11.945   1.394  34.431  0.00  0.00    -0.004 A 
ENDBRANCH  22  23
ENDBRANCH  15  22
ENDBRANCH   2  15
TORSDOF 8
ENDMDL
ENDMDL
