REMARK  Name = No_4378-gen_results/8p0m/2024-11-26-14-13-15/
REMARK  0 active torsions:
REMARK  status: ('A' for Active; 'I' for Inactive)
REMARK                            x       y       z     vdW  Elec       q    Type
REMARK                         _______ _______ _______ _____ _____    ______ ____
ROOT
ATOM      1  C   UNL A   1     -28.016  -0.814  28.878  0.00  0.00    -0.004 A 
ATOM      2  C   UNL A   1     -27.064  -0.119  28.608  0.00  0.00    -0.000 A 
ATOM      3  C   UNL A   1     -27.001   0.691  27.491  0.00  0.00    +0.000 A 
ATOM      4  C   UNL A   1     -28.137   0.736  26.635  0.00  0.00    +0.004 A 
ATOM      5  C   UNL A   1     -29.236   0.076  27.069  0.00  0.00    +0.050 A 
ATOM      6  C   UNL A   1     -29.218  -0.643  28.175  0.00  0.00    -0.016 A 
ATOM      7  C   UNL A   1     -30.415   0.159  26.182  0.00  0.00    +0.249 C 
ATOM      8  N   UNL A   1     -31.373  -0.505  26.485  0.00  0.00    -0.274 N 
ATOM      9  O   UNL A   1     -30.215   0.517  24.970  0.00  0.00    -0.270 OA
ATOM     10  C   UNL A   1     -31.689  -1.046  27.769  0.00  0.00    +0.098 C 
ATOM     11  C   UNL A   1     -30.506  -1.272  28.550  0.00  0.00    +0.048 C 
ATOM     12  C   UNL A   1     -32.734  -0.504  25.727  0.00  0.00    +0.115 C 
ENDROOT
TORSDOF 0
