REMARK  Name = No_4379-gen_results/8p0m/2024-11-26-14-13-15/
REMARK  7 active torsions:
REMARK  status: ('A' for Active; 'I' for Inactive)
REMARK    1  A    between atoms: C_2  and  C_3
REMARK    2  A    between atoms: C_5  and  C_19
REMARK    3  A    between atoms: C_20  and  C_21
REMARK    4  A    between atoms: C_27  and  C_28
REMARK    5  A    between atoms: C_28  and  C_30
REMARK    6  A    between atoms: C_30  and  C_31
REMARK    7  A    between atoms: C_32  and  C_33
REMARK                            x       y       z     vdW  Elec       q    Type
REMARK                         _______ _______ _______ _____ _____    ______ ____
ROOT
ATOM      1  O   UNL A   1     -28.123  -1.335  28.487  0.00  0.00    -0.270 OA
ATOM      2  C   UNL A   1     -27.481  -0.404  28.709  0.00  0.00    +0.251 C 
ATOM      3  N   UNL A   1     -27.666   0.447  29.899  0.00  0.00    -0.246 N 
ATOM      4  C   UNL A   1     -28.786   0.149  30.781  0.00  0.00    +0.243 C 
ATOM      5  C   UNL A   1     -26.838   1.537  30.211  0.00  0.00    +0.122 C 
ATOM      6  C   UNL A   1     -27.420   2.725  30.116  0.00  0.00    -0.004 A 
ATOM      7  C   UNL A   1     -27.055   3.633  30.324  0.00  0.00    -0.003 A 
ATOM      8  C   UNL A   1     -27.714   5.030  30.199  0.00  0.00    -0.000 A 
ATOM      9  C   UNL A   1     -29.000   4.980  29.762  0.00  0.00    -0.000 A 
ATOM     10  C   UNL A   1     -29.546   3.756  29.442  0.00  0.00    -0.002 A 
ATOM     11  C   UNL A   1     -28.803   2.654  29.599  0.00  0.00    +0.002 A 
ATOM     12  C   UNL A   1     -29.619   1.421  29.505  0.00  0.00    +0.140 C 
ATOM     13  O   UNL A   1     -29.227   0.357  29.185  0.00  0.00    -0.332 OA
ENDROOT
BRANCH   2  14
ATOM     14  C   UNL A   1     -26.380  -0.087  27.939  0.00  0.00    +0.050 A 
ATOM     15  C   UNL A   1     -26.409   0.857  26.880  0.00  0.00    +0.004 A 
ATOM     16  C   UNL A   1     -25.082  -0.697  28.170  0.00  0.00    -0.018 A 
ATOM     17  C   UNL A   1     -25.284   1.049  26.047  0.00  0.00    +0.000 A 
ATOM     18  C   UNL A   1     -24.905  -1.581  29.314  0.00  0.00    +0.031 C 
ATOM     19  C   UNL A   1     -23.986   0.757  26.412  0.00  0.00    -0.000 A 
ATOM     20  C   UNL A   1     -23.888  -0.189  27.488  0.00  0.00    -0.004 A 
BRANCH  15  21
ATOM     21  C   UNL A   1     -27.716   1.388  26.445  0.00  0.00    +0.000 C 
ATOM     22  C   UNL A   1     -27.776   2.499  25.831  0.00  0.00    +0.000 C 
BRANCH  22  23
ATOM     23  C   UNL A   1     -29.026   3.084  25.418  0.00  0.00    +0.000 A 
ATOM     24  C   UNL A   1     -29.912   2.462  24.675  0.00  0.00    +0.000 A 
ATOM     25  C   UNL A   1     -31.175   3.071  24.308  0.00  0.00    +0.000 A 
ATOM     26  C   UNL A   1     -31.503   4.298  24.885  0.00  0.00    +0.000 A 
ATOM     27  C   UNL A   1     -30.611   4.965  25.751  0.00  0.00    +0.000 A 
ATOM     28  C   UNL A   1     -29.381   4.424  26.059  0.00  0.00    +0.000 A 
ENDBRANCH  22  23
ENDBRANCH  15  21
ENDBRANCH   2  14
BRANCH  12  29
ATOM     29  C   UNL A   1     -30.998   1.373  29.984  0.00  0.00    +0.039 C 
BRANCH  29  30
ATOM     30  C   UNL A   1     -31.904   0.663  29.471  0.00  0.00    +0.029 C 
BRANCH  30  31
ATOM     31  C   UNL A   1     -31.761   0.096  28.337  0.00  0.00    -0.026 C 
ATOM     32  C   UNL A   1     -31.759   0.729  27.227  0.00  0.00    -0.005 C 
BRANCH  32  33
ATOM     33  C   UNL A   1     -31.713   0.258  25.841  0.00  0.00    -0.005 C 
ATOM     34  C   UNL A   1     -31.588  -1.100  25.764  0.00  0.00    -0.026 C 
ATOM     35  C   UNL A   1     -31.658  -1.906  26.940  0.00  0.00    +0.031 C 
ENDBRANCH  32  33
ENDBRANCH  30  31
ENDBRANCH  29  30
ENDBRANCH  12  29
TORSDOF 7
