MODEL 4379
MODEL 1
REMARK VINA RESULT:    -7.740      0.000      0.000
REMARK INTER + INTRA:         -13.789
REMARK INTER:                 -10.907
REMARK INTRA:                  -2.882
REMARK UNBOUND:                -2.882
REMARK  Name = No_4379-gen_results/8p0m/2024-11-26-14-13-15/
REMARK  7 active torsions:
REMARK  status: ('A' for Active; 'I' for Inactive)
REMARK    1  A    between atoms: C_2  and  C_3
REMARK    2  A    between atoms: C_5  and  C_19
REMARK    3  A    between atoms: C_20  and  C_21
REMARK    4  A    between atoms: C_27  and  C_28
REMARK    5  A    between atoms: C_28  and  C_30
REMARK    6  A    between atoms: C_30  and  C_31
REMARK    7  A    between atoms: C_32  and  C_33
REMARK                            x       y       z     vdW  Elec       q    Type
REMARK                         _______ _______ _______ _____ _____    ______ ____
ROOT
ATOM      1  O   UNL A   1      -9.936   3.547  38.886  0.00  0.00    -0.270 OA
ATOM      2  C   UNL A   1     -10.595   2.748  39.393  0.00  0.00    +0.251 C 
ATOM      3  N   UNL A   1     -10.114   1.399  39.741  0.00  0.00    -0.246 N 
ATOM      4  C   UNL A   1      -8.767   1.028  39.328  0.00  0.00    +0.243 C 
ATOM      5  C   UNL A   1     -10.890   0.450  40.426  0.00  0.00    +0.122 C 
ATOM      6  C   UNL A   1     -11.243  -0.607  39.706  0.00  0.00    -0.004 A 
ATOM      7  C   UNL A   1     -11.752  -1.424  39.979  0.00  0.00    -0.003 A 
ATOM      8  C   UNL A   1     -12.190  -2.655  39.146  0.00  0.00    -0.000 A 
ATOM      9  C   UNL A   1     -11.778  -2.602  37.852  0.00  0.00    -0.000 A 
ATOM     10  C   UNL A   1     -11.090  -1.490  37.418  0.00  0.00    -0.002 A 
ATOM     11  C   UNL A   1     -10.824  -0.512  38.292  0.00  0.00    +0.002 A 
ATOM     12  C   UNL A   1      -9.833   0.451  37.756  0.00  0.00    +0.140 C 
ATOM     13  O   UNL A   1      -9.724   1.580  38.077  0.00  0.00    -0.332 OA
ENDROOT
BRANCH   2  14
ATOM     14  C   UNL A   1     -11.864   3.043  39.847  0.00  0.00    +0.050 A 
ATOM     15  C   UNL A   1     -13.048   2.710  39.139  0.00  0.00    +0.004 A 
ATOM     16  C   UNL A   1     -12.088   3.716  41.115  0.00  0.00    -0.018 A 
ATOM     17  C   UNL A   1     -14.313   3.147  39.592  0.00  0.00    +0.000 A 
ATOM     18  C   UNL A   1     -10.952   3.987  41.986  0.00  0.00    +0.031 C 
ATOM     19  C   UNL A   1     -14.599   3.483  40.899  0.00  0.00    -0.000 A 
ATOM     20  C   UNL A   1     -13.438   3.823  41.674  0.00  0.00    -0.004 A 
BRANCH  15  21
ATOM     21  C   UNL A   1     -12.924   2.198  37.760  0.00  0.00    +0.000 C 
ATOM     22  C   UNL A   1     -13.364   2.886  36.787  0.00  0.00    +0.000 C 
BRANCH  22  23
ATOM     23  C   UNL A   1     -13.305   2.419  35.425  0.00  0.00    +0.000 A 
ATOM     24  C   UNL A   1     -14.119   2.827  34.478  0.00  0.00    +0.000 A 
ATOM     25  C   UNL A   1     -14.007   2.360  33.111  0.00  0.00    +0.000 A 
ATOM     26  C   UNL A   1     -12.911   1.564  32.778  0.00  0.00    +0.000 A 
ATOM     27  C   UNL A   1     -11.969   1.166  33.750  0.00  0.00    +0.000 A 
ATOM     28  C   UNL A   1     -12.099   1.554  35.067  0.00  0.00    +0.000 A 
ENDBRANCH  22  23
ENDBRANCH  15  21
ENDBRANCH   2  14
BRANCH  12  29
ATOM     29  C   UNL A   1      -8.749   0.028  36.873  0.00  0.00    +0.039 C 
BRANCH  29  30
ATOM     30  C   UNL A   1      -8.660   0.344  35.657  0.00  0.00    +0.029 C 
BRANCH  30  31
ATOM     31  C   UNL A   1      -8.167  -0.447  34.785  0.00  0.00    -0.026 C 
ATOM     32  C   UNL A   1      -7.086  -1.105  34.960  0.00  0.00    -0.005 C 
BRANCH  32  33
ATOM     33  C   UNL A   1      -6.318  -1.967  34.059  0.00  0.00    -0.005 C 
ATOM     34  C   UNL A   1      -4.971  -1.823  34.235  0.00  0.00    -0.026 C 
ATOM     35  C   UNL A   1      -4.456  -1.022  35.298  0.00  0.00    +0.031 C 
ENDBRANCH  32  33
ENDBRANCH  30  31
ENDBRANCH  29  30
ENDBRANCH  12  29
TORSDOF 7
ENDMDL
ENDMDL
