MODEL 437
MODEL 1
REMARK VINA RESULT:    -6.711      0.000      0.000
REMARK INTER + INTRA:          -6.711
REMARK INTER:                  -6.711
REMARK INTRA:                   0.000
REMARK UNBOUND:                 0.000
REMARK  Name = No_437-gen_results/8p0m/2024-11-26-14-13-15/
REMARK  0 active torsions:
REMARK  status: ('A' for Active; 'I' for Inactive)
REMARK                            x       y       z     vdW  Elec       q    Type
REMARK                         _______ _______ _______ _____ _____    ______ ____
ROOT
ATOM      1  C   UNL A   1     -25.819  -1.054  29.188  0.00  0.00    +0.000 A 
ATOM      2  C   UNL A   1     -24.989  -0.322  28.700  0.00  0.00    +0.000 A 
ATOM      3  C   UNL A   1     -23.733  -0.577  28.472  0.00  0.00    +0.000 A 
ATOM      4  C   UNL A   1     -23.231  -1.862  28.839  0.00  0.00    +0.000 A 
ATOM      5  C   UNL A   1     -25.412  -2.415  29.481  0.00  0.00    +0.000 A 
ATOM      6  C   UNL A   1     -24.136  -2.754  29.294  0.00  0.00    +0.000 A 
ATOM      7  C   UNL A   1     -26.457  -3.336  29.989  0.00  0.00    +0.000 A 
ATOM      8  C   UNL A   1     -26.438  -4.594  29.565  0.00  0.00    +0.000 A 
ATOM      9  C   UNL A   1     -25.086  -5.098  29.217  0.00  0.00    +0.000 A 
ATOM     10  C   UNL A   1     -24.044  -4.242  28.896  0.00  0.00    +0.000 A 
ATOM     11  C   UNL A   1     -25.366   1.225  28.444  0.00  0.00    +0.000 A 
ATOM     12  C   UNL A   1     -24.338   2.160  28.179  0.00  0.00    +0.000 A 
ATOM     13  C   UNL A   1     -23.044   1.779  27.970  0.00  0.00    +0.000 A 
ATOM     14  C   UNL A   1     -22.709   0.497  28.122  0.00  0.00    +0.000 A 
ENDROOT
TORSDOF 0
ENDMDL
ENDMDL
