REMARK  Name = No_438-gen_results/8p0m/2024-11-26-14-13-15/
REMARK  1 active torsions:
REMARK  status: ('A' for Active; 'I' for Inactive)
REMARK    1  A    between atoms: C_2  and  C_7
REMARK                            x       y       z     vdW  Elec       q    Type
REMARK                         _______ _______ _______ _____ _____    ______ ____
ROOT
ATOM      1  C   UNL A   1     -28.016  -0.814  28.878  0.00  0.00    +0.002 A 
ATOM      2  C   UNL A   1     -27.064  -0.119  28.608  0.00  0.00    +0.018 A 
ATOM      3  C   UNL A   1     -25.792  -0.430  29.076  0.00  0.00    +0.002 A 
ATOM      4  C   UNL A   1     -25.576  -1.565  29.936  0.00  0.00    +0.000 A 
ATOM      5  C   UNL A   1     -26.735  -2.300  30.217  0.00  0.00    +0.000 A 
ATOM      6  C   UNL A   1     -27.918  -1.954  29.763  0.00  0.00    +0.000 A 
ENDROOT
BRANCH   2   7
ATOM      7  C   UNL A   1     -27.106   1.102  27.759  0.00  0.00    +0.081 A 
ATOM      8  N   UNL A   1     -26.235   1.456  27.015  0.00  0.00    -0.244 NA
ATOM      9  C   UNL A   1     -28.352   1.856  27.712  0.00  0.00    +0.019 A 
ATOM     10  C   UNL A   1     -26.264   2.550  26.188  0.00  0.00    +0.099 A 
ATOM     11  C   UNL A   1     -28.453   2.996  26.929  0.00  0.00    +0.003 A 
ATOM     12  C   UNL A   1     -27.360   3.378  26.156  0.00  0.00    +0.021 A 
ENDBRANCH   2   7
TORSDOF 1
