MODEL 4380
MODEL 1
REMARK VINA RESULT:    -6.197      0.000      0.000
REMARK INTER + INTRA:          -6.686
REMARK INTER:                  -6.559
REMARK INTRA:                  -0.127
REMARK UNBOUND:                -0.127
REMARK  Name = No_4380-gen_results/8p0m/2024-11-26-14-13-15/
REMARK  1 active torsions:
REMARK  status: ('A' for Active; 'I' for Inactive)
REMARK    1  A    between atoms: C_7  and  C_12
REMARK                            x       y       z     vdW  Elec       q    Type
REMARK                         _______ _______ _______ _____ _____    ______ ____
ROOT
ATOM      1  C   UNL A   1     -24.607  -2.630  29.089  0.00  0.00    +0.016 C 
ATOM      2  C   UNL A   1     -23.892  -3.362  28.837  0.00  0.00    +0.001 C 
ATOM      3  C   UNL A   1     -25.712  -3.073  29.891  0.00  0.00    +0.059 C 
ATOM      4  C   UNL A   1     -26.661  -2.105  30.477  0.00  0.00    +0.024 C 
ATOM      5  C   UNL A   1     -26.209  -0.811  30.795  0.00  0.00    +0.081 C 
ATOM      6  C   UNL A   1     -24.924  -0.414  30.373  0.00  0.00    +0.025 C 
ATOM      7  C   UNL A   1     -24.128  -1.263  29.696  0.00  0.00    +0.082 C 
ATOM      8  C   UNL A   1     -24.032  -4.625  28.583  0.00  0.00    +0.008 C 
ATOM      9  C   UNL A   1     -25.259  -5.139  29.048  0.00  0.00    +0.065 C 
ATOM     10  C   UNL A   1     -26.203  -4.334  29.731  0.00  0.00    +0.150 C 
ATOM     11  O   UNL A   1     -27.319  -4.779  30.172  0.00  0.00    -0.296 OA
ATOM     12 CL   UNL A   1     -27.151   0.263  31.661  0.00  0.00    -0.115 Cl
ENDROOT
BRANCH   7  13
ATOM     13  C   UNL A   1     -22.819  -0.669  29.204  0.00  0.00    +0.260 C 
ATOM     14  O   UNL A   1     -21.893  -0.661  29.929  0.00  0.00    -0.272 OA
ATOM     15  N   UNL A   1     -22.868   0.057  28.082  0.00  0.00    -0.088 NA
ENDBRANCH   7  13
TORSDOF 1
ENDMDL
ENDMDL
