REMARK  Name = No_4380-gen_results/8p0m/2024-11-26-14-13-15/
REMARK  1 active torsions:
REMARK  status: ('A' for Active; 'I' for Inactive)
REMARK    1  A    between atoms: C_7  and  C_12
REMARK                            x       y       z     vdW  Elec       q    Type
REMARK                         _______ _______ _______ _____ _____    ______ ____
ROOT
ATOM      1  C   UNL A   1     -28.016  -0.814  28.878  0.00  0.00    +0.016 C 
ATOM      2  C   UNL A   1     -28.469  -0.785  29.829  0.00  0.00    +0.001 C 
ATOM      3  C   UNL A   1     -28.196   0.348  28.055  0.00  0.00    +0.059 C 
ATOM      4  C   UNL A   1     -27.442   0.510  26.795  0.00  0.00    +0.024 C 
ATOM      5  C   UNL A   1     -26.169  -0.079  26.679  0.00  0.00    +0.081 C 
ATOM      6  C   UNL A   1     -25.731  -0.961  27.688  0.00  0.00    +0.025 C 
ATOM      7  C   UNL A   1     -26.504  -1.222  28.758  0.00  0.00    +0.082 C 
ATOM      8  C   UNL A   1     -29.580  -0.243  30.217  0.00  0.00    +0.008 C 
ATOM      9  C   UNL A   1     -30.057   0.724  29.310  0.00  0.00    +0.065 C 
ATOM     10  C   UNL A   1     -29.360   1.053  28.122  0.00  0.00    +0.150 C 
ATOM     11  O   UNL A   1     -29.767   1.934  27.288  0.00  0.00    -0.296 OA
ATOM     12 CL   UNL A   1     -25.164   0.243  25.384  0.00  0.00    -0.115 Cl
ENDROOT
BRANCH   7  13
ATOM     13  C   UNL A   1     -25.959  -2.277  29.707  0.00  0.00    +0.260 C 
ATOM     14  O   UNL A   1     -26.689  -3.107  30.110  0.00  0.00    -0.272 OA
ATOM     15  N   UNL A   1     -24.758  -2.044  30.245  0.00  0.00    -0.088 NA
ENDBRANCH   7  13
TORSDOF 1
