MODEL 4381
MODEL 1
REMARK VINA RESULT:    -8.177      0.000      0.000
REMARK INTER + INTRA:         -10.535
REMARK INTER:                  -9.612
REMARK INTRA:                  -0.923
REMARK UNBOUND:                -0.923
REMARK  Name = No_4381-gen_results/8p0m/2024-11-26-14-13-15/
REMARK  3 active torsions:
REMARK  status: ('A' for Active; 'I' for Inactive)
REMARK    1  A    between atoms: C_2  and  C_7
REMARK    2  A    between atoms: C_6  and  C_13
REMARK    3  A    between atoms: C_12  and  C_17
REMARK                            x       y       z     vdW  Elec       q    Type
REMARK                         _______ _______ _______ _____ _____    ______ ____
ROOT
ATOM      1  C   UNL A   1     -23.845  -2.790  28.808  0.00  0.00    +0.004 A 
ATOM      2  C   UNL A   1     -23.918  -1.617  29.092  0.00  0.00    -0.000 A 
ATOM      3  C   UNL A   1     -24.937  -1.136  29.906  0.00  0.00    -0.000 A 
ATOM      4  C   UNL A   1     -25.966  -2.014  30.401  0.00  0.00    -0.000 A 
ATOM      5  C   UNL A   1     -25.819  -3.350  30.006  0.00  0.00    +0.004 A 
ATOM      6  C   UNL A   1     -24.846  -3.751  29.220  0.00  0.00    +0.071 A 
ENDROOT
BRANCH   2   7
ATOM      7  C   UNL A   1     -22.962  -0.567  28.649  0.00  0.00    -0.000 A 
ATOM      8  C   UNL A   1     -21.776  -0.427  28.904  0.00  0.00    -0.000 A 
ATOM      9  C   UNL A   1     -20.889   0.583  28.312  0.00  0.00    -0.000 A 
ATOM     10  C   UNL A   1     -21.474   1.481  27.396  0.00  0.00    +0.004 A 
ATOM     11  C   UNL A   1     -23.494   0.388  27.648  0.00  0.00    +0.004 A 
ATOM     12  C   UNL A   1     -22.764   1.335  27.095  0.00  0.00    +0.071 A 
BRANCH  12  13
ATOM     13  C   UNL A   1     -23.355   2.280  26.141  0.00  0.00    +0.419 C 
ATOM     14  F   UNL A   1     -24.385   1.556  25.589  0.00  0.00    -0.166 F 
ATOM     15  F   UNL A   1     -22.456   2.581  25.212  0.00  0.00    -0.166 F 
ATOM     16  F   UNL A   1     -23.859   3.400  26.619  0.00  0.00    -0.166 F 
ENDBRANCH  12  13
ENDBRANCH   2   7
BRANCH   6  17
ATOM     17  C   UNL A   1     -24.868  -5.176  28.821  0.00  0.00    +0.419 C 
ATOM     18  F   UNL A   1     -24.173  -5.513  28.113  0.00  0.00    -0.166 F 
ATOM     19  F   UNL A   1     -26.195  -5.266  28.765  0.00  0.00    -0.166 F 
ATOM     20  F   UNL A   1     -24.660  -5.933  29.958  0.00  0.00    -0.166 F 
ENDBRANCH   6  17
TORSDOF 3
ENDMDL
ENDMDL
