REMARK  Name = No_4381-gen_results/8p0m/2024-11-26-14-13-15/
REMARK  3 active torsions:
REMARK  status: ('A' for Active; 'I' for Inactive)
REMARK    1  A    between atoms: C_2  and  C_7
REMARK    2  A    between atoms: C_6  and  C_13
REMARK    3  A    between atoms: C_12  and  C_17
REMARK                            x       y       z     vdW  Elec       q    Type
REMARK                         _______ _______ _______ _____ _____    ______ ____
ROOT
ATOM      1  C   UNL A   1     -28.016  -0.814  28.878  0.00  0.00    +0.004 A 
ATOM      2  C   UNL A   1     -27.064  -0.119  28.608  0.00  0.00    -0.000 A 
ATOM      3  C   UNL A   1     -25.792  -0.430  29.076  0.00  0.00    -0.000 A 
ATOM      4  C   UNL A   1     -25.576  -1.565  29.936  0.00  0.00    -0.000 A 
ATOM      5  C   UNL A   1     -26.735  -2.300  30.217  0.00  0.00    +0.004 A 
ATOM      6  C   UNL A   1     -27.918  -1.954  29.763  0.00  0.00    +0.071 A 
ENDROOT
BRANCH   2   7
ATOM      7  C   UNL A   1     -27.106   1.102  27.759  0.00  0.00    -0.000 A 
ATOM      8  C   UNL A   1     -26.716   2.235  27.994  0.00  0.00    -0.000 A 
ATOM      9  C   UNL A   1     -26.693   3.346  27.034  0.00  0.00    -0.000 A 
ATOM     10  C   UNL A   1     -27.196   3.078  25.744  0.00  0.00    +0.004 A 
ATOM     11  C   UNL A   1     -27.581   0.888  26.371  0.00  0.00    +0.004 A 
ATOM     12  C   UNL A   1     -27.613   1.844  25.465  0.00  0.00    +0.071 A 
BRANCH  12  13
ATOM     13  C   UNL A   1     -28.134   1.585  24.118  0.00  0.00    +0.419 C 
ATOM     14  F   UNL A   1     -29.434   1.210  24.358  0.00  0.00    -0.166 F 
ATOM     15  F   UNL A   1     -27.458   0.579  23.576  0.00  0.00    -0.166 F 
ATOM     16  F   UNL A   1     -28.153   2.588  23.264  0.00  0.00    -0.166 F 
ENDBRANCH  12  13
ENDBRANCH   2   7
BRANCH   6  17
ATOM     17  C   UNL A   1     -29.062  -2.780  30.212  0.00  0.00    +0.419 C 
ATOM     18  F   UNL A   1     -29.408  -2.671  31.194  0.00  0.00    -0.166 F 
ATOM     19  F   UNL A   1     -28.648  -3.895  29.614  0.00  0.00    -0.166 F 
ATOM     20  F   UNL A   1     -30.134  -2.494  29.389  0.00  0.00    -0.166 F 
ENDBRANCH   6  17
TORSDOF 3
