MODEL 4382
MODEL 1
REMARK VINA RESULT:    -4.922      0.000      0.000
REMARK INTER + INTRA:          -5.282
REMARK INTER:                  -5.209
REMARK INTRA:                  -0.073
REMARK UNBOUND:                -0.073
REMARK  Name = No_4382-gen_results/8p0m/2024-11-26-14-13-15/
REMARK  1 active torsions:
REMARK  status: ('A' for Active; 'I' for Inactive)
REMARK    1  A    between atoms: C_2  and  C_7
REMARK                            x       y       z     vdW  Elec       q    Type
REMARK                         _______ _______ _______ _____ _____    ______ ____
ROOT
ATOM      1  C   UNL A   1     -23.881  -3.533  28.548  0.00  0.00    -0.000 A 
ATOM      2  C   UNL A   1     -24.660  -2.681  28.908  0.00  0.00    -0.000 A 
ATOM      3  C   UNL A   1     -25.865  -3.019  29.513  0.00  0.00    -0.000 A 
ATOM      4  C   UNL A   1     -26.244  -4.398  29.690  0.00  0.00    -0.000 A 
ATOM      5  C   UNL A   1     -25.296  -5.317  29.224  0.00  0.00    -0.000 A 
ATOM      6  C   UNL A   1     -24.178  -4.946  28.643  0.00  0.00    -0.000 A 
ENDROOT
BRANCH   2   7
ATOM      7  C   UNL A   1     -24.446  -1.214  28.780  0.00  0.00    -0.005 C 
ATOM      8  C   UNL A   1     -23.624  -0.556  29.518  0.00  0.00    -0.026 C 
ATOM      9  C   UNL A   1     -23.371  -1.073  30.930  0.00  0.00    +0.031 C 
ENDBRANCH   2   7
TORSDOF 1
ENDMDL
ENDMDL
