REMARK  Name = No_4383-gen_results/8p0m/2024-11-26-14-13-15/
REMARK  2 active torsions:
REMARK  status: ('A' for Active; 'I' for Inactive)
REMARK    1  A    between atoms: C_3  and  C_4
REMARK    2  A    between atoms: C_10  and  C_13
REMARK                            x       y       z     vdW  Elec       q    Type
REMARK                         _______ _______ _______ _____ _____    ______ ____
ROOT
ATOM      1  C   UNL A   1     -24.546   0.349  28.823  0.00  0.00    +0.018 A 
ATOM      2  C   UNL A   1     -24.659   1.420  27.888  0.00  0.00    +0.104 A 
ATOM      3  C   UNL A   1     -23.540   2.179  27.550  0.00  0.00    +0.154 A 
ATOM      4  C   UNL A   1     -22.293   1.743  28.047  0.00  0.00    +0.038 A 
ATOM      5  C   UNL A   1     -22.171   0.708  28.928  0.00  0.00    +0.003 A 
ATOM      6  C   UNL A   1     -23.334  -0.062  29.308  0.00  0.00    +0.002 A 
ATOM      7  O   UNL A   1     -23.644   3.172  26.694  0.00  0.00    -0.469 OA
ATOM      8  C   UNL A   1     -24.405   3.887  26.381  0.00  0.00    +0.233 C 
ATOM      9  C   UNL A   1     -25.377   4.319  27.400  0.00  0.00    +0.036 A 
ATOM     10  C   UNL A   1     -26.039   5.471  27.290  0.00  0.00    +0.001 A 
ATOM     11  C   UNL A   1     -27.098   5.786  28.081  0.00  0.00    -0.000 A 
ATOM     12  C   UNL A   1     -27.479   4.917  29.108  0.00  0.00    +0.001 A 
ATOM     13  C   UNL A   1     -26.823   3.709  29.263  0.00  0.00    +0.015 A 
ATOM     14  C   UNL A   1     -25.775   3.392  28.393  0.00  0.00    +0.070 A 
ATOM     15  N   UNL A   1     -25.267   2.172  28.496  0.00  0.00    -0.210 NA
ATOM     16  C   UNL A   1     -27.225   2.793  30.330  0.00  0.00    +0.001 A 
ATOM     17  C   UNL A   1     -28.616   2.706  30.716  0.00  0.00    +0.000 A 
ATOM     18  C   UNL A   1     -29.574   3.459  30.174  0.00  0.00    +0.000 A 
ATOM     19  C   UNL A   1     -29.059   4.727  29.471  0.00  0.00    +0.000 A 
ENDROOT
BRANCH   1  22
ATOM     20  C   UNL A   1     -28.016  -0.814  28.878  0.00  0.00    +0.007 A 
ATOM     21  C   UNL A   1     -27.064  -0.119  28.608  0.00  0.00    +0.000 A 
ATOM     22  C   UNL A   1     -25.792  -0.430  29.076  0.00  0.00    +0.001 A 
ATOM     23  C   UNL A   1     -28.243  -1.227  30.075  0.00  0.00    +0.080 A 
ATOM     24  C   UNL A   1     -27.041  -1.686  30.812  0.00  0.00    +0.007 A 
ATOM     25  C   UNL A   1     -25.787  -1.205  30.362  0.00  0.00    +0.000 A 
BRANCH  23  26
ATOM     26  C   UNL A   1     -29.481  -1.933  30.542  0.00  0.00    +0.388 C 
ATOM     27  O   UNL A   1     -29.911  -1.562  31.715  0.00  0.00    -0.241 OA
ATOM     28  O   UNL A   1     -29.915  -2.923  30.022  0.00  0.00    -0.241 OA
ENDBRANCH  23  26
ENDBRANCH   1  22
TORSDOF 2
