MODEL 4383
MODEL 1
REMARK VINA RESULT:    -7.820      0.000      0.000
REMARK INTER + INTRA:          -9.851
REMARK INTER:                  -8.734
REMARK INTRA:                  -1.117
REMARK UNBOUND:                -1.117
REMARK  Name = No_4383-gen_results/8p0m/2024-11-26-14-13-15/
REMARK  2 active torsions:
REMARK  status: ('A' for Active; 'I' for Inactive)
REMARK    1  A    between atoms: C_3  and  C_4
REMARK    2  A    between atoms: C_10  and  C_13
REMARK                            x       y       z     vdW  Elec       q    Type
REMARK                         _______ _______ _______ _____ _____    ______ ____
ROOT
ATOM      1  C   UNL A   1     -10.021   0.386  36.344  0.00  0.00    +0.018 A 
ATOM      2  C   UNL A   1     -11.235   0.741  35.685  0.00  0.00    +0.104 A 
ATOM      3  C   UNL A   1     -11.204   1.484  34.506  0.00  0.00    +0.154 A 
ATOM      4  C   UNL A   1      -9.938   1.724  33.930  0.00  0.00    +0.038 A 
ATOM      5  C   UNL A   1      -8.770   1.373  34.543  0.00  0.00    +0.003 A 
ATOM      6  C   UNL A   1      -8.796   0.630  35.783  0.00  0.00    +0.002 A 
ATOM      7  O   UNL A   1     -12.322   1.819  33.902  0.00  0.00    -0.469 OA
ATOM      8  C   UNL A   1     -13.354   2.033  34.181  0.00  0.00    +0.233 C 
ATOM      9  C   UNL A   1     -13.577   2.649  35.500  0.00  0.00    +0.036 A 
ATOM     10  C   UNL A   1     -14.680   3.348  35.768  0.00  0.00    +0.001 A 
ATOM     11  C   UNL A   1     -15.020   3.728  37.027  0.00  0.00    -0.000 A 
ATOM     12  C   UNL A   1     -14.156   3.451  38.092  0.00  0.00    +0.001 A 
ATOM     13  C   UNL A   1     -12.999   2.727  37.865  0.00  0.00    +0.015 A 
ATOM     14  C   UNL A   1     -12.710   2.302  36.565  0.00  0.00    +0.070 A 
ATOM     15  N   UNL A   1     -11.663   1.502  36.421  0.00  0.00    -0.210 NA
ATOM     16  C   UNL A   1     -12.098   2.427  38.978  0.00  0.00    +0.001 A 
ATOM     17  C   UNL A   1     -12.641   2.181  40.296  0.00  0.00    +0.000 A 
ATOM     18  C   UNL A   1     -13.943   2.254  40.576  0.00  0.00    +0.000 A 
ATOM     19  C   UNL A   1     -14.765   3.058  39.554  0.00  0.00    +0.000 A 
ENDROOT
BRANCH   1  22
ATOM     20  C   UNL A   1     -11.300  -1.846  38.947  0.00  0.00    +0.007 A 
ATOM     21  C   UNL A   1     -11.279  -1.205  37.923  0.00  0.00    +0.000 A 
ATOM     22  C   UNL A   1     -10.165  -0.452  37.569  0.00  0.00    +0.001 A 
ATOM     23  C   UNL A   1     -10.919  -1.351  40.072  0.00  0.00    +0.080 A 
ATOM     24  C   UNL A   1      -9.689  -0.526  40.002  0.00  0.00    +0.007 A 
ATOM     25  C   UNL A   1      -9.348   0.017  38.738  0.00  0.00    +0.000 A 
BRANCH  23  26
ATOM     26  C   UNL A   1     -11.076  -1.997  41.416  0.00  0.00    +0.388 C 
ATOM     27  O   UNL A   1     -11.716  -1.278  42.295  0.00  0.00    -0.241 OA
ATOM     28  O   UNL A   1     -10.467  -2.972  41.757  0.00  0.00    -0.241 OA
ENDBRANCH  23  26
ENDBRANCH   1  22
TORSDOF 2
ENDMDL
ENDMDL
