MODEL 4384
MODEL 1
REMARK VINA RESULT:    -6.009      0.000      0.000
REMARK INTER + INTRA:          -6.653
REMARK INTER:                  -6.360
REMARK INTRA:                  -0.293
REMARK UNBOUND:                -0.293
REMARK  Name = No_4384-gen_results/8p0m/2024-11-26-14-13-15/
REMARK  1 active torsions:
REMARK  status: ('A' for Active; 'I' for Inactive)
REMARK    1  A    between atoms: C_2  and  N_7
REMARK                            x       y       z     vdW  Elec       q    Type
REMARK                         _______ _______ _______ _____ _____    ______ ____
ROOT
ATOM      1  C   UNL A   1     -25.583  -2.392  29.521  0.00  0.00    +0.015 A 
ATOM      2  C   UNL A   1     -24.667  -2.543  29.022  0.00  0.00    +0.048 A 
ATOM      3  C   UNL A   1     -26.392  -3.591  29.790  0.00  0.00    +0.001 A 
ATOM      4  C   UNL A   1     -25.879  -4.891  29.509  0.00  0.00    +0.000 A 
ATOM      5  C   UNL A   1     -23.891  -3.766  28.678  0.00  0.00    +0.015 A 
ATOM      6  C   UNL A   1     -24.614  -4.900  28.904  0.00  0.00    +0.001 A 
ENDROOT
BRANCH   2   7
ATOM      7  N   UNL A   1     -23.814  -1.343  28.746  0.00  0.00    -0.307 N 
ATOM      8  C   UNL A   1     -22.608  -1.175  29.228  0.00  0.00    +0.091 C 
ATOM      9  C   UNL A   1     -21.897  -0.050  28.813  0.00  0.00    +0.021 C 
ATOM     10  C   UNL A   1     -24.290  -0.323  27.958  0.00  0.00    +0.091 C 
ATOM     11  C   UNL A   1     -23.654   0.745  27.473  0.00  0.00    +0.021 C 
ATOM     12  C   UNL A   1     -22.374   0.854  27.991  0.00  0.00    +0.004 C 
ENDBRANCH   2   7
TORSDOF 1
ENDMDL
ENDMDL
