MODEL 4385
MODEL 1
REMARK VINA RESULT:    -9.701      0.000      0.000
REMARK INTER + INTRA:         -15.378
REMARK INTER:                 -13.103
REMARK INTRA:                  -2.274
REMARK UNBOUND:                -2.274
REMARK  Name = No_4385-gen_results/8p0m/2024-11-26-14-13-15/
REMARK  6 active torsions:
REMARK  status: ('A' for Active; 'I' for Inactive)
REMARK    1  A    between atoms: C_3  and  C_4
REMARK    2  A    between atoms: C_7  and  C_16
REMARK    3  A    between atoms: C_11  and  C_13
REMARK    4  A    between atoms: C_16  and  C_17
REMARK    5  A    between atoms: C_18  and  C_23
REMARK    6  A    between atoms: C_20  and  C_29
REMARK                            x       y       z     vdW  Elec       q    Type
REMARK                         _______ _______ _______ _____ _____    ______ ____
ROOT
ATOM      1  C   UNL A   1     -24.880  -0.335  29.475  0.00  0.00    -0.018 A 
ATOM      2  C   UNL A   1     -25.095  -1.205  30.111  0.00  0.00    -0.004 A 
ATOM      3  C   UNL A   1     -25.372  -1.151  31.587  0.00  0.00    -0.000 A 
ATOM      4  C   UNL A   1     -25.383   0.092  32.171  0.00  0.00    -0.000 A 
ATOM      5  C   UNL A   1     -25.018   1.055  30.077  0.00  0.00    -0.004 A 
ATOM      6  C   UNL A   1     -25.259   1.251  31.407  0.00  0.00    -0.000 A 
ENDROOT
BRANCH   4   7
ATOM      7  C   UNL A   1     -25.728   0.286  33.634  0.00  0.00    -0.000 A 
ATOM      8  C   UNL A   1     -25.482  -0.467  34.434  0.00  0.00    -0.004 A 
ATOM      9  C   UNL A   1     -25.836  -0.290  35.868  0.00  0.00    -0.022 A 
ATOM     10  C   UNL A   1     -26.762   1.326  33.813  0.00  0.00    -0.000 A 
ATOM     11  C   UNL A   1     -27.108   1.591  35.202  0.00  0.00    -0.000 A 
ATOM     12  C   UNL A   1     -26.687   0.777  36.182  0.00  0.00    -0.004 A 
ATOM     13  C   UNL A   1     -25.343  -1.247  36.883  0.00  0.00    +0.031 C 
ENDBRANCH   4   7
BRANCH   2  14
ATOM     14  C   UNL A   1     -25.123  -2.626  29.656  0.00  0.00    -0.000 A 
ATOM     15  C   UNL A   1     -26.191  -3.387  29.802  0.00  0.00    -0.000 A 
ATOM     16  C   UNL A   1     -23.988  -3.106  28.962  0.00  0.00    -0.000 A 
ATOM     17  C   UNL A   1     -26.096  -4.790  29.600  0.00  0.00    -0.000 A 
ATOM     18  C   UNL A   1     -23.932  -4.489  28.577  0.00  0.00    -0.000 A 
ATOM     19  C   UNL A   1     -24.983  -5.285  28.915  0.00  0.00    -0.000 A 
ENDBRANCH   2  14
BRANCH   1  20
ATOM     20  C   UNL A   1     -24.765  -0.404  28.101  0.00  0.00    +0.053 C 
BRANCH  20  26
ATOM     21  C   UNL A   1     -23.116   2.100  25.666  0.00  0.00    -0.000 A 
ATOM     22  C   UNL A   1     -22.211   2.151  26.202  0.00  0.00    -0.000 A 
ATOM     23  C   UNL A   1     -24.106   1.210  26.272  0.00  0.00    -0.003 A 
ATOM     24  C   UNL A   1     -21.700   1.539  27.421  0.00  0.00    -0.000 A 
ATOM     25  C   UNL A   1     -22.602   0.681  28.016  0.00  0.00    -0.004 A 
ATOM     26  C   UNL A   1     -23.832   0.538  27.491  0.00  0.00    -0.018 A 
BRANCH  23  27
ATOM     27  C   UNL A   1     -25.488   1.051  25.764  0.00  0.00    +0.006 A 
ATOM     28  C   UNL A   1     -25.807  -0.003  25.096  0.00  0.00    +0.000 A 
ATOM     29  C   UNL A   1     -26.922   0.080  24.147  0.00  0.00    +0.000 A 
ATOM     30  C   UNL A   1     -27.850   1.093  24.347  0.00  0.00    +0.000 A 
ATOM     31  C   UNL A   1     -26.455   2.071  25.878  0.00  0.00    +0.080 A 
ATOM     32  C   UNL A   1     -27.565   2.101  25.201  0.00  0.00    +0.007 A 
BRANCH  31  33
ATOM     33  C   UNL A   1     -26.235   3.181  26.848  0.00  0.00    +0.388 C 
ATOM     34  O   UNL A   1     -25.707   4.206  26.556  0.00  0.00    -0.241 OA
ATOM     35  O   UNL A   1     -26.643   3.001  28.001  0.00  0.00    -0.241 OA
ENDBRANCH  31  33
ENDBRANCH  23  27
ENDBRANCH  20  26
ENDBRANCH   1  20
TORSDOF 6
ENDMDL
ENDMDL
