MODEL 4386
MODEL 1
REMARK VINA RESULT:    -5.656      0.000      0.000
REMARK INTER + INTRA:          -7.481
REMARK INTER:                  -6.979
REMARK INTRA:                  -0.502
REMARK UNBOUND:                -0.502
REMARK  Name = No_4386-gen_results/8p0m/2024-11-26-14-13-15/
REMARK  4 active torsions:
REMARK  status: ('A' for Active; 'I' for Inactive)
REMARK    1  A    between atoms: C_3  and  C_5
REMARK    2  A    between atoms: C_7  and  C_11
REMARK    3  A    between atoms: C_11  and  N_12
REMARK    4  A    between atoms: N_12  and  C_13
REMARK                            x       y       z     vdW  Elec       q    Type
REMARK                         _______ _______ _______ _____ _____    ______ ____
ROOT
ATOM      1  O   UNL A   1     -15.282 -24.718   7.121  0.00  0.00    -0.273 OA
ATOM      2  C   UNL A   1     -15.890 -23.650   6.985  0.00  0.00    +0.252 C 
ATOM      3  C   UNL A   1     -15.812 -22.644   7.774  0.00  0.00    +0.181 C 
ATOM      4  N   UNL A   1     -16.378 -23.309   5.682  0.00  0.00    -0.205 NA
ATOM      5  C   UNL A   1     -17.067 -22.142   5.338  0.00  0.00    +0.117 C 
ATOM      6  C   UNL A   1     -17.211 -21.201   6.270  0.00  0.00    +0.044 C 
ATOM      7  C   UNL A   1     -16.636 -21.340   7.504  0.00  0.00    +0.024 C 
ENDROOT
BRANCH   3   8
ATOM      8  C   UNL A   1     -15.477 -22.652   9.034  0.00  0.00    +0.373 C 
ATOM      9  O   UNL A   1     -14.477 -22.408   9.480  0.00  0.00    -0.245 OA
ATOM     10  O   UNL A   1     -16.638 -22.565   9.919  0.00  0.00    -0.245 OA
ENDBRANCH   3   8
BRANCH   6  11
ATOM     11  C   UNL A   1     -17.957 -19.957   5.882  0.00  0.00    +0.114 C 
BRANCH  11  12
ATOM     12  N   UNL A   1     -18.847 -19.498   6.407  0.00  0.00    -0.237 NA
BRANCH  12  13
ATOM     13  C   UNL A   1     -20.034 -19.287   5.848  0.00  0.00    +0.065 A 
ATOM     14  C   UNL A   1     -20.590 -20.100   4.849  0.00  0.00    +0.016 A 
ATOM     15  C   UNL A   1     -21.434 -19.642   3.891  0.00  0.00    +0.001 A 
ATOM     16  C   UNL A   1     -21.970 -18.355   4.162  0.00  0.00    +0.000 A 
ATOM     17  C   UNL A   1     -21.718 -17.711   5.266  0.00  0.00    +0.001 A 
ATOM     18  C   UNL A   1     -20.679 -18.022   6.054  0.00  0.00    +0.016 A 
ENDBRANCH  12  13
ENDBRANCH  11  12
ENDBRANCH   6  11
TORSDOF 4
ENDMDL
ENDMDL
