REMARK  Name = No_4386-gen_results/8p0m/2024-11-26-14-13-15/
REMARK  4 active torsions:
REMARK  status: ('A' for Active; 'I' for Inactive)
REMARK    1  A    between atoms: C_3  and  C_5
REMARK    2  A    between atoms: C_7  and  C_11
REMARK    3  A    between atoms: C_11  and  N_12
REMARK    4  A    between atoms: N_12  and  C_13
REMARK                            x       y       z     vdW  Elec       q    Type
REMARK                         _______ _______ _______ _____ _____    ______ ____
ROOT
ATOM      1  O   UNL A   1     -28.123  -1.335  28.487  0.00  0.00    -0.273 OA
ATOM      2  C   UNL A   1     -27.064  -0.824  28.869  0.00  0.00    +0.252 C 
ATOM      3  C   UNL A   1     -26.959   0.093  29.758  0.00  0.00    +0.181 C 
ATOM      4  N   UNL A   1     -25.847  -1.549  28.659  0.00  0.00    -0.205 NA
ATOM      5  C   UNL A   1     -24.565  -1.138  29.039  0.00  0.00    +0.117 C 
ATOM      6  C   UNL A   1     -24.451  -0.017  29.749  0.00  0.00    +0.044 C 
ATOM      7  C   UNL A   1     -25.560   0.671  30.160  0.00  0.00    +0.024 C 
ENDROOT
BRANCH   3   8
ATOM      8  C   UNL A   1     -27.867   0.959  30.111  0.00  0.00    +0.373 C 
ATOM      9  O   UNL A   1     -28.583   1.512  29.448  0.00  0.00    -0.245 OA
ATOM     10  O   UNL A   1     -28.224   0.845  31.525  0.00  0.00    -0.245 OA
ENDBRANCH   3   8
BRANCH   6  11
ATOM     11  C   UNL A   1     -23.066   0.409  30.145  0.00  0.00    +0.114 C 
BRANCH  11  12
ATOM     12  N   UNL A   1     -22.240   0.775  29.466  0.00  0.00    -0.237 NA
BRANCH  12  13
ATOM     13  C   UNL A   1     -22.425   1.471  28.350  0.00  0.00    +0.065 A 
ATOM     14  C   UNL A   1     -23.628   2.107  28.008  0.00  0.00    +0.016 A 
ATOM     15  C   UNL A   1     -24.042   2.294  26.730  0.00  0.00    +0.001 A 
ATOM     16  C   UNL A   1     -23.025   2.094  25.759  0.00  0.00    +0.000 A 
ATOM     17  C   UNL A   1     -21.793   1.820  26.083  0.00  0.00    +0.001 A 
ATOM     18  C   UNL A   1     -21.459   1.355  27.295  0.00  0.00    +0.016 A 
ENDBRANCH  12  13
ENDBRANCH  11  12
ENDBRANCH   6  11
TORSDOF 4
