MODEL 4387
MODEL 1
REMARK VINA RESULT:    -5.962      0.000      0.000
REMARK INTER + INTRA:          -7.886
REMARK INTER:                  -7.356
REMARK INTRA:                  -0.530
REMARK UNBOUND:                -0.530
REMARK  Name = No_4387-gen_results/8p0m/2024-11-26-14-13-15/
REMARK  4 active torsions:
REMARK  status: ('A' for Active; 'I' for Inactive)
REMARK    1  A    between atoms: C_3  and  C_7
REMARK    2  A    between atoms: C_8  and  C_9
REMARK    3  A    between atoms: C_9  and  C_10
REMARK    4  A    between atoms: C_11  and  C_12
REMARK                            x       y       z     vdW  Elec       q    Type
REMARK                         _______ _______ _______ _____ _____    ______ ____
ROOT
ATOM      1  C   UNL A   1     -23.234   1.453  29.546  0.00  0.00    -0.004 C 
ATOM      2  C   UNL A   1     -23.563   0.263  29.876  0.00  0.00    -0.021 C 
ENDROOT
BRANCH   1   5
ATOM      3  C   UNL A   1     -24.361   2.387  27.423  0.00  0.00    -0.000 A 
ATOM      4  C   UNL A   1     -24.193   2.603  26.406  0.00  0.00    -0.000 A 
ATOM      5  C   UNL A   1     -23.205   1.791  28.093  0.00  0.00    -0.000 A 
ATOM      6  C   UNL A   1     -22.019   1.565  27.440  0.00  0.00    -0.000 A 
ATOM      7  C   UNL A   1     -23.072   2.480  25.474  0.00  0.00    -0.000 A 
ATOM      8  C   UNL A   1     -21.948   1.904  26.113  0.00  0.00    -0.000 A 
ENDBRANCH   1   5
BRANCH   2   9
ATOM      9  C   UNL A   1     -23.932  -0.720  28.933  0.00  0.00    +0.052 C 
BRANCH   9  10
ATOM     10  C   UNL A   1     -23.647  -1.923  28.995  0.00  0.00    -0.021 C 
ATOM     11  C   UNL A   1     -24.387  -2.873  28.724  0.00  0.00    -0.005 C 
BRANCH  11  12
ATOM     12  C   UNL A   1     -24.087  -4.300  28.774  0.00  0.00    -0.005 C 
ATOM     13  C   UNL A   1     -24.928  -5.297  29.139  0.00  0.00    -0.026 C 
ATOM     14  C   UNL A   1     -26.202  -4.884  29.604  0.00  0.00    +0.031 C 
ENDBRANCH  11  12
ENDBRANCH   9  10
ENDBRANCH   2   9
TORSDOF 4
ENDMDL
ENDMDL
