REMARK  Name = No_4387-gen_results/8p0m/2024-11-26-14-13-15/
REMARK  4 active torsions:
REMARK  status: ('A' for Active; 'I' for Inactive)
REMARK    1  A    between atoms: C_3  and  C_7
REMARK    2  A    between atoms: C_8  and  C_9
REMARK    3  A    between atoms: C_9  and  C_10
REMARK    4  A    between atoms: C_11  and  C_12
REMARK                            x       y       z     vdW  Elec       q    Type
REMARK                         _______ _______ _______ _____ _____    ______ ____
ROOT
ATOM      1  C   UNL A   1     -26.317   0.399  27.365  0.00  0.00    -0.004 C 
ATOM      2  C   UNL A   1     -26.881   0.971  26.372  0.00  0.00    -0.021 C 
ENDROOT
BRANCH   1   5
ATOM      3  C   UNL A   1     -28.016  -0.814  28.878  0.00  0.00    -0.000 A 
ATOM      4  C   UNL A   1     -28.469  -0.785  29.829  0.00  0.00    -0.000 A 
ATOM      5  C   UNL A   1     -27.087   0.290  28.638  0.00  0.00    -0.000 A 
ATOM      6  C   UNL A   1     -26.832   1.249  29.587  0.00  0.00    -0.000 A 
ATOM      7  C   UNL A   1     -28.391   0.080  31.006  0.00  0.00    -0.000 A 
ATOM      8  C   UNL A   1     -27.494   1.152  30.784  0.00  0.00    -0.000 A 
ENDBRANCH   1   5
BRANCH   2   9
ATOM      9  C   UNL A   1     -28.203   1.464  26.421  0.00  0.00    +0.052 C 
BRANCH   9  10
ATOM     10  C   UNL A   1     -28.848   1.701  27.451  0.00  0.00    -0.021 C 
ATOM     11  C   UNL A   1     -29.941   2.269  27.524  0.00  0.00    -0.005 C 
BRANCH  11  12
ATOM     12  C   UNL A   1     -30.736   2.557  28.713  0.00  0.00    -0.005 C 
ATOM     13  C   UNL A   1     -31.976   3.100  28.753  0.00  0.00    -0.026 C 
ATOM     14  C   UNL A   1     -32.506   3.508  27.502  0.00  0.00    +0.031 C 
ENDBRANCH  11  12
ENDBRANCH   9  10
ENDBRANCH   2   9
TORSDOF 4
