MODEL 4388
MODEL 1
REMARK VINA RESULT:    -6.521      0.000      0.000
REMARK INTER + INTRA:          -7.287
REMARK INTER:                  -6.903
REMARK INTRA:                  -0.384
REMARK UNBOUND:                -0.384
REMARK  Name = No_4388-gen_results/8p0m/2024-11-26-14-13-15/
REMARK  1 active torsions:
REMARK  status: ('A' for Active; 'I' for Inactive)
REMARK    1  A    between atoms: C_3  and  C_7
REMARK                            x       y       z     vdW  Elec       q    Type
REMARK                         _______ _______ _______ _____ _____    ______ ____
ROOT
ATOM      1  C   UNL A   1     -23.985  -3.935  28.577  0.00  0.00    +0.000 A 
ATOM      2  C   UNL A   1     -24.517  -4.808  28.835  0.00  0.00    +0.000 A 
ATOM      3  C   UNL A   1     -24.573  -2.689  28.887  0.00  0.00    +0.000 A 
ATOM      4  C   UNL A   1     -25.809  -2.596  29.497  0.00  0.00    +0.000 A 
ATOM      5  C   UNL A   1     -26.435  -3.792  29.808  0.00  0.00    +0.000 A 
ATOM      6  C   UNL A   1     -25.806  -4.984  29.519  0.00  0.00    +0.000 A 
ENDROOT
BRANCH   3   7
ATOM      7  C   UNL A   1     -23.917  -1.373  28.597  0.00  0.00    +0.000 A 
ATOM      8  C   UNL A   1     -24.463  -0.462  27.964  0.00  0.00    +0.000 A 
ATOM      9  C   UNL A   1     -22.566  -1.189  29.105  0.00  0.00    +0.000 A 
ATOM     10  C   UNL A   1     -23.733   0.670  27.464  0.00  0.00    +0.000 A 
ATOM     11  C   UNL A   1     -21.904  -0.010  28.910  0.00  0.00    +0.000 A 
ATOM     12  C   UNL A   1     -22.496   0.945  28.035  0.00  0.00    +0.000 A 
ENDBRANCH   3   7
TORSDOF 1
ENDMDL
ENDMDL
