REMARK  Name = No_4389-gen_results/8p0m/2024-11-26-14-13-15/
REMARK  4 active torsions:
REMARK  status: ('A' for Active; 'I' for Inactive)
REMARK    1  A    between atoms: C_1  and  C_2
REMARK    2  A    between atoms: C_1  and  C_8
REMARK    3  A    between atoms: C_5  and  C_11
REMARK    4  A    between atoms: C_8  and  C_10
REMARK                            x       y       z     vdW  Elec       q    Type
REMARK                         _______ _______ _______ _____ _____    ______ ____
ROOT
ATOM      1  C   UNL A   1     -27.064  -0.119  28.608  0.00  0.00    -0.021 A 
ATOM      2  C   UNL A   1     -26.972   0.714  27.506  0.00  0.00    -0.004 A 
ATOM      3  C   UNL A   1     -25.820   1.491  27.116  0.00  0.00    +0.004 A 
ATOM      4  C   UNL A   1     -24.656   1.424  27.918  0.00  0.00    +0.071 A 
ATOM      5  C   UNL A   1     -24.685   0.590  29.066  0.00  0.00    +0.004 A 
ATOM      6  C   UNL A   1     -25.810  -0.127  29.334  0.00  0.00    -0.004 A 
ENDROOT
BRANCH   4   7
ATOM      7  C   UNL A   1     -23.463   2.197  27.596  0.00  0.00    +0.419 C 
ATOM      8  F   UNL A   1     -23.677   3.321  27.171  0.00  0.00    -0.166 F 
ATOM      9  F   UNL A   1     -22.631   2.388  28.670  0.00  0.00    -0.166 F 
ATOM     10  F   UNL A   1     -22.655   1.532  26.722  0.00  0.00    -0.166 F 
ENDBRANCH   4   7
BRANCH   1  11
ATOM     11  C   UNL A   1     -28.016  -0.814  28.878  0.00  0.00    +0.051 C 
BRANCH  11  12
ATOM     12  C   UNL A   1     -28.694  -0.473  30.159  0.00  0.00    +0.149 C 
ATOM     13 CL   UNL A   1     -28.579   0.815  30.854  0.00  0.00    -0.106 Cl
BRANCH  12  14
ATOM     14  C   UNL A   1     -29.581  -1.584  30.763  0.00  0.00    +0.224 C 
ATOM     15  O   UNL A   1     -29.725  -1.593  31.924  0.00  0.00    -0.287 OA
ENDBRANCH  12  14
ENDBRANCH  11  12
ENDBRANCH   1  11
TORSDOF 4
