MODEL 4389
MODEL 1
REMARK VINA RESULT:    -5.987      0.000      0.000
REMARK INTER + INTRA:          -7.913
REMARK INTER:                  -7.387
REMARK INTRA:                  -0.525
REMARK UNBOUND:                -0.525
REMARK  Name = No_4389-gen_results/8p0m/2024-11-26-14-13-15/
REMARK  4 active torsions:
REMARK  status: ('A' for Active; 'I' for Inactive)
REMARK    1  A    between atoms: C_1  and  C_2
REMARK    2  A    between atoms: C_1  and  C_8
REMARK    3  A    between atoms: C_5  and  C_11
REMARK    4  A    between atoms: C_8  and  C_10
REMARK                            x       y       z     vdW  Elec       q    Type
REMARK                         _______ _______ _______ _____ _____    ______ ____
ROOT
ATOM      1  C   UNL A   1     -23.930  -1.714  29.282  0.00  0.00    -0.021 A 
ATOM      2  C   UNL A   1     -22.717  -1.053  29.373  0.00  0.00    -0.004 A 
ATOM      3  C   UNL A   1     -22.311   0.097  28.602  0.00  0.00    +0.004 A 
ATOM      4  C   UNL A   1     -23.212   0.623  27.646  0.00  0.00    +0.071 A 
ATOM      5  C   UNL A   1     -24.474  -0.011  27.500  0.00  0.00    +0.004 A 
ATOM      6  C   UNL A   1     -24.776  -1.073  28.295  0.00  0.00    -0.004 A 
ENDROOT
BRANCH   4   7
ATOM      7  C   UNL A   1     -22.861   1.770  26.818  0.00  0.00    +0.419 C 
ATOM      8  F   UNL A   1     -21.664   1.936  26.649  0.00  0.00    -0.166 F 
ATOM      9  F   UNL A   1     -23.382   1.706  25.550  0.00  0.00    -0.166 F 
ATOM     10  F   UNL A   1     -23.412   2.922  27.297  0.00  0.00    -0.166 F 
ENDBRANCH   4   7
BRANCH   1  11
ATOM     11  C   UNL A   1     -24.276  -2.634  29.986  0.00  0.00    +0.051 C 
BRANCH  11  12
ATOM     12  C   UNL A   1     -24.715  -3.852  29.251  0.00  0.00    +0.149 C 
ATOM     13 CL   UNL A   1     -23.902  -4.579  28.268  0.00  0.00    -0.106 Cl
BRANCH  12  14
ATOM     14  C   UNL A   1     -26.137  -4.358  29.583  0.00  0.00    +0.224 C 
ATOM     15  O   UNL A   1     -26.980  -3.559  29.719  0.00  0.00    -0.287 OA
ENDBRANCH  12  14
ENDBRANCH  11  12
ENDBRANCH   1  11
TORSDOF 4
ENDMDL
ENDMDL
