MODEL 438
MODEL 1
REMARK VINA RESULT:    -6.438      0.000      0.000
REMARK INTER + INTRA:          -7.064
REMARK INTER:                  -6.814
REMARK INTRA:                  -0.249
REMARK UNBOUND:                -0.249
REMARK  Name = No_438-gen_results/8p0m/2024-11-26-14-13-15/
REMARK  1 active torsions:
REMARK  status: ('A' for Active; 'I' for Inactive)
REMARK    1  A    between atoms: C_2  and  C_7
REMARK                            x       y       z     vdW  Elec       q    Type
REMARK                         _______ _______ _______ _____ _____    ______ ____
ROOT
ATOM      1  C   UNL A   1     -24.018  -3.945  28.856  0.00  0.00    +0.002 A 
ATOM      2  C   UNL A   1     -24.359  -2.812  29.106  0.00  0.00    +0.018 A 
ATOM      3  C   UNL A   1     -25.602  -2.544  29.668  0.00  0.00    +0.002 A 
ATOM      4  C   UNL A   1     -26.542  -3.603  29.928  0.00  0.00    +0.000 A 
ATOM      5  C   UNL A   1     -26.076  -4.880  29.587  0.00  0.00    +0.000 A 
ATOM      6  C   UNL A   1     -24.898  -5.079  29.042  0.00  0.00    +0.000 A 
ENDROOT
BRANCH   2   7
ATOM      7  C   UNL A   1     -23.531  -1.597  28.879  0.00  0.00    +0.081 A 
ATOM      8  N   UNL A   1     -22.371  -1.490  29.161  0.00  0.00    -0.244 NA
ATOM      9  C   UNL A   1     -24.126  -0.498  28.130  0.00  0.00    +0.019 A 
ATOM     10  C   UNL A   1     -21.571  -0.401  28.923  0.00  0.00    +0.099 A 
ATOM     11  C   UNL A   1     -23.397   0.655  27.878  0.00  0.00    +0.003 A 
ATOM     12  C   UNL A   1     -22.077   0.722  28.314  0.00  0.00    +0.021 A 
ENDBRANCH   2   7
TORSDOF 1
ENDMDL
ENDMDL
