REMARK  Name = No_439-gen_results/8p0m/2024-11-26-14-13-15/
REMARK  1 active torsions:
REMARK  status: ('A' for Active; 'I' for Inactive)
REMARK    1  A    between atoms: C_16  and  C_18
REMARK                            x       y       z     vdW  Elec       q    Type
REMARK                         _______ _______ _______ _____ _____    ______ ____
ROOT
ATOM      1  C   UNL A   1     -28.016  -0.814  28.878  0.00  0.00    +0.004 A 
ATOM      2  C   UNL A   1     -28.469  -0.785  29.829  0.00  0.00    +0.050 A 
ATOM      3  C   UNL A   1     -26.546  -0.876  28.850  0.00  0.00    -0.004 A 
ATOM      4  C   UNL A   1     -25.804  -1.032  30.057  0.00  0.00    -0.001 A 
ATOM      5  C   UNL A   1     -27.944  -0.987  31.207  0.00  0.00    -0.016 A 
ATOM      6  C   UNL A   1     -26.582  -1.039  31.223  0.00  0.00    -0.004 A 
ATOM      7  C   UNL A   1     -30.061  -0.737  29.902  0.00  0.00    +0.249 C 
ATOM      8  O   UNL A   1     -30.552  -0.277  29.011  0.00  0.00    -0.270 OA
ATOM      9  N   UNL A   1     -30.743  -1.289  30.994  0.00  0.00    -0.277 N 
ATOM     10  C   UNL A   1     -32.171  -1.260  30.975  0.00  0.00    +0.094 C 
ATOM     11  C   UNL A   1     -24.369  -1.088  30.088  0.00  0.00    -0.000 A 
ATOM     12  C   UNL A   1     -23.581  -0.780  29.076  0.00  0.00    -0.000 A 
ATOM     13  C   UNL A   1     -22.132  -0.686  29.193  0.00  0.00    -0.000 A 
ATOM     14  C   UNL A   1     -21.524   0.465  28.859  0.00  0.00    -0.000 A 
ATOM     15  C   UNL A   1     -22.101   1.379  27.908  0.00  0.00    -0.000 A 
ATOM     16  C   UNL A   1     -23.522   1.265  27.691  0.00  0.00    -0.000 A 
ATOM     17  C   UNL A   1     -24.210   0.289  28.259  0.00  0.00    -0.004 A 
ATOM     18  C   UNL A   1     -32.704  -2.096  31.694  0.00  0.00    +0.022 C 
ATOM     19  C   UNL A   1     -32.002  -2.892  32.707  0.00  0.00    +0.004 C 
ATOM     20  C   UNL A   1     -30.593  -2.898  32.667  0.00  0.00    +0.020 C 
ATOM     21  C   UNL A   1     -29.977  -2.204  31.763  0.00  0.00    +0.080 C 
ATOM     22  C   UNL A   1     -28.560  -2.017  31.917  0.00  0.00    +0.046 C 
ATOM     23  C   UNL A   1     -25.635  -0.248  27.800  0.00  0.00    -0.022 A 
ATOM     24  C   UNL A   1     -25.478  -1.292  26.681  0.00  0.00    +0.031 C 
ENDROOT
BRANCH  16  25
ATOM     25  C   UNL A   1     -24.155   2.282  26.850  0.00  0.00    -0.000 A 
ATOM     26  C   UNL A   1     -23.781   3.346  26.628  0.00  0.00    -0.000 A 
ATOM     27  C   UNL A   1     -25.450   1.757  26.327  0.00  0.00    -0.000 A 
ATOM     28  C   UNL A   1     -26.420   2.598  25.921  0.00  0.00    -0.000 A 
ATOM     29  C   UNL A   1     -24.667   4.377  26.006  0.00  0.00    -0.000 A 
ATOM     30  C   UNL A   1     -25.922   3.942  25.589  0.00  0.00    +0.000 A 
ENDBRANCH  16  25
TORSDOF 1
