REMARK  Name = No_4390-gen_results/8p0m/2024-11-26-14-13-15/
REMARK  3 active torsions:
REMARK  status: ('A' for Active; 'I' for Inactive)
REMARK    1  A    between atoms: C_3  and  O_9
REMARK    2  A    between atoms: C_7  and  C_16
REMARK    3  A    between atoms: O_9  and  C_10
REMARK                            x       y       z     vdW  Elec       q    Type
REMARK                         _______ _______ _______ _____ _____    ______ ____
ROOT
ATOM      1  F   UNL A   1     -28.073  -1.254  28.532  0.00  0.00    -0.196 F 
ATOM      2  C   UNL A   1     -27.359  -0.379  28.722  0.00  0.00    +0.318 C 
ATOM      3  C   UNL A   1     -26.810   0.189  27.651  0.00  0.00    +0.231 C 
ATOM      4  C   UNL A   1     -27.968   0.694  29.618  0.00  0.00    +0.038 C 
ATOM      5  F   UNL A   1     -26.310  -0.906  29.530  0.00  0.00    -0.196 F 
ATOM      6  C   UNL A   1     -27.466   1.010  26.725  0.00  0.00    +0.054 C 
ATOM      7  C   UNL A   1     -28.783   1.631  28.925  0.00  0.00    -0.021 C 
ATOM      8  C   UNL A   1     -28.270   2.015  27.534  0.00  0.00    +0.030 C 
ENDROOT
BRANCH   7   9
ATOM      9  C   UNL A   1     -28.951   2.905  29.759  0.00  0.00    -0.009 C 
ATOM     10  C   UNL A   1     -29.971   3.611  29.460  0.00  0.00    -0.026 C 
ATOM     11  C   UNL A   1     -30.924   3.263  28.523  0.00  0.00    +0.031 C 
ENDBRANCH   7   9
BRANCH   3  12
ATOM     12  O   UNL A   1     -25.553  -0.242  27.135  0.00  0.00    -0.473 OA
BRANCH  12  13
ATOM     13  C   UNL A   1     -24.396   0.395  27.605  0.00  0.00    +0.139 A 
ATOM     14  C   UNL A   1     -23.553  -0.120  28.616  0.00  0.00    +0.037 A 
ATOM     15  C   UNL A   1     -22.389   0.534  29.024  0.00  0.00    +0.003 A 
ATOM     16  C   UNL A   1     -21.923   1.587  28.269  0.00  0.00    +0.000 A 
ATOM     17  C   UNL A   1     -23.950   1.539  26.931  0.00  0.00    +0.037 A 
ATOM     18  C   UNL A   1     -22.723   2.127  27.240  0.00  0.00    +0.003 A 
ENDBRANCH  12  13
ENDBRANCH   3  12
TORSDOF 3
