REMARK  Name = No_4391-gen_results/8p0m/2024-11-26-14-13-15/
REMARK  1 active torsions:
REMARK  status: ('A' for Active; 'I' for Inactive)
REMARK    1  A    between atoms: C_4  and  C_5
REMARK                            x       y       z     vdW  Elec       q    Type
REMARK                         _______ _______ _______ _____ _____    ______ ____
ROOT
ATOM      1  C   UNL A   1     -28.016  -0.814  28.878  0.00  0.00    +0.000 A 
ATOM      2  C   UNL A   1     -27.064  -0.119  28.608  0.00  0.00    +0.000 A 
ATOM      3  C   UNL A   1     -26.876   1.133  28.913  0.00  0.00    +0.007 A 
ATOM      4  C   UNL A   1     -25.688   1.952  28.567  0.00  0.00    +0.080 A 
ATOM      5  C   UNL A   1     -28.057  -1.999  29.294  0.00  0.00    +0.000 A 
ATOM      6  C   UNL A   1     -26.733  -2.692  29.519  0.00  0.00    +0.000 A 
ATOM      7  C   UNL A   1     -25.576  -2.023  29.155  0.00  0.00    +0.000 A 
ATOM      8  C   UNL A   1     -25.689  -0.760  28.831  0.00  0.00    +0.000 A 
ATOM      9  C   UNL A   1     -24.440   1.075  28.848  0.00  0.00    +0.007 A 
ATOM     10  C   UNL A   1     -24.422  -0.240  28.678  0.00  0.00    +0.000 A 
ENDROOT
BRANCH   4  11
ATOM     11  C   UNL A   1     -25.509   3.304  28.886  0.00  0.00    +0.388 C 
ATOM     12  O   UNL A   1     -25.635   3.869  29.888  0.00  0.00    -0.241 OA
ATOM     13  O   UNL A   1     -25.039   3.970  27.792  0.00  0.00    -0.241 OA
ENDBRANCH   4  11
TORSDOF 1
