MODEL 4391
MODEL 1
REMARK VINA RESULT:    -6.200      0.000      0.000
REMARK INTER + INTRA:          -6.632
REMARK INTER:                  -6.562
REMARK INTRA:                  -0.070
REMARK UNBOUND:                -0.070
REMARK  Name = No_4391-gen_results/8p0m/2024-11-26-14-13-15/
REMARK  1 active torsions:
REMARK  status: ('A' for Active; 'I' for Inactive)
REMARK    1  A    between atoms: C_4  and  C_5
REMARK                            x       y       z     vdW  Elec       q    Type
REMARK                         _______ _______ _______ _____ _____    ______ ____
ROOT
ATOM      1  C   UNL A   1     -29.037 -12.161  29.383  0.00  0.00    +0.000 A 
ATOM      2  C   UNL A   1     -29.102 -11.844  30.548  0.00  0.00    +0.000 A 
ATOM      3  C   UNL A   1     -28.151 -11.864  31.437  0.00  0.00    +0.007 A 
ATOM      4  C   UNL A   1     -28.270 -11.461  32.859  0.00  0.00    +0.080 A 
ATOM      5  C   UNL A   1     -29.507 -11.594  28.365  0.00  0.00    +0.000 A 
ATOM      6  C   UNL A   1     -30.266 -10.306  28.588  0.00  0.00    +0.000 A 
ATOM      7  C   UNL A   1     -30.484  -9.894  29.892  0.00  0.00    +0.000 A 
ATOM      8  C   UNL A   1     -29.846 -10.535  30.839  0.00  0.00    +0.000 A 
ATOM      9  C   UNL A   1     -29.083 -10.140  32.886  0.00  0.00    +0.007 A 
ATOM     10  C   UNL A   1     -30.056  -9.868  32.026  0.00  0.00    +0.000 A 
ENDROOT
BRANCH   4  11
ATOM     11  C   UNL A   1     -27.242 -11.507  33.809  0.00  0.00    +0.388 C 
ATOM     12  O   UNL A   1     -26.895 -10.725  34.589  0.00  0.00    -0.241 OA
ATOM     13  O   UNL A   1     -26.656 -12.739  33.784  0.00  0.00    -0.241 OA
ENDBRANCH   4  11
TORSDOF 1
ENDMDL
ENDMDL
