REMARK  Name = No_4392-gen_results/8p0m/2024-11-26-14-13-15/
REMARK  6 active torsions:
REMARK  status: ('A' for Active; 'I' for Inactive)
REMARK    1  A    between atoms: C_3  and  C_7
REMARK    2  A    between atoms: C_6  and  O_29
REMARK    3  A    between atoms: C_8  and  C_12
REMARK    4  A    between atoms: O_29  and  C_30
REMARK    5  A    between atoms: C_30  and  C_31
REMARK    6  A    between atoms: C_32  and  C_34
REMARK                            x       y       z     vdW  Elec       q    Type
REMARK                         _______ _______ _______ _____ _____    ______ ____
ROOT
ATOM      1  C   UNL A   1     -24.544   0.413  28.738  0.00  0.00    -0.015 C 
ATOM      2  C   UNL A   1     -24.095   1.379  29.575  0.00  0.00    +0.016 C 
ATOM      3  C   UNL A   1     -22.971   2.145  29.249  0.00  0.00    -0.003 C 
ATOM      4  C   UNL A   1     -22.435   1.896  27.970  0.00  0.00    -0.021 C 
ATOM      5  C   UNL A   1     -23.619   0.776  27.663  0.00  0.00    +0.052 C 
ENDROOT
BRANCH   2   6
ATOM      6  C   UNL A   1     -24.690   1.569  31.016  0.00  0.00    +0.110 A 
ATOM      7  N   UNL A   1     -24.826   0.702  31.873  0.00  0.00    -0.228 NA
ATOM      8  C   UNL A   1     -25.140   2.927  31.286  0.00  0.00    +0.157 A 
ATOM      9  C   UNL A   1     -25.513   0.932  33.052  0.00  0.00    +0.132 A 
ATOM     10  F   UNL A   1     -24.866   3.840  30.443  0.00  0.00    -0.203 F 
ATOM     11  C   UNL A   1     -25.364   3.220  32.579  0.00  0.00    +0.030 A 
ATOM     12  N   UNL A   1     -25.775  -0.075  33.944  0.00  0.00    -0.271 N 
ATOM     13  C   UNL A   1     -25.752   2.241  33.464  0.00  0.00    +0.016 A 
ATOM     14  C   UNL A   1     -26.940  -0.258  34.577  0.00  0.00    +0.049 A 
ATOM     15  C   UNL A   1     -24.590  -0.424  34.752  0.00  0.00    +0.119 C 
ATOM     16  C   UNL A   1     -27.066  -0.881  35.656  0.00  0.00    +0.015 A 
ATOM     17  C   UNL A   1     -27.487  -0.439  36.472  0.00  0.00    +0.001 A 
ATOM     18  C   UNL A   1     -28.736   0.419  36.453  0.00  0.00    -0.000 A 
ATOM     19  C   UNL A   1     -28.959   0.982  35.174  0.00  0.00    -0.003 A 
ATOM     20  C   UNL A   1     -27.742   1.038  34.641  0.00  0.00    -0.004 A 
ATOM     21  C   UNL A   1     -27.203   1.984  33.419  0.00  0.00    +0.057 C 
ENDBRANCH   2   6
BRANCH   1  24
ATOM     22  C   UNL A   1     -28.016  -0.814  28.878  0.00  0.00    +0.048 A 
ATOM     23  C   UNL A   1     -27.064  -0.119  28.608  0.00  0.00    +0.060 A 
ATOM     24  C   UNL A   1     -25.765  -0.390  29.036  0.00  0.00    +0.007 A 
ATOM     25  C   UNL A   1     -25.530  -1.530  29.901  0.00  0.00    +0.004 A 
ATOM     26  C   UNL A   1     -26.658  -2.292  30.203  0.00  0.00    +0.037 A 
ATOM     27  C   UNL A   1     -27.855  -1.956  29.763  0.00  0.00    +0.140 A 
ATOM     28 CL   UNL A   1     -27.262   1.319  27.586  0.00  0.00    -0.082 Cl
BRANCH  27  29
ATOM     29  O   UNL A   1     -29.052  -2.528  30.110  0.00  0.00    -0.471 OA
BRANCH  29  30
ATOM     30  C   UNL A   1     -30.141  -1.948  30.467  0.00  0.00    +0.228 C 
BRANCH  30  31
ATOM     31  C   UNL A   1     -30.909  -2.570  31.428  0.00  0.00    -0.001 C 
ATOM     32  C   UNL A   1     -31.959  -1.894  31.951  0.00  0.00    -0.005 C 
ATOM     33  C   UNL A   1     -30.701  -3.907  31.828  0.00  0.00    +0.030 C 
BRANCH  32  34
ATOM     34  C   UNL A   1     -32.237  -0.537  31.723  0.00  0.00    -0.001 C 
ATOM     35  C   UNL A   1     -31.391   0.055  30.745  0.00  0.00    -0.000 C 
ENDBRANCH  32  34
ENDBRANCH  30  31
ENDBRANCH  29  30
ENDBRANCH  27  29
ENDBRANCH   1  24
TORSDOF 6
