MODEL 4392
MODEL 1
REMARK VINA RESULT:    -6.598      0.000      0.000
REMARK INTER + INTRA:         -12.547
REMARK INTER:                  -8.912
REMARK INTRA:                  -3.635
REMARK UNBOUND:                -3.635
REMARK  Name = No_4392-gen_results/8p0m/2024-11-26-14-13-15/
REMARK  6 active torsions:
REMARK  status: ('A' for Active; 'I' for Inactive)
REMARK    1  A    between atoms: C_3  and  C_7
REMARK    2  A    between atoms: C_6  and  O_29
REMARK    3  A    between atoms: C_8  and  C_12
REMARK    4  A    between atoms: O_29  and  C_30
REMARK    5  A    between atoms: C_30  and  C_31
REMARK    6  A    between atoms: C_32  and  C_34
REMARK                            x       y       z     vdW  Elec       q    Type
REMARK                         _______ _______ _______ _____ _____    ______ ____
ROOT
ATOM      1  C   UNL A   1     -30.429  -6.945   9.845  0.00  0.00    -0.015 C 
ATOM      2  C   UNL A   1     -31.490  -7.535  10.446  0.00  0.00    +0.016 C 
ATOM      3  C   UNL A   1     -32.366  -6.793  11.246  0.00  0.00    -0.003 C 
ATOM      4  C   UNL A   1     -32.108  -5.408  11.280  0.00  0.00    -0.021 C 
ATOM      5  C   UNL A   1     -30.837  -5.593  10.231  0.00  0.00    +0.052 C 
ENDROOT
BRANCH   2   6
ATOM      6  C   UNL A   1     -31.692  -9.092  10.429  0.00  0.00    +0.110 A 
ATOM      7  N   UNL A   1     -31.159  -9.909  11.172  0.00  0.00    -0.228 NA
ATOM      8  C   UNL A   1     -32.588  -9.552   9.376  0.00  0.00    +0.157 A 
ATOM      9  C   UNL A   1     -31.272 -11.274  10.971  0.00  0.00    +0.132 A 
ATOM     10  F   UNL A   1     -33.238  -8.686   8.707  0.00  0.00    -0.203 F 
ATOM     11  C   UNL A   1     -33.037 -10.813   9.504  0.00  0.00    +0.030 A 
ATOM     12  N   UNL A   1     -30.568 -12.176  11.724  0.00  0.00    -0.271 N 
ATOM     13  C   UNL A   1     -32.283 -11.765  10.148  0.00  0.00    +0.016 A 
ATOM     14  C   UNL A   1     -29.946 -13.260  11.244  0.00  0.00    +0.049 A 
ATOM     15  C   UNL A   1     -31.161 -12.367  13.062  0.00  0.00    +0.119 C 
ATOM     16  C   UNL A   1     -29.670 -14.274  11.925  0.00  0.00    +0.015 A 
ATOM     17  C   UNL A   1     -30.002 -15.197  11.650  0.00  0.00    +0.001 A 
ATOM     18  C   UNL A   1     -29.984 -15.748  10.239  0.00  0.00    -0.000 A 
ATOM     19  C   UNL A   1     -29.967 -14.710   9.277  0.00  0.00    -0.003 A 
ATOM     20  C   UNL A   1     -30.543 -13.691   9.908  0.00  0.00    -0.004 A 
ATOM     21  C   UNL A   1     -31.266 -12.369   9.269  0.00  0.00    +0.057 C 
ENDBRANCH   2   6
BRANCH   1  24
ATOM     22  C   UNL A   1     -28.865  -8.524   6.906  0.00  0.00    +0.048 A 
ATOM     23  C   UNL A   1     -29.656  -7.907   7.581  0.00  0.00    +0.060 A 
ATOM     24  C   UNL A   1     -29.504  -7.699   8.952  0.00  0.00    +0.007 A 
ATOM     25  C   UNL A   1     -28.372  -8.296   9.635  0.00  0.00    +0.004 A 
ATOM     26  C   UNL A   1     -27.497  -9.015   8.823  0.00  0.00    +0.037 A 
ATOM     27  C   UNL A   1     -27.724  -9.172   7.533  0.00  0.00    +0.140 A 
ATOM     28 CL   UNL A   1     -31.091  -7.173   6.838  0.00  0.00    -0.082 Cl
BRANCH  27  29
ATOM     29  O   UNL A   1     -27.029  -9.974   6.664  0.00  0.00    -0.471 OA
BRANCH  29  30
ATOM     30  C   UNL A   1     -27.479 -10.910   5.908  0.00  0.00    +0.228 C 
BRANCH  30  31
ATOM     31  C   UNL A   1     -28.084 -11.987   6.519  0.00  0.00    -0.001 C 
ATOM     32  C   UNL A   1     -29.339 -12.323   6.136  0.00  0.00    -0.005 C 
ATOM     33  C   UNL A   1     -27.425 -12.805   7.461  0.00  0.00    +0.030 C 
BRANCH  32  34
ATOM     34  C   UNL A   1     -30.153 -11.560   5.285  0.00  0.00    -0.001 C 
ATOM     35  C   UNL A   1     -31.305 -11.032   5.930  0.00  0.00    -0.000 C 
ENDBRANCH  32  34
ENDBRANCH  30  31
ENDBRANCH  29  30
ENDBRANCH  27  29
ENDBRANCH   1  24
TORSDOF 6
ENDMDL
ENDMDL
