MODEL 4393
MODEL 1
REMARK VINA RESULT:    -6.455      0.000      0.000
REMARK INTER + INTRA:          -7.145
REMARK INTER:                  -6.832
REMARK INTRA:                  -0.313
REMARK UNBOUND:                -0.313
REMARK  Name = No_4393-gen_results/8p0m/2024-11-26-14-13-15/
REMARK  1 active torsions:
REMARK  status: ('A' for Active; 'I' for Inactive)
REMARK    1  A    between atoms: C_3  and  C_7
REMARK                            x       y       z     vdW  Elec       q    Type
REMARK                         _______ _______ _______ _____ _____    ______ ____
ROOT
ATOM      1  C   UNL A   1     -26.554  -3.558  30.006  0.00  0.00    +0.000 A 
ATOM      2  C   UNL A   1     -25.879  -2.586  29.758  0.00  0.00    +0.000 A 
ATOM      3  C   UNL A   1     -24.670  -2.643  29.066  0.00  0.00    +0.000 A 
ATOM      4  C   UNL A   1     -24.147  -3.934  28.664  0.00  0.00    +0.000 A 
ATOM      5  C   UNL A   1     -24.948  -5.029  28.987  0.00  0.00    +0.000 A 
ATOM      6  C   UNL A   1     -26.075  -4.885  29.656  0.00  0.00    +0.000 A 
ENDROOT
BRANCH   3   7
ATOM      7  C   UNL A   1     -23.789  -1.491  28.717  0.00  0.00    +0.000 A 
ATOM      8  C   UNL A   1     -22.643  -1.298  29.297  0.00  0.00    +0.000 A 
ATOM      9  C   UNL A   1     -21.843  -0.141  29.007  0.00  0.00    +0.000 A 
ATOM     10  C   UNL A   1     -22.268   0.876  28.224  0.00  0.00    +0.000 A 
ATOM     11  C   UNL A   1     -24.303  -0.413  27.857  0.00  0.00    +0.000 A 
ATOM     12  C   UNL A   1     -23.508   0.749  27.632  0.00  0.00    +0.000 A 
ENDBRANCH   3   7
TORSDOF 1
ENDMDL
ENDMDL
