REMARK  Name = No_4394-gen_results/8p0m/2024-11-26-14-13-15/
REMARK  5 active torsions:
REMARK  status: ('A' for Active; 'I' for Inactive)
REMARK    1  A    between atoms: C_1  and  C_2
REMARK    2  A    between atoms: C_1  and  C_8
REMARK    3  A    between atoms: C_5  and  C_10
REMARK    4  A    between atoms: C_8  and  C_9
REMARK    5  A    between atoms: C_10  and  C_11
REMARK                            x       y       z     vdW  Elec       q    Type
REMARK                         _______ _______ _______ _____ _____    ______ ____
ROOT
ATOM      1  C   UNL A   1     -27.064  -0.119  28.608  0.00  0.00    -0.022 A 
ATOM      2  C   UNL A   1     -27.001   0.691  27.491  0.00  0.00    -0.005 A 
ATOM      3  C   UNL A   1     -25.777   1.021  26.913  0.00  0.00    -0.005 A 
ATOM      4  C   UNL A   1     -24.509   0.736  27.569  0.00  0.00    -0.022 A 
ATOM      5  C   UNL A   1     -24.593  -0.036  28.739  0.00  0.00    -0.005 A 
ATOM      6  C   UNL A   1     -25.811  -0.477  29.158  0.00  0.00    -0.005 A 
ENDROOT
BRANCH   1   7
ATOM      7  C   UNL A   1     -28.016  -0.814  28.878  0.00  0.00    +0.031 C 
BRANCH   7   8
ATOM      8  C   UNL A   1     -28.641  -0.402  30.194  0.00  0.00    +0.031 C 
BRANCH   8   9
ATOM      9  C   UNL A   1     -29.696  -1.185  30.738  0.00  0.00    -0.022 A 
ATOM     10  C   UNL A   1     -30.006  -2.234  30.054  0.00  0.00    -0.004 A 
ATOM     11  C   UNL A   1     -30.190  -3.177  30.629  0.00  0.00    -0.000 A 
ATOM     12  C   UNL A   1     -30.127  -3.175  31.939  0.00  0.00    -0.000 A 
ATOM     13  C   UNL A   1     -29.914  -2.201  32.804  0.00  0.00    -0.000 A 
ATOM     14  C   UNL A   1     -29.059  -1.421  32.085  0.00  0.00    -0.004 A 
ENDBRANCH   8   9
ENDBRANCH   7   8
ENDBRANCH   1   7
BRANCH   4  15
ATOM     15  C   UNL A   1     -23.250   1.282  27.087  0.00  0.00    +0.026 C 
BRANCH  15  16
ATOM     16  C   UNL A   1     -22.660   2.325  27.652  0.00  0.00    +0.005 C 
ATOM     17  C   UNL A   1     -22.037   1.913  28.668  0.00  0.00    +0.000 C 
ENDBRANCH  15  16
ENDBRANCH   4  15
TORSDOF 5
