MODEL 4394
MODEL 1
REMARK VINA RESULT:    -6.437      0.000      0.000
REMARK INTER + INTRA:          -9.220
REMARK INTER:                  -8.319
REMARK INTRA:                  -0.901
REMARK UNBOUND:                -0.901
REMARK  Name = No_4394-gen_results/8p0m/2024-11-26-14-13-15/
REMARK  5 active torsions:
REMARK  status: ('A' for Active; 'I' for Inactive)
REMARK    1  A    between atoms: C_1  and  C_2
REMARK    2  A    between atoms: C_1  and  C_8
REMARK    3  A    between atoms: C_5  and  C_10
REMARK    4  A    between atoms: C_8  and  C_9
REMARK    5  A    between atoms: C_10  and  C_11
REMARK                            x       y       z     vdW  Elec       q    Type
REMARK                         _______ _______ _______ _____ _____    ______ ____
ROOT
ATOM      1  C   UNL A   1     -24.253  -2.741  29.507  0.00  0.00    -0.022 A 
ATOM      2  C   UNL A   1     -24.402  -4.068  29.157  0.00  0.00    -0.005 A 
ATOM      3  C   UNL A   1     -25.641  -4.700  29.250  0.00  0.00    -0.005 A 
ATOM      4  C   UNL A   1     -26.774  -4.085  29.926  0.00  0.00    -0.022 A 
ATOM      5  C   UNL A   1     -26.587  -2.754  30.333  0.00  0.00    -0.005 A 
ATOM      6  C   UNL A   1     -25.407  -2.134  30.056  0.00  0.00    -0.005 A 
ENDROOT
BRANCH   1   7
ATOM      7  C   UNL A   1     -23.406  -2.016  29.039  0.00  0.00    +0.031 C 
BRANCH   7   8
ATOM      8  C   UNL A   1     -24.027  -0.855  28.292  0.00  0.00    +0.031 C 
BRANCH   8   9
ATOM      9  C   UNL A   1     -23.393   0.417  28.333  0.00  0.00    -0.022 A 
ATOM     10  C   UNL A   1     -22.118   0.386  28.529  0.00  0.00    -0.004 A 
ATOM     11  C   UNL A   1     -21.493   1.073  27.905  0.00  0.00    -0.000 A 
ATOM     12  C   UNL A   1     -22.062   1.891  27.051  0.00  0.00    -0.000 A 
ATOM     13  C   UNL A   1     -23.331   2.126  26.776  0.00  0.00    -0.000 A 
ATOM     14  C   UNL A   1     -23.856   0.884  26.975  0.00  0.00    -0.004 A 
ENDBRANCH   8   9
ENDBRANCH   7   8
ENDBRANCH   1   7
BRANCH   4  15
ATOM     15  C   UNL A   1     -27.988  -4.827  30.229  0.00  0.00    +0.026 C 
BRANCH  15  16
ATOM     16  C   UNL A   1     -29.047  -4.266  30.793  0.00  0.00    +0.005 C 
ATOM     17  C   UNL A   1     -30.073  -4.868  30.374  0.00  0.00    +0.000 C 
ENDBRANCH  15  16
ENDBRANCH   4  15
TORSDOF 5
ENDMDL
ENDMDL
