MODEL 4395
MODEL 1
REMARK VINA RESULT:    -6.640      0.000      0.000
REMARK INTER + INTRA:          -8.201
REMARK INTER:                  -7.416
REMARK INTRA:                  -0.785
REMARK UNBOUND:                -0.785
REMARK  Name = No_4395-gen_results/8p0m/2024-11-26-14-13-15/
REMARK  2 active torsions:
REMARK  status: ('A' for Active; 'I' for Inactive)
REMARK    1  A    between atoms: C_4  and  C_9
REMARK    2  A    between atoms: C_12  and  C_15
REMARK                            x       y       z     vdW  Elec       q    Type
REMARK                         _______ _______ _______ _____ _____    ______ ____
ROOT
ATOM      1  C   UNL A   1     -31.726 -13.586   9.081  0.00  0.00    -0.000 A 
ATOM      2  C   UNL A   1     -31.530 -14.486   8.571  0.00  0.00    -0.000 A 
ATOM      3  C   UNL A   1     -31.145 -13.458  10.388  0.00  0.00    -0.000 A 
ATOM      4  C   UNL A   1     -31.176 -12.170  11.110  0.00  0.00    -0.000 A 
ATOM      5  C   UNL A   1     -31.030 -12.080  12.446  0.00  0.00    -0.000 A 
ATOM      6  C   UNL A   1     -31.016 -15.751   9.077  0.00  0.00    -0.000 A 
ATOM      7  C   UNL A   1     -30.508 -15.680  10.324  0.00  0.00    -0.000 A 
ATOM      8  C   UNL A   1     -30.528 -14.484  11.036  0.00  0.00    -0.004 A 
ATOM      9  C   UNL A   1     -30.271 -12.958  13.097  0.00  0.00    -0.004 A 
ATOM     10  C   UNL A   1     -30.084 -14.271  12.395  0.00  0.00    -0.022 A 
ATOM     11  C   UNL A   1     -29.547 -15.434  13.157  0.00  0.00    +0.031 C 
ENDROOT
BRANCH   4  12
ATOM     12  C   UNL A   1     -30.208 -11.113  10.508  0.00  0.00    +0.000 A 
ATOM     13  C   UNL A   1     -28.956 -11.509  10.188  0.00  0.00    +0.000 A 
ATOM     14  C   UNL A   1     -27.966 -10.639   9.705  0.00  0.00    +0.002 A 
ATOM     15  C   UNL A   1     -28.344  -9.355   9.361  0.00  0.00    +0.021 A 
ATOM     16  C   UNL A   1     -29.696  -8.939   9.499  0.00  0.00    +0.002 A 
ATOM     17  C   UNL A   1     -30.632  -9.857  10.101  0.00  0.00    +0.000 A 
BRANCH  15  18
ATOM     18  C   UNL A   1     -27.544  -8.282   8.743  0.00  0.00    +0.122 C 
ATOM     19  N   UNL A   1     -27.796  -7.056   9.214  0.00  0.00    -0.146 NA
ENDBRANCH  15  18
ENDBRANCH   4  12
TORSDOF 2
ENDMDL
ENDMDL
