REMARK  Name = No_4396-gen_results/8p0m/2024-11-26-14-13-15/
REMARK  7 active torsions:
REMARK  status: ('A' for Active; 'I' for Inactive)
REMARK    1  A    between atoms: C_5  and  C_8
REMARK    2  A    between atoms: C_13  and  N_14
REMARK    3  A    between atoms: N_14  and  C_16
REMARK    4  A    between atoms: C_17  and  C_18
REMARK    5  A    between atoms: C_18  and  C_19
REMARK    6  A    between atoms: C_20  and  C_21
REMARK    7  A    between atoms: C_22  and  C_23
REMARK                            x       y       z     vdW  Elec       q    Type
REMARK                         _______ _______ _______ _____ _____    ______ ____
ROOT
ATOM      1  C   UNL A   1     -23.512   0.171  28.360  0.00  0.00    +0.014 A 
ATOM      2  C   UNL A   1     -22.677  -0.428  29.363  0.00  0.00    +0.001 A 
ATOM      3  C   UNL A   1     -21.307  -0.575  29.070  0.00  0.00    +0.000 A 
ATOM      4  C   UNL A   1     -20.652   0.370  28.285  0.00  0.00    +0.001 A 
ATOM      5  C   UNL A   1     -21.447   1.261  27.503  0.00  0.00    +0.015 A 
ATOM      6  C   UNL A   1     -22.872   1.258  27.595  0.00  0.00    +0.052 A 
ENDROOT
BRANCH   1  11
ATOM      7  F   UNL A   1     -28.073  -1.254  28.532  0.00  0.00    -0.204 F 
ATOM      8  C   UNL A   1     -27.359  -0.379  28.722  0.00  0.00    +0.140 A 
ATOM      9  C   UNL A   1     -27.701   0.761  29.125  0.00  0.00    +0.030 A 
ATOM     10  C   UNL A   1     -25.884  -0.692  28.437  0.00  0.00    +0.030 A 
ATOM     11  C   UNL A   1     -24.921   0.378  28.601  0.00  0.00    +0.003 A 
ATOM     12  C   UNL A   1     -26.691   1.870  29.270  0.00  0.00    +0.002 A 
ATOM     13  C   UNL A   1     -25.345   1.625  29.001  0.00  0.00    +0.000 A 
ENDBRANCH   1  11
BRANCH   6  14
ATOM     14  N   UNL A   1     -23.407   2.233  26.775  0.00  0.00    -0.284 N 
ATOM     15  C   UNL A   1     -23.579   2.157  25.482  0.00  0.00    +0.117 C 
BRANCH  14  16
ATOM     16  C   UNL A   1     -23.838   3.508  27.384  0.00  0.00    +0.061 C 
ATOM     17  C   UNL A   1     -24.616   4.387  26.605  0.00  0.00    -0.005 C 
BRANCH  17  18
ATOM     18  C   UNL A   1     -25.739   4.553  26.848  0.00  0.00    +0.053 C 
BRANCH  18  19
ATOM     19  C   UNL A   1     -26.748   3.840  26.834  0.00  0.00    -0.021 C 
ATOM     20  C   UNL A   1     -27.827   4.021  26.413  0.00  0.00    -0.004 C 
BRANCH  20  21
ATOM     21  C   UNL A   1     -28.948   3.011  26.220  0.00  0.00    -0.000 C 
ATOM     22  C   UNL A   1     -30.221   3.381  26.180  0.00  0.00    -0.000 C 
BRANCH  22  23
ATOM     23  C   UNL A   1     -30.504   4.791  25.946  0.00  0.00    -0.000 C 
ATOM     24  C   UNL A   1     -29.558   5.732  26.031  0.00  0.00    -0.000 C 
ENDBRANCH  22  23
ENDBRANCH  20  21
ENDBRANCH  18  19
ENDBRANCH  17  18
ENDBRANCH  14  16
ENDBRANCH   6  14
TORSDOF 7
