MODEL 4396
MODEL 1
REMARK VINA RESULT:    -7.179      0.000      0.000
REMARK INTER + INTRA:         -12.655
REMARK INTER:                 -10.117
REMARK INTRA:                  -2.538
REMARK UNBOUND:                -2.538
REMARK  Name = No_4396-gen_results/8p0m/2024-11-26-14-13-15/
REMARK  7 active torsions:
REMARK  status: ('A' for Active; 'I' for Inactive)
REMARK    1  A    between atoms: C_5  and  C_8
REMARK    2  A    between atoms: C_13  and  N_14
REMARK    3  A    between atoms: N_14  and  C_16
REMARK    4  A    between atoms: C_17  and  C_18
REMARK    5  A    between atoms: C_18  and  C_19
REMARK    6  A    between atoms: C_20  and  C_21
REMARK    7  A    between atoms: C_22  and  C_23
REMARK                            x       y       z     vdW  Elec       q    Type
REMARK                         _______ _______ _______ _____ _____    ______ ____
ROOT
ATOM      1  C   UNL A   1     -25.960  -0.827  29.679  0.00  0.00    +0.014 A 
ATOM      2  C   UNL A   1     -26.498  -0.041  28.605  0.00  0.00    +0.001 A 
ATOM      3  C   UNL A   1     -26.655   1.342  28.822  0.00  0.00    +0.000 A 
ATOM      4  C   UNL A   1     -25.752   2.033  29.627  0.00  0.00    +0.001 A 
ATOM      5  C   UNL A   1     -24.911   1.275  30.496  0.00  0.00    +0.015 A 
ATOM      6  C   UNL A   1     -24.915  -0.153  30.473  0.00  0.00    +0.052 A 
ENDROOT
BRANCH   1  11
ATOM      7  F   UNL A   1     -23.547  -4.632  28.079  0.00  0.00    -0.204 F 
ATOM      8  C   UNL A   1     -24.451  -4.288  28.691  0.00  0.00    +0.140 A 
ATOM      9  C   UNL A   1     -25.286  -5.050  29.241  0.00  0.00    +0.030 A 
ATOM     10  C   UNL A   1     -24.597  -2.765  28.805  0.00  0.00    +0.030 A 
ATOM     11  C   UNL A   1     -25.747  -2.247  29.519  0.00  0.00    +0.003 A 
ATOM     12  C   UNL A   1     -26.488  -4.496  29.961  0.00  0.00    +0.002 A 
ATOM     13  C   UNL A   1     -26.662  -3.117  30.067  0.00  0.00    +0.000 A 
ENDBRANCH   1  11
BRANCH   6  14
ATOM     14  N   UNL A   1     -23.991  -0.649  31.372  0.00  0.00    -0.284 N 
ATOM     15  C   UNL A   1     -24.237  -1.113  32.568  0.00  0.00    +0.117 C 
BRANCH  14  16
ATOM     16  C   UNL A   1     -22.567  -0.673  30.978  0.00  0.00    +0.061 C 
ATOM     17  C   UNL A   1     -22.258  -0.820  29.612  0.00  0.00    -0.005 C 
BRANCH  17  18
ATOM     18  C   UNL A   1     -21.817   0.068  29.008  0.00  0.00    +0.053 C 
BRANCH  18  19
ATOM     19  C   UNL A   1     -22.283   0.912  28.235  0.00  0.00    -0.021 C 
ATOM     20  C   UNL A   1     -23.070   0.829  27.371  0.00  0.00    -0.004 C 
BRANCH  20  21
ATOM     21  C   UNL A   1     -23.770   1.951  26.619  0.00  0.00    -0.000 C 
ATOM     22  C   UNL A   1     -24.378   1.741  25.459  0.00  0.00    -0.000 C 
BRANCH  22  23
ATOM     23  C   UNL A   1     -24.691   0.363  25.105  0.00  0.00    -0.000 C 
ATOM     24  C   UNL A   1     -25.949  -0.075  24.983  0.00  0.00    -0.000 C 
ENDBRANCH  22  23
ENDBRANCH  20  21
ENDBRANCH  18  19
ENDBRANCH  17  18
ENDBRANCH  14  16
ENDBRANCH   6  14
TORSDOF 7
ENDMDL
ENDMDL
