MODEL 4397
MODEL 1
REMARK VINA RESULT:    -5.592      0.000      0.000
REMARK INTER + INTRA:          -7.696
REMARK INTER:                  -6.900
REMARK INTRA:                  -0.796
REMARK UNBOUND:                -0.796
REMARK  Name = No_4397-gen_results/8p0m/2024-11-26-14-13-15/
REMARK  4 active torsions:
REMARK  status: ('A' for Active; 'I' for Inactive)
REMARK    1  A    between atoms: C_3  and  C_7
REMARK    2  A    between atoms: C_7  and  C_8
REMARK    3  A    between atoms: C_9  and  C_10
REMARK    4  A    between atoms: C_10  and  C_11
REMARK                            x       y       z     vdW  Elec       q    Type
REMARK                         _______ _______ _______ _____ _____    ______ ____
ROOT
ATOM      1  C   UNL A   1     -26.536  -3.548  29.986  0.00  0.00    -0.000 A 
ATOM      2  C   UNL A   1     -25.890  -2.605  29.591  0.00  0.00    -0.004 A 
ATOM      3  C   UNL A   1     -24.662  -2.690  28.957  0.00  0.00    -0.018 A 
ATOM      4  C   UNL A   1     -24.138  -3.996  28.730  0.00  0.00    -0.004 A 
ATOM      5  C   UNL A   1     -24.944  -5.027  29.033  0.00  0.00    -0.000 A 
ATOM      6  C   UNL A   1     -26.108  -4.850  29.588  0.00  0.00    -0.000 A 
ENDROOT
BRANCH   3   7
ATOM      7  C   UNL A   1     -23.832  -1.481  28.611  0.00  0.00    +0.052 C 
BRANCH   7   8
ATOM      8  C   UNL A   1     -22.682  -1.214  29.255  0.00  0.00    -0.026 C 
ATOM      9  C   UNL A   1     -22.385  -0.356  30.128  0.00  0.00    -0.026 C 
BRANCH   9  10
ATOM     10  C   UNL A   1     -23.141  -0.166  31.098  0.00  0.00    +0.052 C 
BRANCH  10  11
ATOM     11  C   UNL A   1     -23.065  -1.152  32.137  0.00  0.00    -0.021 C 
ATOM     12  C   UNL A   1     -23.943  -1.132  33.184  0.00  0.00    -0.005 C 
ENDBRANCH  10  11
ENDBRANCH   9  10
ENDBRANCH   7   8
ENDBRANCH   3   7
TORSDOF 4
ENDMDL
ENDMDL
