REMARK  Name = No_4397-gen_results/8p0m/2024-11-26-14-13-15/
REMARK  4 active torsions:
REMARK  status: ('A' for Active; 'I' for Inactive)
REMARK    1  A    between atoms: C_3  and  C_7
REMARK    2  A    between atoms: C_7  and  C_8
REMARK    3  A    between atoms: C_9  and  C_10
REMARK    4  A    between atoms: C_10  and  C_11
REMARK                            x       y       z     vdW  Elec       q    Type
REMARK                         _______ _______ _______ _____ _____    ______ ____
ROOT
ATOM      1  C   UNL A   1     -28.016  -0.814  28.878  0.00  0.00    -0.000 A 
ATOM      2  C   UNL A   1     -27.064  -0.119  28.608  0.00  0.00    -0.004 A 
ATOM      3  C   UNL A   1     -26.972   0.714  27.506  0.00  0.00    -0.018 A 
ATOM      4  C   UNL A   1     -28.105   0.774  26.642  0.00  0.00    -0.004 A 
ATOM      5  C   UNL A   1     -29.204   0.118  27.048  0.00  0.00    -0.000 A 
ATOM      6  C   UNL A   1     -29.213  -0.609  28.128  0.00  0.00    -0.000 A 
ENDROOT
BRANCH   3   7
ATOM      7  C   UNL A   1     -25.711   1.452  27.138  0.00  0.00    +0.052 C 
BRANCH   7   8
ATOM      8  C   UNL A   1     -25.207   2.413  27.932  0.00  0.00    -0.026 C 
ATOM      9  C   UNL A   1     -25.590   2.879  29.038  0.00  0.00    -0.026 C 
BRANCH   9  10
ATOM     10  C   UNL A   1     -25.943   2.109  29.949  0.00  0.00    +0.052 C 
BRANCH  10  11
ATOM     11  C   UNL A   1     -26.808   2.685  30.938  0.00  0.00    -0.021 C 
ATOM     12  C   UNL A   1     -26.887   4.040  31.092  0.00  0.00    -0.005 C 
ENDBRANCH  10  11
ENDBRANCH   9  10
ENDBRANCH   7   8
ENDBRANCH   3   7
TORSDOF 4
