MODEL 4398
MODEL 1
REMARK VINA RESULT:    -7.578      0.000      0.000
REMARK INTER + INTRA:         -10.576
REMARK INTER:                  -9.793
REMARK INTRA:                  -0.783
REMARK UNBOUND:                -0.783
REMARK  Name = No_4398-gen_results/8p0m/2024-11-26-14-13-15/
REMARK  5 active torsions:
REMARK  status: ('A' for Active; 'I' for Inactive)
REMARK    1  A    between atoms: C_3  and  C_21
REMARK    2  A    between atoms: C_7  and  O_11
REMARK    3  A    between atoms: C_9  and  C_18
REMARK    4  A    between atoms: O_11  and  C_12
REMARK    5  A    between atoms: C_21  and  C_23
REMARK                            x       y       z     vdW  Elec       q    Type
REMARK                         _______ _______ _______ _____ _____    ______ ____
ROOT
ATOM      1  C   UNL A   1      -8.842   0.357  34.879  0.00  0.00    +0.003 A 
ATOM      2  C   UNL A   1      -7.690   0.332  34.514  0.00  0.00    -0.003 A 
ATOM      3  C   UNL A   1      -6.644   0.412  35.427  0.00  0.00    -0.007 A 
ATOM      4  C   UNL A   1      -6.767   0.576  36.490  0.00  0.00    -0.003 A 
ATOM      5  C   UNL A   1      -8.106   0.680  37.131  0.00  0.00    +0.003 A 
ATOM      6  C   UNL A   1      -9.110   0.592  36.290  0.00  0.00    +0.035 A 
ATOM      7  C   UNL A   1     -10.515   0.738  36.675  0.00  0.00    +0.145 A 
ATOM      8  C   UNL A   1     -11.379   1.399  35.845  0.00  0.00    +0.044 A 
ATOM      9  C   UNL A   1     -11.064   1.270  34.447  0.00  0.00    +0.083 A 
ATOM     10  C   UNL A   1      -9.859   0.935  34.002  0.00  0.00    +0.007 A 
ENDROOT
BRANCH   9  11
ATOM     11  C   UNL A   1     -12.224   1.566  33.500  0.00  0.00    +0.388 C 
ATOM     12  O   UNL A   1     -12.265   1.137  32.471  0.00  0.00    -0.241 OA
ATOM     13  O   UNL A   1     -12.947   2.682  33.943  0.00  0.00    -0.241 OA
ENDBRANCH   9  11
BRANCH   3  14
ATOM     14  C   UNL A   1      -5.189   0.114  34.845  0.00  0.00    +0.102 C 
ATOM     15 CL   UNL A   1      -4.247   1.141  34.148  0.00  0.00    -0.110 Cl
BRANCH  14  16
ATOM     16  C   UNL A   1      -4.763  -1.310  34.869  0.00  0.00    +0.019 C 
ATOM     17  C   UNL A   1      -5.709  -2.196  34.457  0.00  0.00    +0.002 C 
ATOM     18  C   UNL A   1      -3.486  -1.449  34.196  0.00  0.00    +0.002 C 
ENDBRANCH  14  16
ENDBRANCH   3  14
BRANCH   7  19
ATOM     19  O   UNL A   1     -10.719   0.701  38.018  0.00  0.00    -0.454 OA
BRANCH  19  20
ATOM     20  C   UNL A   1     -11.200  -0.514  38.494  0.00  0.00    +0.145 A 
ATOM     21  C   UNL A   1     -11.402  -1.470  37.708  0.00  0.00    +0.037 A 
ATOM     22  C   UNL A   1     -11.923  -2.725  38.185  0.00  0.00    +0.003 A 
ATOM     23  C   UNL A   1     -12.431  -2.709  39.501  0.00  0.00    +0.000 A 
ATOM     24  C   UNL A   1     -12.330  -1.583  40.299  0.00  0.00    +0.003 A 
ATOM     25  C   UNL A   1     -11.734  -0.468  39.765  0.00  0.00    +0.037 A 
ENDBRANCH  19  20
ENDBRANCH   7  19
TORSDOF 5
ENDMDL
ENDMDL
