REMARK  Name = No_4398-gen_results/8p0m/2024-11-26-14-13-15/
REMARK  5 active torsions:
REMARK  status: ('A' for Active; 'I' for Inactive)
REMARK    1  A    between atoms: C_3  and  C_21
REMARK    2  A    between atoms: C_7  and  O_11
REMARK    3  A    between atoms: C_9  and  C_18
REMARK    4  A    between atoms: O_11  and  C_12
REMARK    5  A    between atoms: C_21  and  C_23
REMARK                            x       y       z     vdW  Elec       q    Type
REMARK                         _______ _______ _______ _____ _____    ______ ____
ROOT
ATOM      1  C   UNL A   1     -28.016  -0.814  28.878  0.00  0.00    +0.003 A 
ATOM      2  C   UNL A   1     -27.064  -0.119  28.608  0.00  0.00    -0.003 A 
ATOM      3  C   UNL A   1     -25.792  -0.430  29.076  0.00  0.00    -0.007 A 
ATOM      4  C   UNL A   1     -25.568  -1.241  29.757  0.00  0.00    -0.003 A 
ATOM      5  C   UNL A   1     -26.611  -2.184  30.244  0.00  0.00    +0.003 A 
ATOM      6  C   UNL A   1     -27.819  -1.919  29.803  0.00  0.00    +0.035 A 
ATOM      7  C   UNL A   1     -29.016  -2.662  30.202  0.00  0.00    +0.145 A 
ATOM      8  C   UNL A   1     -30.192  -1.992  30.406  0.00  0.00    +0.044 A 
ATOM      9  C   UNL A   1     -30.355  -0.828  29.576  0.00  0.00    +0.083 A 
ATOM     10  C   UNL A   1     -29.339  -0.202  28.995  0.00  0.00    +0.007 A 
ENDROOT
BRANCH   9  11
ATOM     11  C   UNL A   1     -31.796  -0.349  29.422  0.00  0.00    +0.388 C 
ATOM     12  O   UNL A   1     -32.390   0.013  30.293  0.00  0.00    -0.241 OA
ATOM     13  O   UNL A   1     -32.330  -0.785  28.201  0.00  0.00    -0.241 OA
ENDBRANCH   9  11
BRANCH   3  14
ATOM     14  C   UNL A   1     -24.594   0.414  28.444  0.00  0.00    +0.102 C 
ATOM     15 CL   UNL A   1     -24.574   1.069  27.030  0.00  0.00    -0.110 Cl
BRANCH  14  16
ATOM     16  C   UNL A   1     -23.344   0.461  29.246  0.00  0.00    +0.019 C 
ATOM     17  C   UNL A   1     -22.615  -0.687  29.236  0.00  0.00    +0.002 C 
ATOM     18  C   UNL A   1     -22.586   1.648  28.901  0.00  0.00    +0.002 C 
ENDBRANCH  14  16
ENDBRANCH   3  14
BRANCH   7  19
ATOM     19  O   UNL A   1     -28.745  -3.823  30.855  0.00  0.00    -0.454 OA
BRANCH  19  20
ATOM     20  C   UNL A   1     -29.843  -4.659  31.022  0.00  0.00    +0.145 A 
ATOM     21  C   UNL A   1     -30.680  -4.437  31.929  0.00  0.00    +0.037 A 
ATOM     22  C   UNL A   1     -31.809  -5.309  32.127  0.00  0.00    +0.003 A 
ATOM     23  C   UNL A   1     -31.754  -6.537  31.436  0.00  0.00    +0.000 A 
ATOM     24  C   UNL A   1     -30.729  -6.820  30.550  0.00  0.00    +0.003 A 
ATOM     25  C   UNL A   1     -29.751  -5.874  30.375  0.00  0.00    +0.037 A 
ENDBRANCH  19  20
ENDBRANCH   7  19
TORSDOF 5
