MODEL 4399
MODEL 1
REMARK VINA RESULT:    -6.620      0.000      0.000
REMARK INTER + INTRA:          -8.491
REMARK INTER:                  -7.781
REMARK INTRA:                  -0.710
REMARK UNBOUND:                -0.710
REMARK  Name = No_4399-gen_results/8p0m/2024-11-26-14-13-15/
REMARK  3 active torsions:
REMARK  status: ('A' for Active; 'I' for Inactive)
REMARK    1  A    between atoms: C_2  and  C_12
REMARK    2  A    between atoms: C_3  and  C_7
REMARK    3  A    between atoms: C_7  and  C_8
REMARK                            x       y       z     vdW  Elec       q    Type
REMARK                         _______ _______ _______ _____ _____    ______ ____
ROOT
ATOM      1  C   UNL A   1     -25.231  -0.727  27.404  0.00  0.00    +0.011 A 
ATOM      2  C   UNL A   1     -24.923  -1.127  28.503  0.00  0.00    -0.003 A 
ATOM      3  C   UNL A   1     -24.742  -0.292  29.605  0.00  0.00    -0.013 A 
ATOM      4  C   UNL A   1     -24.867   1.143  29.432  0.00  0.00    -0.003 A 
ATOM      5  C   UNL A   1     -25.204   1.561  28.145  0.00  0.00    +0.011 A 
ATOM      6  C   UNL A   1     -25.346   0.701  27.156  0.00  0.00    +0.058 A 
ATOM      7 CL   UNL A   1     -25.708   1.286  25.552  0.00  0.00    -0.082 Cl
ENDROOT
BRANCH   2   8
ATOM      8  C   UNL A   1     -24.865  -2.592  28.793  0.00  0.00    -0.000 A 
ATOM      9  C   UNL A   1     -24.097  -3.203  28.499  0.00  0.00    -0.000 A 
ATOM     10  C   UNL A   1     -26.145  -3.119  29.446  0.00  0.00    -0.000 A 
ATOM     11  C   UNL A   1     -24.030  -4.662  28.636  0.00  0.00    -0.000 A 
ATOM     12  C   UNL A   1     -26.180  -4.441  29.673  0.00  0.00    -0.000 A 
ATOM     13  C   UNL A   1     -25.117  -5.275  29.301  0.00  0.00    -0.000 A 
ENDBRANCH   2   8
BRANCH   3  14
ATOM     14  C   UNL A   1     -24.371  -0.711  30.987  0.00  0.00    +0.105 C 
ATOM     15  C   UNL A   1     -25.397  -0.865  31.938  0.00  0.00    +0.015 C 
BRANCH  14  16
ATOM     16  C   UNL A   1     -23.083  -0.900  31.362  0.00  0.00    +0.277 C 
ATOM     17  N   UNL A   1     -22.680  -1.286  32.213  0.00  0.00    -0.107 NA
ATOM     18  O   UNL A   1     -22.155  -0.569  30.350  0.00  0.00    -0.268 OA
ENDBRANCH  14  16
ENDBRANCH   3  14
TORSDOF 3
ENDMDL
ENDMDL
