REMARK  Name = No_4399-gen_results/8p0m/2024-11-26-14-13-15/
REMARK  3 active torsions:
REMARK  status: ('A' for Active; 'I' for Inactive)
REMARK    1  A    between atoms: C_2  and  C_12
REMARK    2  A    between atoms: C_3  and  C_7
REMARK    3  A    between atoms: C_7  and  C_8
REMARK                            x       y       z     vdW  Elec       q    Type
REMARK                         _______ _______ _______ _____ _____    ______ ____
ROOT
ATOM      1  C   UNL A   1     -28.016  -0.814  28.878  0.00  0.00    +0.011 A 
ATOM      2  C   UNL A   1     -27.064  -0.119  28.608  0.00  0.00    -0.003 A 
ATOM      3  C   UNL A   1     -25.765  -0.390  29.036  0.00  0.00    -0.013 A 
ATOM      4  C   UNL A   1     -25.530  -1.530  29.901  0.00  0.00    -0.003 A 
ATOM      5  C   UNL A   1     -26.658  -2.292  30.203  0.00  0.00    +0.011 A 
ATOM      6  C   UNL A   1     -27.855  -1.956  29.763  0.00  0.00    +0.058 A 
ATOM      7 CL   UNL A   1     -29.240  -2.912  30.223  0.00  0.00    -0.082 Cl
ENDROOT
BRANCH   2   8
ATOM      8  C   UNL A   1     -27.198   1.019  27.648  0.00  0.00    -0.000 A 
ATOM      9  C   UNL A   1     -27.699   1.888  27.858  0.00  0.00    -0.000 A 
ATOM     10  C   UNL A   1     -26.637   0.695  26.262  0.00  0.00    -0.000 A 
ATOM     11  C   UNL A   1     -27.979   2.989  26.930  0.00  0.00    -0.000 A 
ATOM     12  C   UNL A   1     -26.785   1.655  25.336  0.00  0.00    -0.000 A 
ATOM     13  C   UNL A   1     -27.442   2.858  25.628  0.00  0.00    -0.000 A 
ENDBRANCH   2   8
BRANCH   3  14
ATOM     14  C   UNL A   1     -24.544   0.413  28.738  0.00  0.00    +0.105 C 
ATOM     15  C   UNL A   1     -23.816   0.117  27.571  0.00  0.00    +0.015 C 
BRANCH  14  16
ATOM     16  C   UNL A   1     -24.095   1.379  29.575  0.00  0.00    +0.277 C 
ATOM     17  N   UNL A   1     -23.368   2.082  29.462  0.00  0.00    -0.107 NA
ATOM     18  O   UNL A   1     -24.829   1.458  30.779  0.00  0.00    -0.268 OA
ENDBRANCH  14  16
ENDBRANCH   3  14
TORSDOF 3
