MODEL 439
MODEL 1
REMARK VINA RESULT:    -9.177      0.000      0.000
REMARK INTER + INTRA:         -10.598
REMARK INTER:                  -9.713
REMARK INTRA:                  -0.885
REMARK UNBOUND:                -0.885
REMARK  Name = No_439-gen_results/8p0m/2024-11-26-14-13-15/
REMARK  1 active torsions:
REMARK  status: ('A' for Active; 'I' for Inactive)
REMARK    1  A    between atoms: C_16  and  C_18
REMARK                            x       y       z     vdW  Elec       q    Type
REMARK                         _______ _______ _______ _____ _____    ______ ____
ROOT
ATOM      1  C   UNL A   1     -14.742   2.932  38.856  0.00  0.00    +0.004 A 
ATOM      2  C   UNL A   1     -15.647   3.082  38.337  0.00  0.00    +0.050 A 
ATOM      3  C   UNL A   1     -13.523   2.826  38.038  0.00  0.00    -0.004 A 
ATOM      4  C   UNL A   1     -13.571   3.060  36.633  0.00  0.00    -0.001 A 
ATOM      5  C   UNL A   1     -15.959   3.408  36.919  0.00  0.00    -0.016 A 
ATOM      6  C   UNL A   1     -14.854   3.310  36.127  0.00  0.00    -0.004 A 
ATOM      7  C   UNL A   1     -16.988   3.221  39.189  0.00  0.00    +0.249 C 
ATOM      8  O   UNL A   1     -16.964   2.703  40.178  0.00  0.00    -0.270 OA
ATOM      9  N   UNL A   1     -18.060   3.987  38.714  0.00  0.00    -0.277 N 
ATOM     10  C   UNL A   1     -19.213   4.115  39.548  0.00  0.00    +0.094 C 
ATOM     11  C   UNL A   1     -12.415   2.960  35.787  0.00  0.00    -0.000 A 
ATOM     12  C   UNL A   1     -11.260   2.433  36.148  0.00  0.00    -0.000 A 
ATOM     13  C   UNL A   1     -10.166   2.196  35.216  0.00  0.00    -0.000 A 
ATOM     14  C   UNL A   1      -9.679   0.950  35.086  0.00  0.00    -0.000 A 
ATOM     15  C   UNL A   1      -9.768  -0.014  36.151  0.00  0.00    -0.000 A 
ATOM     16  C   UNL A   1     -10.780   0.227  37.150  0.00  0.00    -0.000 A 
ATOM     17  C   UNL A   1     -11.493   1.341  37.126  0.00  0.00    -0.004 A 
ATOM     18  C   UNL A   1     -19.907   5.094  39.305  0.00  0.00    +0.022 C 
ATOM     19  C   UNL A   1     -19.771   5.936  38.111  0.00  0.00    +0.004 C 
ATOM     20  C   UNL A   1     -18.604   5.780  37.336  0.00  0.00    +0.020 C 
ATOM     21  C   UNL A   1     -17.715   4.907  37.689  0.00  0.00    +0.080 C 
ATOM     22  C   UNL A   1     -16.683   4.586  36.741  0.00  0.00    +0.046 C 
ATOM     23  C   UNL A   1     -12.302   1.966  38.345  0.00  0.00    -0.022 A 
ATOM     24  C   UNL A   1     -11.372   2.826  39.218  0.00  0.00    +0.031 C 
ENDROOT
BRANCH  16  25
ATOM     25  C   UNL A   1     -10.994  -0.818  38.153  0.00  0.00    -0.000 A 
ATOM     26  C   UNL A   1     -11.774  -1.661  38.137  0.00  0.00    -0.000 A 
ATOM     27  C   UNL A   1     -10.054  -0.610  39.293  0.00  0.00    -0.000 A 
ATOM     28  C   UNL A   1     -10.324  -1.120  40.509  0.00  0.00    -0.000 A 
ATOM     29  C   UNL A   1     -12.084  -2.469  39.356  0.00  0.00    -0.000 A 
ATOM     30  C   UNL A   1     -11.284  -2.234  40.471  0.00  0.00    +0.000 A 
ENDBRANCH  16  25
TORSDOF 1
ENDMDL
ENDMDL
