MODEL 43
MODEL 1
REMARK VINA RESULT:    -7.312      0.000      0.000
REMARK INTER + INTRA:          -9.511
REMARK INTER:                  -9.022
REMARK INTRA:                  -0.490
REMARK UNBOUND:                -0.490
REMARK  Name = No_43-gen_results/8p0m/2024-11-26-14-13-15/
REMARK  4 active torsions:
REMARK  status: ('A' for Active; 'I' for Inactive)
REMARK    1  A    between atoms: C_2  and  C_5
REMARK    2  A    between atoms: C_3  and  C_10
REMARK    3  A    between atoms: C_10  and  O_11
REMARK    4  A    between atoms: O_11  and  C_13
REMARK                            x       y       z     vdW  Elec       q    Type
REMARK                         _______ _______ _______ _____ _____    ______ ____
ROOT
ATOM      1  C   UNL A   1     -23.623   0.936  28.261  0.00  0.00    +0.013 A 
ATOM      2  C   UNL A   1     -22.983   1.505  27.645  0.00  0.00    +0.080 A 
ATOM      3  C   UNL A   1     -22.909   0.013  29.151  0.00  0.00    +0.076 A 
ATOM      4  C   UNL A   1     -21.598  -0.209  29.050  0.00  0.00    +0.006 A 
ATOM      5  C   UNL A   1     -20.900   0.553  28.164  0.00  0.00    +0.000 A 
ATOM      6  C   UNL A   1     -21.587   1.445  27.418  0.00  0.00    +0.007 A 
ENDROOT
BRANCH   2   7
ATOM      7  C   UNL A   1     -23.616   2.578  26.656  0.00  0.00    +0.388 C 
ATOM      8  O   UNL A   1     -24.251   3.347  26.872  0.00  0.00    -0.241 OA
ATOM      9  O   UNL A   1     -23.016   2.563  25.382  0.00  0.00    -0.241 OA
ENDBRANCH   2   7
BRANCH   3  10
ATOM     10  C   UNL A   1     -23.784  -0.779  30.161  0.00  0.00    +0.346 C 
ATOM     11  O   UNL A   1     -23.344  -1.003  31.314  0.00  0.00    -0.244 OA
BRANCH  10  12
ATOM     12  O   UNL A   1     -24.847  -1.218  29.857  0.00  0.00    -0.421 OA
BRANCH  12  13
ATOM     13  C   UNL A   1     -25.026  -2.564  29.388  0.00  0.00    +0.149 A 
ATOM     14  C   UNL A   1     -23.888  -3.232  28.917  0.00  0.00    +0.038 A 
ATOM     15  C   UNL A   1     -24.020  -4.604  28.569  0.00  0.00    +0.003 A 
ATOM     16  C   UNL A   1     -25.150  -5.301  28.986  0.00  0.00    +0.000 A 
ATOM     17  C   UNL A   1     -26.165  -4.595  29.674  0.00  0.00    +0.003 A 
ATOM     18  C   UNL A   1     -26.057  -3.265  29.881  0.00  0.00    +0.038 A 
ENDBRANCH  12  13
ENDBRANCH  10  12
ENDBRANCH   3  10
TORSDOF 4
ENDMDL
ENDMDL
