REMARK  Name = No_440-gen_results/8p0m/2024-11-26-14-13-15/
REMARK  2 active torsions:
REMARK  status: ('A' for Active; 'I' for Inactive)
REMARK    1  A    between atoms: C_6  and  C_10
REMARK    2  A    between atoms: C_10  and  C_11
REMARK                            x       y       z     vdW  Elec       q    Type
REMARK                         _______ _______ _______ _____ _____    ______ ____
ROOT
ATOM      1  C   UNL A   1     -28.016  -0.814  28.878  0.00  0.00    +0.060 A 
ATOM      2  C   UNL A   1     -28.469  -0.785  29.829  0.00  0.00    +0.142 A 
ATOM      3  C   UNL A   1     -27.087   0.290  28.638  0.00  0.00    +0.148 A 
ATOM      4  C   UNL A   1     -26.832   1.249  29.587  0.00  0.00    +0.059 A 
ATOM      5  C   UNL A   1     -28.391   0.080  31.006  0.00  0.00    +0.026 A 
ATOM      6  C   UNL A   1     -27.494   1.152  30.784  0.00  0.00    -0.007 A 
ATOM      7  F   UNL A   1     -26.406   0.354  27.487  0.00  0.00    -0.204 F 
ATOM      8 BR   UNL A   1     -25.651   2.646  29.286  0.00  0.00    -0.047 Br
ATOM      9  F   UNL A   1     -29.373  -1.935  30.142  0.00  0.00    -0.204 F 
ENDROOT
BRANCH   6  10
ATOM     10  C   UNL A   1     -27.318   2.172  31.891  0.00  0.00    +0.057 C 
BRANCH  10  11
ATOM     11  C   UNL A   1     -26.434   2.582  32.369  0.00  0.00    +0.021 A 
ATOM     12  C   UNL A   1     -26.275   3.628  33.412  0.00  0.00    -0.001 A 
ATOM     13  C   UNL A   1     -25.154   4.452  33.612  0.00  0.00    -0.000 A 
ATOM     14  C   UNL A   1     -24.119   4.364  32.621  0.00  0.00    +0.003 A 
ATOM     15  C   UNL A   1     -24.095   3.341  31.696  0.00  0.00    +0.042 A 
ATOM     16  C   UNL A   1     -25.153   2.612  31.510  0.00  0.00    +0.192 A 
ATOM     17  O   UNL A   1     -24.569   1.366  31.782  0.00  0.00    -0.287 OA
ENDBRANCH  10  11
ENDBRANCH   6  10
TORSDOF 2
