MODEL 4400
MODEL 1
REMARK VINA RESULT:    -7.262      0.000      0.000
REMARK INTER + INTRA:          -8.587
REMARK INTER:                  -8.111
REMARK INTRA:                  -0.476
REMARK UNBOUND:                -0.476
REMARK  Name = No_4400-gen_results/8p0m/2024-11-26-14-13-15/
REMARK  2 active torsions:
REMARK  status: ('A' for Active; 'I' for Inactive)
REMARK    1  A    between atoms: C_3  and  C_9
REMARK    2  A    between atoms: C_6  and  C_7
REMARK                            x       y       z     vdW  Elec       q    Type
REMARK                         _______ _______ _______ _____ _____    ______ ____
ROOT
ATOM      1  O   UNL A   1     -24.263  -0.645  31.166  0.00  0.00    -0.275 OA
ATOM      2  C   UNL A   1     -24.486  -0.493  29.960  0.00  0.00    +0.229 C 
ATOM      3  C   UNL A   1     -24.667  -1.045  29.098  0.00  0.00    +0.099 C 
ATOM      4  N   UNL A   1     -23.961   0.934  29.500  0.00  0.00    -0.277 N 
ATOM      5  C   UNL A   1     -24.779  -0.771  27.629  0.00  0.00    +0.024 C 
ATOM      6  C   UNL A   1     -24.430   0.587  27.339  0.00  0.00    +0.116 C 
ATOM      7  C   UNL A   1     -23.993   1.470  28.305  0.00  0.00    +0.102 C 
ATOM      8  C   UNL A   1     -23.758   1.716  30.785  0.00  0.00    +0.115 C 
ENDROOT
BRANCH   3   9
ATOM      9  C   UNL A   1     -25.128  -2.563  29.250  0.00  0.00    -0.014 A 
ATOM     10  C   UNL A   1     -25.970  -3.020  29.624  0.00  0.00    -0.004 A 
ATOM     11  C   UNL A   1     -26.284  -4.498  29.662  0.00  0.00    -0.000 A 
ATOM     12  C   UNL A   1     -25.265  -5.365  29.218  0.00  0.00    -0.000 A 
ATOM     13  C   UNL A   1     -24.151  -4.798  28.660  0.00  0.00    -0.000 A 
ATOM     14  C   UNL A   1     -23.980  -3.444  28.611  0.00  0.00    -0.004 A 
ENDBRANCH   3   9
BRANCH   6  15
ATOM     15  C   UNL A   1     -24.437   1.048  25.927  0.00  0.00    +0.399 C 
ATOM     16  F   UNL A   1     -23.407   1.679  25.656  0.00  0.00    -0.170 F 
ATOM     17  F   UNL A   1     -25.464   1.991  25.728  0.00  0.00    -0.170 F 
ATOM     18  F   UNL A   1     -24.666   0.075  25.072  0.00  0.00    -0.170 F 
ENDBRANCH   6  15
TORSDOF 2
ENDMDL
ENDMDL
