REMARK  Name = No_4401-gen_results/8p0m/2024-11-26-14-13-15/
REMARK  2 active torsions:
REMARK  status: ('A' for Active; 'I' for Inactive)
REMARK    1  A    between atoms: C_4  and  C_7
REMARK    2  A    between atoms: C_10  and  C_13
REMARK                            x       y       z     vdW  Elec       q    Type
REMARK                         _______ _______ _______ _____ _____    ______ ____
ROOT
ATOM      1  C   UNL A   1     -24.363  -0.858  29.931  0.00  0.00    -0.000 A 
ATOM      2  C   UNL A   1     -23.736  -1.528  30.458  0.00  0.00    -0.000 A 
ATOM      3  C   UNL A   1     -23.732   0.194  29.049  0.00  0.00    -0.003 A 
ATOM      4  C   UNL A   1     -22.328   0.240  29.001  0.00  0.00    -0.006 A 
ATOM      5  C   UNL A   1     -22.256  -1.563  30.566  0.00  0.00    -0.000 A 
ATOM      6  C   UNL A   1     -21.612  -0.644  29.721  0.00  0.00    -0.003 A 
ENDROOT
BRANCH   1  10
ATOM      7  C   UNL A   1     -28.016  -0.814  28.878  0.00  0.00    -0.000 A 
ATOM      8  C   UNL A   1     -28.469  -0.785  29.829  0.00  0.00    +0.000 A 
ATOM      9  C   UNL A   1     -26.546  -0.876  28.850  0.00  0.00    -0.000 A 
ATOM     10  C   UNL A   1     -25.897  -0.827  29.889  0.00  0.00    -0.000 A 
ATOM     11  C   UNL A   1     -26.494  -0.798  31.174  0.00  0.00    -0.000 A 
ATOM     12  C   UNL A   1     -27.859  -0.758  31.165  0.00  0.00    -0.000 A 
ENDBRANCH   1  10
BRANCH   4  13
ATOM     13  C   UNL A   1     -21.702   1.261  28.119  0.00  0.00    +0.121 C 
ATOM     14 CL   UNL A   1     -22.509   2.120  26.905  0.00  0.00    -0.108 Cl
ENDBRANCH   4  13
TORSDOF 2
