MODEL 4401
MODEL 1
REMARK VINA RESULT:    -7.094      0.000      0.000
REMARK INTER + INTRA:          -8.362
REMARK INTER:                  -7.924
REMARK INTRA:                  -0.438
REMARK UNBOUND:                -0.438
REMARK  Name = No_4401-gen_results/8p0m/2024-11-26-14-13-15/
REMARK  2 active torsions:
REMARK  status: ('A' for Active; 'I' for Inactive)
REMARK    1  A    between atoms: C_4  and  C_7
REMARK    2  A    between atoms: C_10  and  C_13
REMARK                            x       y       z     vdW  Elec       q    Type
REMARK                         _______ _______ _______ _____ _____    ______ ____
ROOT
ATOM      1  C   UNL A   1     -23.690  -1.612  28.915  0.00  0.00    -0.000 A 
ATOM      2  C   UNL A   1     -22.726  -1.429  29.312  0.00  0.00    -0.000 A 
ATOM      3  C   UNL A   1     -24.275  -0.626  27.930  0.00  0.00    -0.003 A 
ATOM      4  C   UNL A   1     -23.505   0.507  27.615  0.00  0.00    -0.006 A 
ATOM      5  C   UNL A   1     -21.829  -0.260  29.135  0.00  0.00    -0.000 A 
ATOM      6  C   UNL A   1     -22.295   0.663  28.184  0.00  0.00    -0.003 A 
ENDROOT
BRANCH   1  10
ATOM      7  C   UNL A   1     -26.560  -3.918  29.866  0.00  0.00    -0.000 A 
ATOM      8  C   UNL A   1     -26.143  -4.840  29.575  0.00  0.00    +0.000 A 
ATOM      9  C   UNL A   1     -25.742  -2.719  29.623  0.00  0.00    -0.000 A 
ATOM     10  C   UNL A   1     -24.608  -2.816  29.167  0.00  0.00    -0.000 A 
ATOM     11  C   UNL A   1     -24.040  -4.050  28.762  0.00  0.00    -0.000 A 
ATOM     12  C   UNL A   1     -24.831  -5.140  28.986  0.00  0.00    -0.000 A 
ENDBRANCH   1  10
BRANCH   4  13
ATOM     13  C   UNL A   1     -24.068   1.470  26.631  0.00  0.00    +0.121 C 
ATOM     14 CL   UNL A   1     -23.156   2.373  25.528  0.00  0.00    -0.108 Cl
ENDBRANCH   4  13
TORSDOF 2
ENDMDL
ENDMDL
