MODEL 4402
MODEL 1
REMARK VINA RESULT:    -7.424      0.000      0.000
REMARK INTER + INTRA:          -8.668
REMARK INTER:                  -8.292
REMARK INTRA:                  -0.376
REMARK UNBOUND:                -0.376
REMARK  Name = No_4402-gen_results/8p0m/2024-11-26-14-13-15/
REMARK  2 active torsions:
REMARK  status: ('A' for Active; 'I' for Inactive)
REMARK    1  A    between atoms: C_2  and  O_7
REMARK    2  A    between atoms: O_7  and  C_8
REMARK                            x       y       z     vdW  Elec       q    Type
REMARK                         _______ _______ _______ _____ _____    ______ ____
ROOT
ATOM      1  C   UNL A   1     -28.111 -12.796   7.159  0.00  0.00    +0.052 A 
ATOM      2  C   UNL A   1     -27.290 -12.164   6.967  0.00  0.00    +0.146 A 
ATOM      3  C   UNL A   1     -28.799 -12.580   8.488  0.00  0.00    +0.051 A 
ATOM      4  C   UNL A   1     -28.411 -11.492   9.299  0.00  0.00    -0.004 A 
ATOM      5  C   UNL A   1     -26.714 -10.961   7.609  0.00  0.00    +0.037 A 
ATOM      6  C   UNL A   1     -27.327 -10.727   8.832  0.00  0.00    +0.000 A 
ATOM      7  C   UNL A   1     -29.055 -11.246  10.557  0.00  0.00    +0.055 C 
ATOM      8  C   UNL A   1     -29.927 -12.092  11.108  0.00  0.00    -0.004 A 
ATOM      9  C   UNL A   1     -30.081 -12.309  12.391  0.00  0.00    -0.003 A 
ATOM     10  C   UNL A   1     -30.201 -13.307  13.065  0.00  0.00    -0.001 A 
ATOM     11  C   UNL A   1     -30.002 -14.599  12.410  0.00  0.00    -0.003 A 
ATOM     12  C   UNL A   1     -29.829 -14.646  11.043  0.00  0.00    -0.009 A 
ATOM     13  C   UNL A   1     -29.689 -13.451  10.386  0.00  0.00    +0.044 A 
ATOM     14  N   UNL A   1     -29.480 -13.552   9.082  0.00  0.00    -0.287 N 
ATOM     15  C   UNL A   1     -30.050 -14.584   8.355  0.00  0.00    +0.096 C 
ATOM     16  C   UNL A   1     -30.922 -15.446   8.769  0.00  0.00    +0.026 C 
ATOM     17  C   UNL A   1     -30.673 -15.732  10.368  0.00  0.00    +0.029 C 
ENDROOT
BRANCH   2  18
ATOM     18  O   UNL A   1     -26.616 -12.371   5.676  0.00  0.00    -0.454 OA
BRANCH  18  19
ATOM     19  C   UNL A   1     -25.395 -12.769   5.720  0.00  0.00    +0.145 A 
ATOM     20  C   UNL A   1     -24.398 -12.259   5.040  0.00  0.00    +0.037 A 
ATOM     21  C   UNL A   1     -23.074 -12.740   4.966  0.00  0.00    +0.003 A 
ATOM     22  C   UNL A   1     -22.816 -13.878   5.764  0.00  0.00    +0.000 A 
ATOM     23  C   UNL A   1     -23.819 -14.480   6.478  0.00  0.00    +0.003 A 
ATOM     24  C   UNL A   1     -25.120 -13.984   6.448  0.00  0.00    +0.037 A 
ENDBRANCH  18  19
ENDBRANCH   2  18
TORSDOF 2
ENDMDL
ENDMDL
