REMARK  Name = No_4402-gen_results/8p0m/2024-11-26-14-13-15/
REMARK  2 active torsions:
REMARK  status: ('A' for Active; 'I' for Inactive)
REMARK    1  A    between atoms: C_2  and  O_7
REMARK    2  A    between atoms: O_7  and  C_8
REMARK                            x       y       z     vdW  Elec       q    Type
REMARK                         _______ _______ _______ _____ _____    ______ ____
ROOT
ATOM      1  C   UNL A   1     -28.016  -0.814  28.878  0.00  0.00    +0.052 A 
ATOM      2  C   UNL A   1     -28.469  -0.785  29.829  0.00  0.00    +0.146 A 
ATOM      3  C   UNL A   1     -26.504  -0.778  28.877  0.00  0.00    +0.051 A 
ATOM      4  C   UNL A   1     -25.810  -0.853  30.103  0.00  0.00    -0.004 A 
ATOM      5  C   UNL A   1     -27.991  -0.892  31.226  0.00  0.00    +0.037 A 
ATOM      6  C   UNL A   1     -26.604  -0.868  31.265  0.00  0.00    +0.000 A 
ATOM      7  C   UNL A   1     -24.376  -0.840  30.139  0.00  0.00    +0.055 C 
ATOM      8  C   UNL A   1     -23.622  -0.603  29.064  0.00  0.00    -0.004 A 
ATOM      9  C   UNL A   1     -22.470   0.021  29.057  0.00  0.00    -0.003 A 
ATOM     10  C   UNL A   1     -21.986   0.883  28.358  0.00  0.00    -0.001 A 
ATOM     11  C   UNL A   1     -22.853   1.526  27.372  0.00  0.00    -0.003 A 
ATOM     12  C   UNL A   1     -24.129   1.043  27.174  0.00  0.00    -0.009 A 
ATOM     13  C   UNL A   1     -24.576   0.077  28.038  0.00  0.00    +0.044 A 
ATOM     14  N   UNL A   1     -25.823  -0.321  27.834  0.00  0.00    -0.287 N 
ATOM     15  C   UNL A   1     -26.350  -0.358  26.554  0.00  0.00    +0.096 C 
ATOM     16  C   UNL A   1     -25.717  -0.172  25.440  0.00  0.00    +0.026 C 
ATOM     17  C   UNL A   1     -24.491   0.892  25.693  0.00  0.00    +0.029 C 
ENDROOT
BRANCH   2  18
ATOM     18  O   UNL A   1     -29.939  -0.819  29.836  0.00  0.00    -0.454 OA
BRANCH  18  19
ATOM     19  C   UNL A   1     -30.536  -0.112  28.945  0.00  0.00    +0.145 A 
ATOM     20  C   UNL A   1     -31.450  -0.543  28.111  0.00  0.00    +0.037 A 
ATOM     21  C   UNL A   1     -32.040   0.165  27.042  0.00  0.00    +0.003 A 
ATOM     22  C   UNL A   1     -31.605   1.504  26.912  0.00  0.00    +0.000 A 
ATOM     23  C   UNL A   1     -30.631   2.011  27.731  0.00  0.00    +0.003 A 
ATOM     24  C   UNL A   1     -30.046   1.228  28.724  0.00  0.00    +0.037 A 
ENDBRANCH  18  19
ENDBRANCH   2  18
TORSDOF 2
