REMARK  Name = No_4403-gen_results/8p0m/2024-11-26-14-13-15/
REMARK  4 active torsions:
REMARK  status: ('A' for Active; 'I' for Inactive)
REMARK    1  A    between atoms: C_1  and  C_2
REMARK    2  A    between atoms: C_1  and  N_8
REMARK    3  A    between atoms: C_9  and  C_10
REMARK    4  A    between atoms: C_18  and  C_20
REMARK                            x       y       z     vdW  Elec       q    Type
REMARK                         _______ _______ _______ _____ _____    ______ ____
ROOT
ATOM      1  C   UNL A   1     -27.064  -0.119  28.608  0.00  0.00    +0.008 A 
ATOM      2  C   UNL A   1     -25.792  -0.430  29.076  0.00  0.00    -0.005 A 
ATOM      3  C   UNL A   1     -24.546   0.349  28.823  0.00  0.00    -0.009 A 
ATOM      4  C   UNL A   1     -24.659   1.420  27.888  0.00  0.00    +0.053 A 
ATOM      5  C   UNL A   1     -25.947   1.681  27.379  0.00  0.00    +0.015 A 
ATOM      6  C   UNL A   1     -27.044   0.974  27.687  0.00  0.00    +0.055 A 
ATOM      7  C   UNL A   1     -23.458   2.167  27.588  0.00  0.00    +0.269 C 
ATOM      8  N   UNL A   1     -22.521   1.838  27.189  0.00  0.00    -0.174 NA
ATOM      9  O   UNL A   1     -23.711   3.507  27.564  0.00  0.00    -0.268 OA
ATOM     10  C   UNL A   1     -23.279  -0.060  29.380  0.00  0.00    +0.113 C 
ATOM     11  C   UNL A   1     -21.513   0.896  27.963  0.00  0.00    +0.085 C 
ATOM     12  C   UNL A   1     -21.871   0.424  29.082  0.00  0.00    +0.002 C 
ATOM     13 CL   UNL A   1     -28.536   1.426  26.965  0.00  0.00    -0.083 Cl
ENDROOT
BRANCH  10  14
ATOM     14  C   UNL A   1     -23.342  -1.020  30.482  0.00  0.00    +0.326 C 
ATOM     15  F   UNL A   1     -22.630  -0.676  31.523  0.00  0.00    -0.198 F 
ATOM     16  F   UNL A   1     -23.768  -2.092  30.326  0.00  0.00    -0.198 F 
ENDBRANCH  10  14
BRANCH   1  17
ATOM     17  C   UNL A   1     -28.016  -0.814  28.878  0.00  0.00    +0.121 C 
BRANCH  17  18
ATOM     18  N   UNL A   1     -28.657  -0.553  30.096  0.00  0.00    -0.267 N 
ATOM     19  C   UNL A   1     -29.565  -0.526  30.535  0.00  0.00    +0.321 C 
ATOM     20  O   UNL A   1     -29.957  -0.278  31.804  0.00  0.00    -0.266 OA
ATOM     21  C   UNL A   1     -27.492  -0.366  31.183  0.00  0.00    +0.115 C 
BRANCH  19  22
ATOM     22  C   UNL A   1     -30.716  -0.689  29.709  0.00  0.00    +0.470 C 
ATOM     23  F   UNL A   1     -31.258  -1.639  29.748  0.00  0.00    -0.162 F 
ATOM     24  F   UNL A   1     -31.616   0.385  29.950  0.00  0.00    -0.162 F 
ATOM     25  F   UNL A   1     -30.407  -0.443  28.444  0.00  0.00    -0.162 F 
ENDBRANCH  19  22
ENDBRANCH  17  18
ENDBRANCH   1  17
TORSDOF 4
