REMARK  Name = No_4404-gen_results/8p0m/2024-11-26-14-13-15/
REMARK  1 active torsions:
REMARK  status: ('A' for Active; 'I' for Inactive)
REMARK    1  A    between atoms: C_4  and  C_8
REMARK                            x       y       z     vdW  Elec       q    Type
REMARK                         _______ _______ _______ _____ _____    ______ ____
ROOT
ATOM      1  C   UNL A   1     -28.016  -0.814  28.878  0.00  0.00    +0.011 A 
ATOM      2  C   UNL A   1     -28.469  -0.785  29.829  0.00  0.00    +0.058 A 
ATOM      3  C   UNL A   1     -26.504  -0.778  28.877  0.00  0.00    +0.005 A 
ATOM      4  C   UNL A   1     -25.810  -0.853  30.103  0.00  0.00    +0.071 A 
ATOM      5  C   UNL A   1     -27.991  -0.892  31.226  0.00  0.00    +0.011 A 
ATOM      6  C   UNL A   1     -26.604  -0.868  31.265  0.00  0.00    +0.005 A 
ATOM      7 CL   UNL A   1     -30.294  -0.838  29.835  0.00  0.00    -0.082 Cl
ENDROOT
BRANCH   4   8
ATOM      8  C   UNL A   1     -24.387  -0.921  30.349  0.00  0.00    +0.419 C 
ATOM      9  F   UNL A   1     -23.983  -1.249  31.412  0.00  0.00    -0.166 F 
ATOM     10  F   UNL A   1     -23.772  -1.809  29.411  0.00  0.00    -0.166 F 
ATOM     11  F   UNL A   1     -23.832   0.293  29.921  0.00  0.00    -0.166 F 
ENDBRANCH   4   8
TORSDOF 1
