MODEL 4404
MODEL 1
REMARK VINA RESULT:    -4.989      0.000      0.000
REMARK INTER + INTRA:          -5.427
REMARK INTER:                  -5.281
REMARK INTRA:                  -0.146
REMARK UNBOUND:                -0.146
REMARK  Name = No_4404-gen_results/8p0m/2024-11-26-14-13-15/
REMARK  1 active torsions:
REMARK  status: ('A' for Active; 'I' for Inactive)
REMARK    1  A    between atoms: C_4  and  C_8
REMARK                            x       y       z     vdW  Elec       q    Type
REMARK                         _______ _______ _______ _____ _____    ______ ____
ROOT
ATOM      1  C   UNL A   1     -25.054  -3.941  29.139  0.00  0.00    +0.011 A 
ATOM      2  C   UNL A   1     -25.803  -3.457  29.699  0.00  0.00    +0.058 A 
ATOM      3  C   UNL A   1     -23.824  -3.112  28.844  0.00  0.00    +0.005 A 
ATOM      4  C   UNL A   1     -23.691  -1.838  29.436  0.00  0.00    +0.071 A 
ATOM      5  C   UNL A   1     -25.900  -2.183  30.447  0.00  0.00    +0.011 A 
ATOM      6  C   UNL A   1     -24.783  -1.395  30.205  0.00  0.00    +0.005 A 
ATOM      7 CL   UNL A   1     -27.286  -4.458  30.066  0.00  0.00    -0.082 Cl
ENDROOT
BRANCH   4   8
ATOM      8  C   UNL A   1     -22.585  -0.909  29.375  0.00  0.00    +0.419 C 
ATOM      9  F   UNL A   1     -21.549  -1.248  28.914  0.00  0.00    -0.166 F 
ATOM     10  F   UNL A   1     -22.970   0.258  28.643  0.00  0.00    -0.166 F 
ATOM     11  F   UNL A   1     -22.441  -0.348  30.651  0.00  0.00    -0.166 F 
ENDBRANCH   4   8
TORSDOF 1
ENDMDL
ENDMDL
