MODEL 4405
MODEL 1
REMARK VINA RESULT:    -6.572      0.000      0.000
REMARK INTER + INTRA:          -7.030
REMARK INTER:                  -6.956
REMARK INTRA:                  -0.074
REMARK UNBOUND:                -0.074
REMARK  Name = No_4405-gen_results/8p0m/2024-11-26-14-13-15/
REMARK  1 active torsions:
REMARK  status: ('A' for Active; 'I' for Inactive)
REMARK    1  A    between atoms: C_9  and  C_12
REMARK                            x       y       z     vdW  Elec       q    Type
REMARK                         _______ _______ _______ _____ _____    ______ ____
ROOT
ATOM      1  C   UNL A   1     -30.716  -9.999  29.539  0.00  0.00    +0.000 A 
ATOM      2  C   UNL A   1     -30.552 -10.528  28.642  0.00  0.00    +0.000 A 
ATOM      3  C   UNL A   1     -29.886 -10.299  30.641  0.00  0.00    +0.002 A 
ATOM      4  C   UNL A   1     -28.895 -11.259  30.570  0.00  0.00    +0.028 A 
ATOM      5  C   UNL A   1     -28.744 -11.900  29.352  0.00  0.00    +0.002 A 
ATOM      6  C   UNL A   1     -29.553 -11.548  28.292  0.00  0.00    +0.000 A 
ATOM      7  C   UNL A   1     -29.995  -9.608  31.967  0.00  0.00    +0.000 A 
ATOM      8  C   UNL A   1     -29.249 -10.121  33.042  0.00  0.00    +0.009 A 
ATOM      9  C   UNL A   1     -28.222 -11.027  32.872  0.00  0.00    +0.107 A 
ATOM     10  C   UNL A   1     -28.095 -11.687  31.651  0.00  0.00    +0.146 A 
ATOM     11  F   UNL A   1     -27.171 -12.621  31.549  0.00  0.00    -0.204 F 
ENDROOT
BRANCH   9  12
ATOM     12  C   UNL A   1     -27.415 -11.444  34.092  0.00  0.00    +0.390 C 
ATOM     13  O   UNL A   1     -27.587 -12.489  34.544  0.00  0.00    -0.240 OA
ATOM     14  O   UNL A   1     -26.750 -10.519  34.739  0.00  0.00    -0.240 OA
ENDBRANCH   9  12
TORSDOF 1
ENDMDL
ENDMDL
