REMARK  Name = No_4406-gen_results/8p0m/2024-11-26-14-13-15/
REMARK  4 active torsions:
REMARK  status: ('A' for Active; 'I' for Inactive)
REMARK    1  A    between atoms: C_3  and  C_4
REMARK    2  A    between atoms: C_4  and  C_5
REMARK    3  A    between atoms: C_4  and  C_14
REMARK    4  A    between atoms: C_14  and  C_16
REMARK                            x       y       z     vdW  Elec       q    Type
REMARK                         _______ _______ _______ _____ _____    ______ ____
ROOT
ATOM      1  C   UNL A   1     -27.442   0.510  26.795  0.00  0.00    +0.081 C 
ENDROOT
BRANCH   1   4
ATOM      2  C   UNL A   1     -28.016  -0.814  28.878  0.00  0.00    -0.004 A 
ATOM      3  C   UNL A   1     -28.469  -0.785  29.829  0.00  0.00    -0.000 A 
ATOM      4  C   UNL A   1     -28.196   0.348  28.055  0.00  0.00    -0.015 A 
ATOM      5  C   UNL A   1     -29.470   0.120  30.359  0.00  0.00    -0.000 A 
ATOM      6  C   UNL A   1     -29.102   1.309  28.383  0.00  0.00    -0.004 A 
ATOM      7  C   UNL A   1     -29.747   1.200  29.590  0.00  0.00    -0.000 A 
ENDBRANCH   1   4
BRANCH   1   8
ATOM      8  C   UNL A   1     -26.439   0.833  26.614  0.00  0.00    -0.015 A 
ATOM      9  C   UNL A   1     -25.382   0.540  27.660  0.00  0.00    -0.004 A 
ATOM     10  C   UNL A   1     -24.034   0.963  27.495  0.00  0.00    -0.000 A 
ATOM     11  C   UNL A   1     -23.717   1.602  26.274  0.00  0.00    -0.000 A 
ATOM     12  C   UNL A   1     -24.569   1.823  25.267  0.00  0.00    -0.000 A 
ATOM     13  C   UNL A   1     -25.846   1.385  25.448  0.00  0.00    -0.004 A 
ENDBRANCH   1   8
BRANCH   1  14
ATOM     14  C   UNL A   1     -28.448   0.478  25.827  0.00  0.00    +0.191 C 
ATOM     15  F   UNL A   1     -28.009  -0.091  24.755  0.00  0.00    -0.232 F 
BRANCH  14  16
ATOM     16  C   UNL A   1     -29.812   0.834  25.786  0.00  0.00    +0.011 A 
ATOM     17  C   UNL A   1     -30.529   0.173  25.502  0.00  0.00    -0.002 A 
ATOM     18  C   UNL A   1     -31.877   0.292  25.545  0.00  0.00    -0.000 A 
ATOM     19  C   UNL A   1     -32.350   1.567  25.968  0.00  0.00    -0.000 A 
ATOM     20  C   UNL A   1     -31.473   2.540  26.296  0.00  0.00    -0.000 A 
ATOM     21  C   UNL A   1     -30.103   2.215  26.270  0.00  0.00    -0.002 A 
ENDBRANCH  14  16
ENDBRANCH   1  14
TORSDOF 4
