MODEL 4406
MODEL 1
REMARK VINA RESULT:    -8.393      0.000      0.000
REMARK INTER + INTRA:         -12.196
REMARK INTER:                 -10.356
REMARK INTRA:                  -1.840
REMARK UNBOUND:                -1.840
REMARK  Name = No_4406-gen_results/8p0m/2024-11-26-14-13-15/
REMARK  4 active torsions:
REMARK  status: ('A' for Active; 'I' for Inactive)
REMARK    1  A    between atoms: C_3  and  C_4
REMARK    2  A    between atoms: C_4  and  C_5
REMARK    3  A    between atoms: C_4  and  C_14
REMARK    4  A    between atoms: C_14  and  C_16
REMARK                            x       y       z     vdW  Elec       q    Type
REMARK                         _______ _______ _______ _____ _____    ______ ____
ROOT
ATOM      1  C   UNL A   1     -23.705  -0.572  29.574  0.00  0.00    +0.081 C 
ENDROOT
BRANCH   1   4
ATOM      2  C   UNL A   1     -25.244   0.295  31.391  0.00  0.00    -0.004 A 
ATOM      3  C   UNL A   1     -25.562   0.179  32.389  0.00  0.00    -0.000 A 
ATOM      4  C   UNL A   1     -24.112  -0.492  30.992  0.00  0.00    -0.015 A 
ATOM      5  C   UNL A   1     -24.894  -0.443  33.515  0.00  0.00    -0.000 A 
ATOM      6  C   UNL A   1     -23.350  -1.145  31.911  0.00  0.00    -0.004 A 
ATOM      7  C   UNL A   1     -23.770  -1.136  33.218  0.00  0.00    -0.000 A 
ENDBRANCH   1   4
BRANCH   1   8
ATOM      8  C   UNL A   1     -23.050   0.044  28.996  0.00  0.00    -0.015 A 
ATOM      9  C   UNL A   1     -21.577  -0.312  28.942  0.00  0.00    -0.004 A 
ATOM     10  C   UNL A   1     -20.646   0.479  28.214  0.00  0.00    -0.000 A 
ATOM     11  C   UNL A   1     -21.177   1.567  27.483  0.00  0.00    -0.000 A 
ATOM     12  C   UNL A   1     -22.471   1.898  27.409  0.00  0.00    -0.000 A 
ATOM     13  C   UNL A   1     -23.338   1.107  28.099  0.00  0.00    -0.004 A 
ENDBRANCH   1   8
BRANCH   1  14
ATOM     14  C   UNL A   1     -24.647  -1.449  29.031  0.00  0.00    +0.191 C 
ATOM     15  F   UNL A   1     -25.559  -0.783  28.407  0.00  0.00    -0.232 F 
BRANCH  14  16
ATOM     16  C   UNL A   1     -24.775  -2.850  28.939  0.00  0.00    +0.011 A 
ATOM     17  C   UNL A   1     -24.069  -3.424  28.487  0.00  0.00    -0.002 A 
ATOM     18  C   UNL A   1     -23.956  -4.772  28.437  0.00  0.00    -0.000 A 
ATOM     19  C   UNL A   1     -25.036  -5.484  29.033  0.00  0.00    -0.000 A 
ATOM     20  C   UNL A   1     -26.063  -4.810  29.595  0.00  0.00    -0.000 A 
ATOM     21  C   UNL A   1     -25.977  -3.405  29.627  0.00  0.00    -0.002 A 
ENDBRANCH  14  16
ENDBRANCH   1  14
TORSDOF 4
ENDMDL
ENDMDL
