MODEL 4407
MODEL 1
REMARK VINA RESULT:    -6.719      0.000      0.000
REMARK INTER + INTRA:          -9.436
REMARK INTER:                  -8.290
REMARK INTRA:                  -1.146
REMARK UNBOUND:                -1.146
REMARK  Name = No_4407-gen_results/8p0m/2024-11-26-14-13-15/
REMARK  4 active torsions:
REMARK  status: ('A' for Active; 'I' for Inactive)
REMARK    1  A    between atoms: C_3  and  C_7
REMARK    2  A    between atoms: C_7  and  C_13
REMARK    3  A    between atoms: C_13  and  C_14
REMARK    4  A    between atoms: C_14  and  C_15
REMARK                            x       y       z     vdW  Elec       q    Type
REMARK                         _______ _______ _______ _____ _____    ______ ____
ROOT
ATOM      1  C   UNL A   1     -23.888  -1.129  29.560  0.00  0.00    +0.070 C 
ATOM      2  C   UNL A   1     -22.508  -1.085  29.272  0.00  0.00    +0.011 C 
ATOM      3  C   UNL A   1     -21.976  -0.000  28.888  0.00  0.00    +0.001 C 
ATOM      4  C   UNL A   1     -22.544   0.737  27.923  0.00  0.00    +0.000 C 
ATOM      5  C   UNL A   1     -23.857   0.490  27.668  0.00  0.00    +0.001 C 
ATOM      6  C   UNL A   1     -24.555  -0.458  28.175  0.00  0.00    +0.011 C 
ENDROOT
BRANCH   1   9
ATOM      7  C   UNL A   1     -25.875  -2.698  29.956  0.00  0.00    -0.004 A 
ATOM      8  C   UNL A   1     -26.274  -3.667  29.845  0.00  0.00    -0.000 A 
ATOM      9  C   UNL A   1     -24.560  -2.470  29.494  0.00  0.00    -0.016 A 
ATOM     10  C   UNL A   1     -23.802  -3.473  28.924  0.00  0.00    -0.004 A 
ATOM     11  C   UNL A   1     -25.688  -4.897  29.276  0.00  0.00    -0.000 A 
ATOM     12  C   UNL A   1     -24.428  -4.722  28.822  0.00  0.00    -0.000 A 
ENDBRANCH   1   9
BRANCH   1  13
ATOM     13  C   UNL A   1     -24.091  -0.354  30.759  0.00  0.00    +0.154 C 
ATOM     14  O   UNL A   1     -25.092   0.437  30.761  0.00  0.00    -0.296 OA
BRANCH  13  15
ATOM     15  C   UNL A   1     -23.644  -0.797  31.926  0.00  0.00    +0.065 C 
BRANCH  15  16
ATOM     16  C   UNL A   1     -24.620  -0.573  33.007  0.00  0.00    +0.008 C 
ATOM     17  C   UNL A   1     -24.201  -1.156  34.217  0.00  0.00    +0.001 C 
ENDBRANCH  15  16
ENDBRANCH  13  15
ENDBRANCH   1  13
TORSDOF 4
ENDMDL
ENDMDL
