REMARK  Name = No_4407-gen_results/8p0m/2024-11-26-14-13-15/
REMARK  4 active torsions:
REMARK  status: ('A' for Active; 'I' for Inactive)
REMARK    1  A    between atoms: C_3  and  C_7
REMARK    2  A    between atoms: C_7  and  C_13
REMARK    3  A    between atoms: C_13  and  C_14
REMARK    4  A    between atoms: C_14  and  C_15
REMARK                            x       y       z     vdW  Elec       q    Type
REMARK                         _______ _______ _______ _____ _____    ______ ____
ROOT
ATOM      1  C   UNL A   1     -26.399   0.295  27.228  0.00  0.00    +0.070 C 
ATOM      2  C   UNL A   1     -25.888   1.549  26.833  0.00  0.00    +0.011 C 
ATOM      3  C   UNL A   1     -24.924   1.610  26.012  0.00  0.00    +0.001 C 
ATOM      4  C   UNL A   1     -23.838   0.841  26.174  0.00  0.00    +0.000 C 
ATOM      5  C   UNL A   1     -23.979  -0.241  26.987  0.00  0.00    +0.001 C 
ATOM      6  C   UNL A   1     -25.008  -0.514  27.701  0.00  0.00    +0.011 C 
ENDROOT
BRANCH   1   9
ATOM      7  C   UNL A   1     -28.016  -0.814  28.878  0.00  0.00    -0.004 A 
ATOM      8  C   UNL A   1     -28.469  -0.785  29.829  0.00  0.00    -0.000 A 
ATOM      9  C   UNL A   1     -27.136   0.236  28.535  0.00  0.00    -0.016 A 
ATOM     10  C   UNL A   1     -26.875   1.282  29.398  0.00  0.00    -0.004 A 
ATOM     11  C   UNL A   1     -28.361   0.199  30.924  0.00  0.00    -0.000 A 
ATOM     12  C   UNL A   1     -27.528   1.223  30.636  0.00  0.00    -0.000 A 
ENDBRANCH   1   9
BRANCH   1  13
ATOM     13  C   UNL A   1     -27.060  -0.270  26.078  0.00  0.00    +0.154 C 
ATOM     14  O   UNL A   1     -28.240  -0.718  26.265  0.00  0.00    -0.296 OA
BRANCH  13  15
ATOM     15  C   UNL A   1     -26.727   0.122  24.856  0.00  0.00    +0.065 C 
BRANCH  15  16
ATOM     16  C   UNL A   1     -27.841  -0.045  23.905  0.00  0.00    +0.008 C 
ATOM     17  C   UNL A   1     -29.085   0.212  24.509  0.00  0.00    +0.001 C 
ENDBRANCH  15  16
ENDBRANCH  13  15
ENDBRANCH   1  13
TORSDOF 4
