MODEL 4409
MODEL 1
REMARK VINA RESULT:    -4.337      0.000      0.000
REMARK INTER + INTRA:          -4.337
REMARK INTER:                  -4.337
REMARK INTRA:                   0.000
REMARK UNBOUND:                 0.000
REMARK  Name = No_4409-gen_results/8p0m/2024-11-26-14-13-15/
REMARK  0 active torsions:
REMARK  status: ('A' for Active; 'I' for Inactive)
REMARK                            x       y       z     vdW  Elec       q    Type
REMARK                         _______ _______ _______ _____ _____    ______ ____
ROOT
ATOM      1  C   UNL A   1     -24.960  -5.319  29.040  0.00  0.00    +0.000 A 
ATOM      2  C   UNL A   1     -24.201  -4.666  28.713  0.00  0.00    +0.000 A 
ATOM      3  C   UNL A   1     -26.131  -4.626  29.592  0.00  0.00    +0.000 A 
ATOM      4  C   UNL A   1     -26.142  -3.312  29.823  0.00  0.00    +0.000 A 
ATOM      5  C   UNL A   1     -23.983  -3.248  28.869  0.00  0.00    +0.000 A 
ATOM      6  C   UNL A   1     -25.071  -2.626  29.407  0.00  0.00    +0.000 A 
ENDROOT
TORSDOF 0
ENDMDL
ENDMDL
