MODEL 440
MODEL 1
REMARK VINA RESULT:    -7.312      0.000      0.000
REMARK INTER + INTRA:          -8.652
REMARK INTER:                  -8.167
REMARK INTRA:                  -0.485
REMARK UNBOUND:                -0.485
REMARK  Name = No_440-gen_results/8p0m/2024-11-26-14-13-15/
REMARK  2 active torsions:
REMARK  status: ('A' for Active; 'I' for Inactive)
REMARK    1  A    between atoms: C_6  and  C_10
REMARK    2  A    between atoms: C_10  and  C_11
REMARK                            x       y       z     vdW  Elec       q    Type
REMARK                         _______ _______ _______ _____ _____    ______ ____
ROOT
ATOM      1  C   UNL A   1     -26.338  -4.646  29.586  0.00  0.00    +0.060 A 
ATOM      2  C   UNL A   1     -25.335  -4.685  29.265  0.00  0.00    +0.142 A 
ATOM      3  C   UNL A   1     -26.719  -3.356  30.161  0.00  0.00    +0.148 A 
ATOM      4  C   UNL A   1     -25.838  -2.305  30.244  0.00  0.00    +0.059 A 
ATOM      5  C   UNL A   1     -24.206  -3.757  29.224  0.00  0.00    +0.026 A 
ATOM      6  C   UNL A   1     -24.564  -2.505  29.779  0.00  0.00    -0.007 A 
ATOM      7  F   UNL A   1     -27.977  -3.149  30.569  0.00  0.00    -0.204 F 
ATOM      8 BR   UNL A   1     -26.320  -0.668  30.968  0.00  0.00    -0.047 Br
ATOM      9  F   UNL A   1     -24.925  -5.964  28.607  0.00  0.00    -0.204 F 
ENDROOT
BRANCH   6  10
ATOM     10  C   UNL A   1     -23.498  -1.429  29.851  0.00  0.00    +0.057 C 
BRANCH  10  11
ATOM     11  C   UNL A   1     -22.933  -0.912  29.083  0.00  0.00    +0.021 A 
ATOM     12  C   UNL A   1     -21.474  -0.684  28.920  0.00  0.00    -0.001 A 
ATOM     13  C   UNL A   1     -20.861   0.378  28.233  0.00  0.00    -0.000 A 
ATOM     14  C   UNL A   1     -21.734   1.415  27.761  0.00  0.00    +0.003 A 
ATOM     15  C   UNL A   1     -23.103   1.244  27.732  0.00  0.00    +0.042 A 
ATOM     16  C   UNL A   1     -23.647   0.272  28.399  0.00  0.00    +0.192 A 
ATOM     17  O   UNL A   1     -24.306  -0.343  27.324  0.00  0.00    -0.287 OA
ENDBRANCH  10  11
ENDBRANCH   6  10
TORSDOF 2
ENDMDL
ENDMDL
