MODEL 4410
MODEL 1
REMARK VINA RESULT:    -6.449      0.000      0.000
REMARK INTER + INTRA:          -9.276
REMARK INTER:                  -8.334
REMARK INTRA:                  -0.943
REMARK UNBOUND:                -0.943
REMARK  Name = No_4410-gen_results/8p0m/2024-11-26-14-13-15/
REMARK  5 active torsions:
REMARK  status: ('A' for Active; 'I' for Inactive)
REMARK    1  A    between atoms: C_4  and  C_11
REMARK    2  A    between atoms: C_7  and  C_21
REMARK    3  A    between atoms: C_15  and  C_16
REMARK    4  A    between atoms: C_21  and  O_22
REMARK    5  A    between atoms: O_22  and  C_23
REMARK                            x       y       z     vdW  Elec       q    Type
REMARK                         _______ _______ _______ _____ _____    ______ ____
ROOT
ATOM      1  C   UNL A   1     -24.502  -1.284  29.595  0.00  0.00    -0.001 A 
ATOM      2  C   UNL A   1     -24.843  -0.754  28.563  0.00  0.00    -0.000 A 
ATOM      3  C   UNL A   1     -24.028   0.181  27.933  0.00  0.00    -0.000 A 
ATOM      4  C   UNL A   1     -24.339   0.910  26.670  0.00  0.00    +0.000 A 
ATOM      5  C   UNL A   1     -23.492   1.888  26.043  0.00  0.00    +0.000 A 
ATOM      6  C   UNL A   1     -22.186   1.913  26.606  0.00  0.00    -0.000 A 
ATOM      7  C   UNL A   1     -23.284  -0.812  30.300  0.00  0.00    +0.021 A 
ATOM      8  C   UNL A   1     -22.394   0.046  29.695  0.00  0.00    -0.001 A 
ATOM      9  C   UNL A   1     -22.738   0.635  28.485  0.00  0.00    -0.000 A 
ATOM     10  C   UNL A   1     -21.856   1.470  27.787  0.00  0.00    -0.000 A 
ENDROOT
BRANCH   4  11
ATOM     11  C   UNL A   1     -25.627   0.659  25.954  0.00  0.00    +0.000 A 
ATOM     12  C   UNL A   1     -25.572  -0.093  24.797  0.00  0.00    +0.000 A 
ATOM     13  C   UNL A   1     -26.808  -0.410  24.157  0.00  0.00    +0.000 A 
ATOM     14  C   UNL A   1     -26.378   1.959  25.584  0.00  0.00    +0.005 A 
ATOM     15  C   UNL A   1     -27.799   1.685  25.341  0.00  0.00    +0.055 A 
ATOM     16  C   UNL A   1     -28.018   0.468  24.533  0.00  0.00    +0.005 A 
BRANCH  15  17
ATOM     17  C   UNL A   1     -28.693   2.775  25.331  0.00  0.00    +0.265 C 
ATOM     18  O   UNL A   1     -29.633   2.727  24.598  0.00  0.00    -0.268 OA
ATOM     19  N   UNL A   1     -28.229   3.982  25.826  0.00  0.00    -0.200 NA
ATOM     20  C   UNL A   1     -29.037   5.212  25.779  0.00  0.00    +0.139 C 
ENDBRANCH  15  17
ENDBRANCH   4  11
BRANCH   7  21
ATOM     21  C   UNL A   1     -22.956  -1.457  31.625  0.00  0.00    +0.232 C 
BRANCH  21  22
ATOM     22  O   UNL A   1     -23.256  -0.676  32.658  0.00  0.00    -0.468 OA
BRANCH  22  23
ATOM     23  C   UNL A   1     -24.517  -0.753  33.129  0.00  0.00    +0.173 C 
ATOM     24  C   UNL A   1     -24.575  -0.761  34.336  0.00  0.00    +0.043 C 
ENDBRANCH  22  23
ENDBRANCH  21  22
ENDBRANCH   7  21
TORSDOF 5
ENDMDL
ENDMDL
