REMARK  Name = No_4410-gen_results/8p0m/2024-11-26-14-13-15/
REMARK  5 active torsions:
REMARK  status: ('A' for Active; 'I' for Inactive)
REMARK    1  A    between atoms: C_4  and  C_11
REMARK    2  A    between atoms: C_7  and  C_21
REMARK    3  A    between atoms: C_15  and  C_16
REMARK    4  A    between atoms: C_21  and  O_22
REMARK    5  A    between atoms: O_22  and  C_23
REMARK                            x       y       z     vdW  Elec       q    Type
REMARK                         _______ _______ _______ _____ _____    ______ ____
ROOT
ATOM      1  C   UNL A   1     -28.016  -0.814  28.878  0.00  0.00    -0.001 A 
ATOM      2  C   UNL A   1     -27.064  -0.119  28.608  0.00  0.00    -0.000 A 
ATOM      3  C   UNL A   1     -25.792  -0.430  29.076  0.00  0.00    -0.000 A 
ATOM      4  C   UNL A   1     -24.546   0.349  28.823  0.00  0.00    +0.000 A 
ATOM      5  C   UNL A   1     -23.241   0.022  29.332  0.00  0.00    +0.000 A 
ATOM      6  C   UNL A   1     -23.193  -1.282  29.897  0.00  0.00    -0.000 A 
ATOM      7  C   UNL A   1     -27.870  -1.914  29.864  0.00  0.00    +0.021 A 
ATOM      8  C   UNL A   1     -26.631  -2.326  30.299  0.00  0.00    -0.001 A 
ATOM      9  C   UNL A   1     -25.512  -1.573  29.965  0.00  0.00    -0.000 A 
ATOM     10  C   UNL A   1     -24.217  -1.967  30.325  0.00  0.00    -0.000 A 
ENDROOT
BRANCH   4  11
ATOM     11  C   UNL A   1     -24.591   1.591  27.992  0.00  0.00    +0.000 A 
ATOM     12  C   UNL A   1     -23.643   1.720  26.996  0.00  0.00    +0.000 A 
ATOM     13  C   UNL A   1     -23.735   2.861  26.143  0.00  0.00    +0.000 A 
ATOM     14  C   UNL A   1     -24.508   2.886  28.833  0.00  0.00    +0.005 A 
ATOM     15  C   UNL A   1     -25.029   4.030  28.075  0.00  0.00    +0.055 A 
ATOM     16  C   UNL A   1     -24.566   4.046  26.672  0.00  0.00    +0.005 A 
BRANCH  15  17
ATOM     17  C   UNL A   1     -25.349   5.206  28.784  0.00  0.00    +0.265 C 
ATOM     18  O   UNL A   1     -25.779   5.097  29.891  0.00  0.00    -0.268 OA
ATOM     19  N   UNL A   1     -25.551   6.358  28.044  0.00  0.00    -0.200 NA
ATOM     20  C   UNL A   1     -25.983   7.622  28.663  0.00  0.00    +0.139 C 
ENDBRANCH  15  17
ENDBRANCH   4  11
BRANCH   7  21
ATOM     21  C   UNL A   1     -29.113  -2.693  30.222  0.00  0.00    +0.232 C 
BRANCH  21  22
ATOM     22  O   UNL A   1     -29.354  -2.692  31.529  0.00  0.00    -0.468 OA
BRANCH  22  23
ATOM     23  C   UNL A   1     -30.608  -2.381  31.913  0.00  0.00    +0.173 C 
ATOM     24  C   UNL A   1     -31.326  -3.347  32.025  0.00  0.00    +0.043 C 
ENDBRANCH  22  23
ENDBRANCH  21  22
ENDBRANCH   7  21
TORSDOF 5
