REMARK  Name = No_4411-gen_results/8p0m/2024-11-26-14-13-15/
REMARK  2 active torsions:
REMARK  status: ('A' for Active; 'I' for Inactive)
REMARK    1  A    between atoms: C_2  and  N_7
REMARK    2  A    between atoms: C_8  and  C_10
REMARK                            x       y       z     vdW  Elec       q    Type
REMARK                         _______ _______ _______ _____ _____    ______ ____
ROOT
ATOM      1  N   UNL A   1     -29.977  -0.829  29.850  0.00  0.00    -0.175 NA
ATOM      2  C   UNL A   1     -30.579  -0.123  28.982  0.00  0.00    +0.269 C 
ATOM      3  O   UNL A   1     -31.649  -0.556  28.514  0.00  0.00    -0.268 OA
ENDROOT
BRANCH   1   5
ATOM      4  C   UNL A   1     -28.016  -0.814  28.878  0.00  0.00    +0.017 A 
ATOM      5  C   UNL A   1     -28.469  -0.785  29.829  0.00  0.00    +0.074 A 
ATOM      6  C   UNL A   1     -26.504  -0.778  28.877  0.00  0.00    +0.001 A 
ATOM      7  C   UNL A   1     -25.810  -0.853  30.103  0.00  0.00    +0.000 A 
ATOM      8  C   UNL A   1     -27.991  -0.892  31.226  0.00  0.00    +0.017 A 
ATOM      9  C   UNL A   1     -26.604  -0.868  31.265  0.00  0.00    +0.001 A 
ENDBRANCH   1   5
BRANCH   2  10
ATOM     10  C   UNL A   1     -30.119   1.194  28.494  0.00  0.00    +0.055 A 
ATOM     11  C   UNL A   1     -30.127   1.441  27.332  0.00  0.00    +0.005 A 
ATOM     12  C   UNL A   1     -29.528   2.731  26.850  0.00  0.00    +0.000 A 
ATOM     13  C   UNL A   1     -28.870   3.536  27.791  0.00  0.00    +0.000 A 
ATOM     14  C   UNL A   1     -29.350   1.916  29.459  0.00  0.00    +0.005 A 
ATOM     15  C   UNL A   1     -28.829   3.165  29.087  0.00  0.00    +0.000 A 
ENDBRANCH   2  10
TORSDOF 2
