MODEL 4412
MODEL 1
REMARK VINA RESULT:    -6.781      0.000      0.000
REMARK INTER + INTRA:          -8.527
REMARK INTER:                  -7.574
REMARK INTRA:                  -0.953
REMARK UNBOUND:                -0.953
REMARK  Name = No_4412-gen_results/8p0m/2024-11-26-14-13-15/
REMARK  2 active torsions:
REMARK  status: ('A' for Active; 'I' for Inactive)
REMARK    1  A    between atoms: C_3  and  C_9
REMARK    2  A    between atoms: C_10  and  C_15
REMARK                            x       y       z     vdW  Elec       q    Type
REMARK                         _______ _______ _______ _____ _____    ______ ____
ROOT
ATOM      1  C   UNL A   1     -24.416  -2.462  29.398  0.00  0.00    +0.005 A 
ATOM      2  C   UNL A   1     -25.612  -2.398  30.050  0.00  0.00    +0.071 A 
ATOM      3  C   UNL A   1     -26.486  -3.601  30.140  0.00  0.00    +0.004 A 
ATOM      4  C   UNL A   1     -26.021  -4.777  29.476  0.00  0.00    -0.000 A 
ATOM      5  C   UNL A   1     -24.751  -4.761  28.891  0.00  0.00    -0.000 A 
ATOM      6  C   UNL A   1     -23.955  -3.698  28.848  0.00  0.00    -0.000 A 
ENDROOT
BRANCH   1   9
ATOM      7  C   UNL A   1     -23.123   0.809  28.243  0.00  0.00    +0.012 A 
ATOM      8  C   UNL A   1     -23.205  -0.213  28.883  0.00  0.00    +0.058 A 
ATOM      9  C   UNL A   1     -24.064  -1.223  28.592  0.00  0.00    +0.011 A 
ATOM     10  C   UNL A   1     -24.914  -1.078  27.479  0.00  0.00    +0.012 A 
ATOM     11  C   UNL A   1     -23.894   0.985  27.038  0.00  0.00    +0.012 A 
ATOM     12  C   UNL A   1     -24.792   0.012  26.718  0.00  0.00    +0.058 A 
ATOM     13 CL   UNL A   1     -22.311  -0.588  30.359  0.00  0.00    -0.082 Cl
ATOM     14 CL   UNL A   1     -25.589   0.323  25.218  0.00  0.00    -0.082 Cl
ENDBRANCH   1   9
BRANCH   2  15
ATOM     15  C   UNL A   1     -26.163  -1.196  30.704  0.00  0.00    +0.419 C 
ATOM     16  F   UNL A   1     -26.692  -0.314  29.890  0.00  0.00    -0.166 F 
ATOM     17  F   UNL A   1     -25.217  -0.528  31.469  0.00  0.00    -0.166 F 
ATOM     18  F   UNL A   1     -27.169  -1.506  31.513  0.00  0.00    -0.166 F 
ENDBRANCH   2  15
TORSDOF 2
ENDMDL
ENDMDL
