REMARK  Name = No_4412-gen_results/8p0m/2024-11-26-14-13-15/
REMARK  2 active torsions:
REMARK  status: ('A' for Active; 'I' for Inactive)
REMARK    1  A    between atoms: C_3  and  C_9
REMARK    2  A    between atoms: C_10  and  C_15
REMARK                            x       y       z     vdW  Elec       q    Type
REMARK                         _______ _______ _______ _____ _____    ______ ____
ROOT
ATOM      1  C   UNL A   1     -25.905   2.214  28.594  0.00  0.00    +0.005 A 
ATOM      2  C   UNL A   1     -24.700   2.113  29.225  0.00  0.00    +0.071 A 
ATOM      3  C   UNL A   1     -23.436   2.369  28.480  0.00  0.00    +0.004 A 
ATOM      4  C   UNL A   1     -23.566   2.670  27.090  0.00  0.00    -0.000 A 
ATOM      5  C   UNL A   1     -24.848   2.815  26.550  0.00  0.00    -0.000 A 
ATOM      6  C   UNL A   1     -25.975   2.627  27.227  0.00  0.00    -0.000 A 
ENDROOT
BRANCH   1   9
ATOM      7  C   UNL A   1     -28.016  -0.814  28.878  0.00  0.00    +0.012 A 
ATOM      8  C   UNL A   1     -27.064  -0.119  28.608  0.00  0.00    +0.058 A 
ATOM      9  C   UNL A   1     -26.929   1.171  29.008  0.00  0.00    +0.011 A 
ATOM     10  C   UNL A   1     -27.956   1.741  29.784  0.00  0.00    +0.012 A 
ATOM     11  C   UNL A   1     -29.057  -0.327  29.747  0.00  0.00    +0.012 A 
ATOM     12  C   UNL A   1     -28.983   0.972  30.152  0.00  0.00    +0.058 A 
ATOM     13 CL   UNL A   1     -25.700  -0.579  27.585  0.00  0.00    -0.082 Cl
ATOM     14 CL   UNL A   1     -30.256   1.392  31.241  0.00  0.00    -0.082 Cl
ENDBRANCH   1   9
BRANCH   2  15
ATOM     15  C   UNL A   1     -24.508   1.751  30.642  0.00  0.00    +0.419 C 
ATOM     16  F   UNL A   1     -24.347   2.765  31.458  0.00  0.00    -0.166 F 
ATOM     17  F   UNL A   1     -23.427   0.901  30.830  0.00  0.00    -0.166 F 
ATOM     18  F   UNL A   1     -25.577   1.134  31.131  0.00  0.00    -0.166 F 
ENDBRANCH   2  15
TORSDOF 2
