REMARK  Name = No_4413-gen_results/8p0m/2024-11-26-14-13-15/
REMARK  6 active torsions:
REMARK  status: ('A' for Active; 'I' for Inactive)
REMARK    1  A    between atoms: C_1  and  C_2
REMARK    2  A    between atoms: C_5  and  O_11
REMARK    3  A    between atoms: N_8  and  C_10
REMARK    4  A    between atoms: O_11  and  C_17
REMARK    5  A    between atoms: C_18  and  C_19
REMARK    6  A    between atoms: C_20  and  C_21
REMARK                            x       y       z     vdW  Elec       q    Type
REMARK                         _______ _______ _______ _____ _____    ______ ____
ROOT
ATOM      1  C   UNL A   1     -28.016  -0.814  28.878  0.00  0.00    +0.056 A 
ATOM      2  C   UNL A   1     -28.182   0.428  28.113  0.00  0.00    +0.008 A 
ATOM      3  C   UNL A   1     -27.450   0.643  26.850  0.00  0.00    +0.038 A 
ATOM      4  C   UNL A   1     -26.181   0.036  26.715  0.00  0.00    +0.145 A 
ATOM      5  C   UNL A   1     -25.780  -0.933  27.694  0.00  0.00    +0.038 A 
ATOM      6  C   UNL A   1     -26.557  -1.213  28.741  0.00  0.00    +0.008 A 
ENDROOT
BRANCH   1   7
ATOM      7  C   UNL A   1     -28.469  -0.785  29.829  0.00  0.00    +0.269 C 
ATOM      8  N   UNL A   1     -28.302  -1.978  30.661  0.00  0.00    -0.175 NA
ATOM      9  O   UNL A   1     -29.533  -0.161  30.278  0.00  0.00    -0.268 OA
BRANCH   8  10
ATOM     10  C   UNL A   1     -28.968  -2.635  31.023  0.00  0.00    +0.074 A 
ATOM     11  C   UNL A   1     -29.791  -3.545  30.169  0.00  0.00    +0.017 A 
ATOM     12  C   UNL A   1     -30.510  -4.620  30.798  0.00  0.00    +0.001 A 
ATOM     13  C   UNL A   1     -30.624  -4.699  32.209  0.00  0.00    +0.000 A 
ATOM     14  C   UNL A   1     -29.927  -3.843  33.010  0.00  0.00    +0.001 A 
ATOM     15  C   UNL A   1     -29.120  -2.874  32.504  0.00  0.00    +0.017 A 
ENDBRANCH   8  10
ENDBRANCH   1   7
BRANCH   4  16
ATOM     16  O   UNL A   1     -25.359   0.302  25.668  0.00  0.00    -0.450 OA
BRANCH  16  17
ATOM     17  C   UNL A   1     -24.485   1.285  25.712  0.00  0.00    +0.179 C 
ATOM     18  C   UNL A   1     -24.725   2.478  26.258  0.00  0.00    +0.041 C 
BRANCH  18  19
ATOM     19  C   UNL A   1     -24.155   3.034  27.093  0.00  0.00    +0.003 C 
ATOM     20  C   UNL A   1     -24.691   4.224  27.848  0.00  0.00    +0.000 C 
BRANCH  20  21
ATOM     21  C   UNL A   1     -25.809   4.851  27.247  0.00  0.00    +0.000 C 
ATOM     22  C   UNL A   1     -26.449   4.250  26.218  0.00  0.00    +0.000 C 
ENDBRANCH  20  21
ENDBRANCH  18  19
ENDBRANCH  16  17
ENDBRANCH   4  16
TORSDOF 6
