MODEL 4413
MODEL 1
REMARK VINA RESULT:    -6.489      0.000      0.000
REMARK INTER + INTRA:         -10.052
REMARK INTER:                  -8.764
REMARK INTRA:                  -1.288
REMARK UNBOUND:                -1.288
REMARK  Name = No_4413-gen_results/8p0m/2024-11-26-14-13-15/
REMARK  6 active torsions:
REMARK  status: ('A' for Active; 'I' for Inactive)
REMARK    1  A    between atoms: C_1  and  C_2
REMARK    2  A    between atoms: C_5  and  O_11
REMARK    3  A    between atoms: N_8  and  C_10
REMARK    4  A    between atoms: O_11  and  C_17
REMARK    5  A    between atoms: C_18  and  C_19
REMARK    6  A    between atoms: C_20  and  C_21
REMARK                            x       y       z     vdW  Elec       q    Type
REMARK                         _______ _______ _______ _____ _____    ______ ____
ROOT
ATOM      1  C   UNL A   1     -22.906   0.308  29.447  0.00  0.00    +0.056 A 
ATOM      2  C   UNL A   1     -22.382   0.580  28.102  0.00  0.00    +0.008 A 
ATOM      3  C   UNL A   1     -22.714   1.835  27.400  0.00  0.00    +0.038 A 
ATOM      4  C   UNL A   1     -23.967   2.429  27.673  0.00  0.00    +0.145 A 
ATOM      5  C   UNL A   1     -24.737   1.923  28.773  0.00  0.00    +0.038 A 
ATOM      6  C   UNL A   1     -24.313   0.878  29.485  0.00  0.00    +0.008 A 
ENDROOT
BRANCH   1   7
ATOM      7  C   UNL A   1     -22.725  -0.676  29.776  0.00  0.00    +0.269 C 
ATOM      8  N   UNL A   1     -23.353  -1.744  28.996  0.00  0.00    -0.175 NA
ATOM      9  O   UNL A   1     -22.480  -1.175  30.966  0.00  0.00    -0.268 OA
BRANCH   8  10
ATOM     10  C   UNL A   1     -24.047  -2.426  29.241  0.00  0.00    +0.074 A 
ATOM     11  C   UNL A   1     -25.379  -2.088  29.829  0.00  0.00    +0.017 A 
ATOM     12  C   UNL A   1     -26.387  -3.112  29.891  0.00  0.00    +0.001 A 
ATOM     13  C   UNL A   1     -26.075  -4.466  29.609  0.00  0.00    +0.000 A 
ATOM     14  C   UNL A   1     -24.847  -4.808  29.125  0.00  0.00    +0.001 A 
ATOM     15  C   UNL A   1     -23.870  -3.888  28.913  0.00  0.00    +0.017 A 
ENDBRANCH   8  10
ENDBRANCH   1   7
BRANCH   4  16
ATOM     16  O   UNL A   1     -24.437   3.487  26.965  0.00  0.00    -0.450 OA
BRANCH  16  17
ATOM     17  C   UNL A   1     -25.723   3.645  26.734  0.00  0.00    +0.179 C 
ATOM     18  C   UNL A   1     -26.341   3.237  25.624  0.00  0.00    +0.041 C 
BRANCH  18  19
ATOM     19  C   UNL A   1     -27.246   2.532  25.502  0.00  0.00    +0.003 C 
ATOM     20  C   UNL A   1     -27.157   1.028  25.449  0.00  0.00    +0.000 C 
BRANCH  20  21
ATOM     21  C   UNL A   1     -25.857   0.520  25.214  0.00  0.00    +0.000 C 
ATOM     22  C   UNL A   1     -25.356  -0.452  26.010  0.00  0.00    +0.000 C 
ENDBRANCH  20  21
ENDBRANCH  18  19
ENDBRANCH  16  17
ENDBRANCH   4  16
TORSDOF 6
ENDMDL
ENDMDL
