MODEL 4414
MODEL 1
REMARK VINA RESULT:    -4.911      0.000      0.000
REMARK INTER + INTRA:          -5.834
REMARK INTER:                  -5.773
REMARK INTRA:                  -0.061
REMARK UNBOUND:                -0.061
REMARK  Name = No_4414-gen_results/8p0m/2024-11-26-14-13-15/
REMARK  3 active torsions:
REMARK  status: ('A' for Active; 'I' for Inactive)
REMARK    1  A    between atoms: C_1  and  C_2
REMARK    2  A    between atoms: C_1  and  N_8
REMARK    3  A    between atoms: N_8  and  C_9
REMARK                            x       y       z     vdW  Elec       q    Type
REMARK                         _______ _______ _______ _____ _____    ______ ____
ROOT
ATOM      1  C   UNL A   1     -23.295  -0.450  28.611  0.00  0.00    -0.001 A 
ATOM      2  C   UNL A   1     -22.246   0.406  28.513  0.00  0.00    -0.002 A 
ATOM      3  C   UNL A   1     -22.169   1.537  27.561  0.00  0.00    +0.011 A 
ATOM      4  C   UNL A   1     -23.281   1.714  26.673  0.00  0.00    +0.058 A 
ATOM      5  C   UNL A   1     -24.320   0.760  26.758  0.00  0.00    +0.011 A 
ATOM      6  C   UNL A   1     -24.323  -0.265  27.668  0.00  0.00    -0.002 A 
ATOM      7 CL   UNL A   1     -23.303   2.940  25.546  0.00  0.00    -0.082 Cl
ENDROOT
BRANCH   1   8
ATOM      8  C   UNL A   1     -23.345  -1.371  29.393  0.00  0.00    +0.139 C 
BRANCH   8   9
ATOM      9  N   UNL A   1     -23.456  -2.681  28.937  0.00  0.00    -0.232 NA
BRANCH   9  10
ATOM     10  C   UNL A   1     -24.585  -3.482  28.999  0.00  0.00    +0.081 C 
ATOM     11  C   UNL A   1     -24.438  -4.865  28.859  0.00  0.00    +0.019 C 
ENDBRANCH   9  10
ENDBRANCH   8   9
ENDBRANCH   1   8
TORSDOF 3
ENDMDL
ENDMDL
