REMARK  Name = No_4414-gen_results/8p0m/2024-11-26-14-13-15/
REMARK  3 active torsions:
REMARK  status: ('A' for Active; 'I' for Inactive)
REMARK    1  A    between atoms: C_1  and  C_2
REMARK    2  A    between atoms: C_1  and  N_8
REMARK    3  A    between atoms: N_8  and  C_9
REMARK                            x       y       z     vdW  Elec       q    Type
REMARK                         _______ _______ _______ _____ _____    ______ ____
ROOT
ATOM      1  C   UNL A   1     -27.064  -0.119  28.608  0.00  0.00    -0.001 A 
ATOM      2  C   UNL A   1     -26.929   1.171  29.008  0.00  0.00    -0.002 A 
ATOM      3  C   UNL A   1     -25.770   2.034  28.688  0.00  0.00    +0.011 A 
ATOM      4  C   UNL A   1     -24.714   1.443  27.919  0.00  0.00    +0.058 A 
ATOM      5  C   UNL A   1     -24.859   0.078  27.584  0.00  0.00    +0.011 A 
ATOM      6  C   UNL A   1     -25.965  -0.661  27.916  0.00  0.00    -0.002 A 
ATOM      7 CL   UNL A   1     -23.350   2.308  27.511  0.00  0.00    -0.082 Cl
ENDROOT
BRANCH   1   8
ATOM      8  C   UNL A   1     -28.016  -0.814  28.878  0.00  0.00    +0.139 C 
BRANCH   8   9
ATOM      9  N   UNL A   1     -28.700  -0.644  30.077  0.00  0.00    -0.232 NA
BRANCH   9  10
ATOM     10  C   UNL A   1     -29.803  -1.365  30.506  0.00  0.00    +0.081 C 
ATOM     11  C   UNL A   1     -30.377  -1.047  31.741  0.00  0.00    +0.019 C 
ENDBRANCH   9  10
ENDBRANCH   8   9
ENDBRANCH   1   8
TORSDOF 3
