REMARK  Name = No_4415-gen_results/8p0m/2024-11-26-14-13-15/
REMARK  3 active torsions:
REMARK  status: ('A' for Active; 'I' for Inactive)
REMARK    1  A    between atoms: C_2  and  N_15
REMARK    2  A    between atoms: C_3  and  C_4
REMARK    3  A    between atoms: C_4  and  C_8
REMARK                            x       y       z     vdW  Elec       q    Type
REMARK                         _______ _______ _______ _____ _____    ______ ____
ROOT
ATOM      1  C   UNL A   1     -28.016  -0.814  28.878  0.00  0.00    +0.011 A 
ATOM      2  C   UNL A   1     -28.469  -0.785  29.829  0.00  0.00    +0.048 A 
ATOM      3  C   UNL A   1     -26.504  -0.778  28.877  0.00  0.00    -0.017 A 
ATOM      4  C   UNL A   1     -27.918  -0.937  31.182  0.00  0.00    +0.015 A 
ATOM      5  C   UNL A   1     -26.542  -0.940  31.261  0.00  0.00    +0.001 A 
ATOM      6  C   UNL A   1     -25.783  -0.893  30.120  0.00  0.00    -0.004 A 
ENDROOT
BRANCH   2   7
ATOM      7  N   UNL A   1     -29.954  -0.785  29.895  0.00  0.00    -0.307 N 
ATOM      8  C   UNL A   1     -30.707  -1.597  30.343  0.00  0.00    +0.091 C 
ATOM      9  C   UNL A   1     -32.108  -1.436  30.193  0.00  0.00    +0.021 C 
ATOM     10  C   UNL A   1     -30.538   0.341  29.226  0.00  0.00    +0.091 C 
ATOM     11  C   UNL A   1     -31.838   0.533  29.049  0.00  0.00    +0.021 C 
ATOM     12  C   UNL A   1     -32.659  -0.412  29.599  0.00  0.00    +0.004 C 
ENDBRANCH   2   7
BRANCH   3  13
ATOM     13  C   UNL A   1     -25.654  -0.660  27.719  0.00  0.00    +0.049 C 
BRANCH  13  14
ATOM     14  C   UNL A   1     -25.926   0.282  26.744  0.00  0.00    -0.035 C 
ATOM     15  C   UNL A   1     -24.990   0.678  25.868  0.00  0.00    -0.008 C 
ATOM     16  C   UNL A   1     -24.189   1.608  25.848  0.00  0.00    -0.001 C 
ATOM     17  C   UNL A   1     -24.120   2.582  26.965  0.00  0.00    -0.000 C 
ATOM     18  C   UNL A   1     -25.310   3.144  27.318  0.00  0.00    -0.004 C 
ATOM     19  C   UNL A   1     -26.399   2.262  27.744  0.00  0.00    -0.022 C 
ATOM     20  C   UNL A   1     -26.855   1.229  27.137  0.00  0.00    +0.048 C 
ENDBRANCH  13  14
ENDBRANCH   3  13
TORSDOF 3
