MODEL 4416
MODEL 1
REMARK VINA RESULT:    -7.718      0.000      0.000
REMARK INTER + INTRA:         -11.848
REMARK INTER:                 -10.876
REMARK INTRA:                  -0.972
REMARK UNBOUND:                -0.972
REMARK  Name = No_4416-gen_results/8p0m/2024-11-26-14-13-15/
REMARK  7 active torsions:
REMARK  status: ('A' for Active; 'I' for Inactive)
REMARK    1  A    between atoms: C_2  and  N_7
REMARK    2  A    between atoms: C_4  and  C_13
REMARK    3  A    between atoms: C_12  and  C_20
REMARK    4  A    between atoms: C_13  and  C_14
REMARK    5  A    between atoms: C_20  and  C_22
REMARK    6  A    between atoms: C_22  and  C_23
REMARK    7  A    between atoms: C_26  and  C_29
REMARK                            x       y       z     vdW  Elec       q    Type
REMARK                         _______ _______ _______ _____ _____    ______ ____
ROOT
ATOM      1  N   UNL A   1     -22.951 -19.521   6.857  0.00  0.00    -0.292 N 
ATOM      2  C   UNL A   1     -23.638 -20.273   7.537  0.00  0.00    +0.092 C 
ATOM      3  C   UNL A   1     -25.045 -20.110   7.535  0.00  0.00    +0.023 C 
ATOM      4  C   UNL A   1     -23.661 -18.625   6.056  0.00  0.00    +0.092 C 
ATOM      5  C   UNL A   1     -24.970 -18.482   6.019  0.00  0.00    +0.023 C 
ATOM      6  C   UNL A   1     -25.697 -19.294   6.831  0.00  0.00    +0.019 C 
ENDROOT
BRANCH   1   8
ATOM      7  C   UNL A   1     -21.046 -18.760   6.083  0.00  0.00    +0.133 A 
ATOM      8  C   UNL A   1     -21.433 -19.561   6.649  0.00  0.00    +0.151 A 
ATOM      9  N   UNL A   1     -19.648 -18.759   5.872  0.00  0.00    -0.243 NA
ATOM     10  C   UNL A   1     -19.079 -19.913   6.349  0.00  0.00    +0.083 A 
ATOM     11  N   UNL A   1     -20.980 -20.782   7.132  0.00  0.00    -0.226 NA
ATOM     12  C   UNL A   1     -19.660 -20.887   6.978  0.00  0.00    +0.115 A 
BRANCH  10  13
ATOM     13  C   UNL A   1     -17.508 -19.991   6.124  0.00  0.00    +0.074 C 
BRANCH  13  14
ATOM     14  C   UNL A   1     -16.910 -21.244   6.314  0.00  0.00    -0.016 A 
ATOM     15  C   UNL A   1     -16.545 -21.733   7.557  0.00  0.00    -0.004 A 
ATOM     16  C   UNL A   1     -15.912 -22.956   7.780  0.00  0.00    -0.000 A 
ATOM     17  C   UNL A   1     -16.036 -23.957   6.833  0.00  0.00    -0.000 A 
ATOM     18  C   UNL A   1     -16.527 -23.620   5.582  0.00  0.00    -0.000 A 
ATOM     19  C   UNL A   1     -16.945 -22.271   5.276  0.00  0.00    -0.004 A 
ENDBRANCH  13  14
ENDBRANCH  10  13
ENDBRANCH   1   8
BRANCH   6  20
ATOM     20  C   UNL A   1     -27.173 -19.211   6.866  0.00  0.00    +0.084 C 
ATOM     21 CL   UNL A   1     -28.082 -20.453   7.327  0.00  0.00    -0.115 Cl
BRANCH  20  22
ATOM     22  C   UNL A   1     -27.802 -17.987   6.516  0.00  0.00    +0.043 C 
BRANCH  22  23
ATOM     23  C   UNL A   1     -28.428 -17.329   7.467  0.00  0.00    -0.021 A 
ATOM     24  C   UNL A   1     -27.793 -17.253   8.794  0.00  0.00    -0.004 A 
ATOM     25  C   UNL A   1     -28.395 -16.589   9.891  0.00  0.00    +0.004 A 
ATOM     26  C   UNL A   1     -29.686 -16.011   9.631  0.00  0.00    +0.071 A 
ATOM     27  C   UNL A   1     -30.297 -16.069   8.410  0.00  0.00    +0.004 A 
ATOM     28  C   UNL A   1     -29.703 -16.681   7.368  0.00  0.00    -0.004 A 
BRANCH  26  29
ATOM     29  C   UNL A   1     -30.335 -15.340  10.809  0.00  0.00    +0.419 C 
ATOM     30  F   UNL A   1     -30.109 -15.800  11.874  0.00  0.00    -0.166 F 
ATOM     31  F   UNL A   1     -29.893 -14.005  10.740  0.00  0.00    -0.166 F 
ATOM     32  F   UNL A   1     -31.683 -15.330  10.545  0.00  0.00    -0.166 F 
ENDBRANCH  26  29
ENDBRANCH  22  23
ENDBRANCH  20  22
ENDBRANCH   6  20
TORSDOF 7
ENDMDL
ENDMDL
