REMARK  Name = No_4416-gen_results/8p0m/2024-11-26-14-13-15/
REMARK  7 active torsions:
REMARK  status: ('A' for Active; 'I' for Inactive)
REMARK    1  A    between atoms: C_2  and  N_7
REMARK    2  A    between atoms: C_4  and  C_13
REMARK    3  A    between atoms: C_12  and  C_20
REMARK    4  A    between atoms: C_13  and  C_14
REMARK    5  A    between atoms: C_20  and  C_22
REMARK    6  A    between atoms: C_22  and  C_23
REMARK    7  A    between atoms: C_26  and  C_29
REMARK                            x       y       z     vdW  Elec       q    Type
REMARK                         _______ _______ _______ _____ _____    ______ ____
ROOT
ATOM      1  N   UNL A   1     -29.995  -0.639  29.805  0.00  0.00    -0.292 N 
ATOM      2  C   UNL A   1     -30.825  -1.304  30.413  0.00  0.00    +0.092 C 
ATOM      3  C   UNL A   1     -32.201  -1.055  30.193  0.00  0.00    +0.023 C 
ATOM      4  C   UNL A   1     -30.516   0.248  28.862  0.00  0.00    +0.092 C 
ATOM      5  C   UNL A   1     -31.793   0.469  28.622  0.00  0.00    +0.023 C 
ATOM      6  C   UNL A   1     -32.685  -0.245  29.358  0.00  0.00    +0.019 C 
ENDROOT
BRANCH   1   8
ATOM      7  C   UNL A   1     -28.016  -0.814  28.878  0.00  0.00    +0.133 A 
ATOM      8  C   UNL A   1     -28.469  -0.785  29.829  0.00  0.00    +0.151 A 
ATOM      9  N   UNL A   1     -26.608  -0.945  28.857  0.00  0.00    -0.243 NA
ATOM     10  C   UNL A   1     -26.117  -1.151  30.122  0.00  0.00    +0.083 A 
ATOM     11  N   UNL A   1     -28.096  -1.026  31.145  0.00  0.00    -0.226 NA
ATOM     12  C   UNL A   1     -26.774  -1.169  31.239  0.00  0.00    +0.115 A 
BRANCH  10  13
ATOM     13  C   UNL A   1     -24.539  -1.331  30.172  0.00  0.00    +0.074 C 
BRANCH  13  14
ATOM     14  C   UNL A   1     -23.772  -0.267  29.680  0.00  0.00    -0.016 A 
ATOM     15  C   UNL A   1     -22.501  -0.424  29.153  0.00  0.00    -0.004 A 
ATOM     16  C   UNL A   1     -21.693   0.616  28.691  0.00  0.00    -0.000 A 
ATOM     17  C   UNL A   1     -22.287   1.801  28.296  0.00  0.00    -0.000 A 
ATOM     18  C   UNL A   1     -23.611   2.019  28.643  0.00  0.00    -0.000 A 
ATOM     19  C   UNL A   1     -24.375   1.024  29.359  0.00  0.00    -0.004 A 
ENDBRANCH  13  14
ENDBRANCH  10  13
ENDBRANCH   1   8
BRANCH   6  20
ATOM     20  C   UNL A   1     -34.141  -0.069  29.168  0.00  0.00    +0.084 C 
ATOM     21 CL   UNL A   1     -34.756   1.264  28.515  0.00  0.00    -0.115 Cl
BRANCH  20  22
ATOM     22  C   UNL A   1     -35.016  -1.123  29.542  0.00  0.00    +0.043 C 
BRANCH  22  23
ATOM     23  C   UNL A   1     -35.703  -0.979  30.654  0.00  0.00    -0.021 A 
ATOM     24  C   UNL A   1     -36.639  -2.050  31.037  0.00  0.00    -0.004 A 
ATOM     25  C   UNL A   1     -37.442  -1.981  32.202  0.00  0.00    +0.004 A 
ATOM     26  C   UNL A   1     -37.300  -0.780  32.980  0.00  0.00    +0.071 A 
ATOM     27  C   UNL A   1     -36.441   0.228  32.646  0.00  0.00    +0.004 A 
ATOM     28  C   UNL A   1     -35.664   0.140  31.549  0.00  0.00    -0.004 A 
BRANCH  26  29
ATOM     29  C   UNL A   1     -38.182  -0.698  34.195  0.00  0.00    +0.419 C 
ATOM     30  F   UNL A   1     -37.660  -0.399  35.212  0.00  0.00    -0.166 F 
ATOM     31  F   UNL A   1     -39.170   0.243  33.848  0.00  0.00    -0.166 F 
ATOM     32  F   UNL A   1     -38.807  -1.918  34.293  0.00  0.00    -0.166 F 
ENDBRANCH  26  29
ENDBRANCH  22  23
ENDBRANCH  20  22
ENDBRANCH   6  20
TORSDOF 7
