MODEL 4417
MODEL 1
REMARK VINA RESULT:    -7.469      0.000      0.000
REMARK INTER + INTRA:          -9.621
REMARK INTER:                  -8.779
REMARK INTRA:                  -0.842
REMARK UNBOUND:                -0.842
REMARK  Name = No_4417-gen_results/8p0m/2024-11-26-14-13-15/
REMARK  3 active torsions:
REMARK  status: ('A' for Active; 'I' for Inactive)
REMARK    1  A    between atoms: C_2  and  C_8
REMARK    2  A    between atoms: C_4  and  C_11
REMARK    3  A    between atoms: C_15  and  C_17
REMARK                            x       y       z     vdW  Elec       q    Type
REMARK                         _______ _______ _______ _____ _____    ______ ____
ROOT
ATOM      1  C   UNL A   1      -8.217   0.515  35.618  0.00  0.00    +0.002 A 
ATOM      2  C   UNL A   1      -9.014   0.842  34.971  0.00  0.00    +0.000 A 
ATOM      3  C   UNL A   1     -10.401   1.305  35.300  0.00  0.00    +0.000 A 
ATOM      4  C   UNL A   1     -11.038   0.499  35.715  0.00  0.00    +0.000 A 
ATOM      5  C   UNL A   1     -10.549  -0.197  36.949  0.00  0.00    +0.000 A 
ATOM      6  C   UNL A   1      -8.884  -0.107  37.054  0.00  0.00    +0.000 A 
ENDROOT
BRANCH   1  10
ATOM      7  C   UNL A   1      -4.575  -0.297  35.187  0.00  0.00    +0.036 A 
ATOM      8  C   UNL A   1      -4.606  -1.222  34.683  0.00  0.00    +0.082 A 
ATOM      9  C   UNL A   1      -5.804   0.336  35.477  0.00  0.00    +0.140 A 
ATOM     10  C   UNL A   1      -6.827  -0.156  35.295  0.00  0.00    +0.028 A 
ATOM     11  C   UNL A   1      -5.767  -2.034  34.321  0.00  0.00    +0.007 A 
ATOM     12  C   UNL A   1      -6.940  -1.440  34.651  0.00  0.00    +0.002 A 
ATOM     13  F   UNL A   1      -5.716   1.561  36.147  0.00  0.00    -0.204 F 
BRANCH   8  14
ATOM     14  C   UNL A   1      -3.282  -2.063  34.321  0.00  0.00    +0.388 C 
ATOM     15  O   UNL A   1      -3.120  -2.755  33.332  0.00  0.00    -0.241 OA
ATOM     16  O   UNL A   1      -2.392  -2.308  35.351  0.00  0.00    -0.241 OA
ENDBRANCH   8  14
ENDBRANCH   1  10
BRANCH   5  17
ATOM     17  C   UNL A   1     -11.192  -0.781  38.015  0.00  0.00    +0.000 A 
ATOM     18  C   UNL A   1     -11.536  -1.925  37.867  0.00  0.00    +0.000 A 
ATOM     19  C   UNL A   1     -12.270  -2.698  38.918  0.00  0.00    +0.000 A 
ATOM     20  C   UNL A   1     -10.659  -0.551  39.362  0.00  0.00    +0.000 A 
ATOM     21  C   UNL A   1     -11.409  -1.131  40.488  0.00  0.00    +0.000 A 
ATOM     22  C   UNL A   1     -12.295  -1.934  40.219  0.00  0.00    +0.000 A 
ENDBRANCH   5  17
TORSDOF 3
ENDMDL
ENDMDL
