REMARK  Name = No_4417-gen_results/8p0m/2024-11-26-14-13-15/
REMARK  3 active torsions:
REMARK  status: ('A' for Active; 'I' for Inactive)
REMARK    1  A    between atoms: C_2  and  C_8
REMARK    2  A    between atoms: C_4  and  C_11
REMARK    3  A    between atoms: C_15  and  C_17
REMARK                            x       y       z     vdW  Elec       q    Type
REMARK                         _______ _______ _______ _____ _____    ______ ____
ROOT
ATOM      1  C   UNL A   1     -25.817   2.230  28.932  0.00  0.00    +0.002 A 
ATOM      2  C   UNL A   1     -25.114   2.355  28.125  0.00  0.00    +0.000 A 
ATOM      3  C   UNL A   1     -24.319   3.555  27.708  0.00  0.00    +0.000 A 
ATOM      4  C   UNL A   1     -24.951   4.375  27.314  0.00  0.00    +0.000 A 
ATOM      5  C   UNL A   1     -26.029   4.905  28.211  0.00  0.00    +0.000 A 
ATOM      6  C   UNL A   1     -26.502   3.740  29.312  0.00  0.00    +0.000 A 
ENDROOT
BRANCH   1  10
ATOM      7  C   UNL A   1     -28.016  -0.814  28.878  0.00  0.00    +0.036 A 
ATOM      8  C   UNL A   1     -28.469  -0.785  29.829  0.00  0.00    +0.082 A 
ATOM      9  C   UNL A   1     -27.136   0.236  28.535  0.00  0.00    +0.140 A 
ATOM     10  C   UNL A   1     -26.805   1.051  29.276  0.00  0.00    +0.028 A 
ATOM     11  C   UNL A   1     -28.237   0.150  30.930  0.00  0.00    +0.007 A 
ATOM     12  C   UNL A   1     -27.352   1.124  30.607  0.00  0.00    +0.002 A 
ATOM     13  F   UNL A   1     -26.557   0.157  27.264  0.00  0.00    -0.204 F 
BRANCH   8  14
ATOM     14  C   UNL A   1     -29.465  -1.934  30.357  0.00  0.00    +0.388 C 
ATOM     15  O   UNL A   1     -29.265  -3.134  30.308  0.00  0.00    -0.241 OA
ATOM     16  O   UNL A   1     -30.784  -1.575  30.565  0.00  0.00    -0.241 OA
ENDBRANCH   8  14
ENDBRANCH   1  10
BRANCH   5  17
ATOM     17  C   UNL A   1     -26.603   6.146  28.358  0.00  0.00    +0.000 A 
ATOM     18  C   UNL A   1     -27.047   6.648  27.358  0.00  0.00    +0.000 A 
ATOM     19  C   UNL A   1     -27.680   8.004  27.340  0.00  0.00    +0.000 A 
ATOM     20  C   UNL A   1     -27.482   6.375  29.510  0.00  0.00    +0.000 A 
ATOM     21  C   UNL A   1     -28.025   7.733  29.678  0.00  0.00    +0.000 A 
ATOM     22  C   UNL A   1     -27.884   8.515  28.745  0.00  0.00    +0.000 A 
ENDBRANCH   5  17
TORSDOF 3
