MODEL 4418
MODEL 1
REMARK VINA RESULT:    -5.853      0.000      0.000
REMARK INTER + INTRA:          -7.182
REMARK INTER:                  -6.879
REMARK INTRA:                  -0.303
REMARK UNBOUND:                -0.303
REMARK  Name = No_4418-gen_results/8p0m/2024-11-26-14-13-15/
REMARK  3 active torsions:
REMARK  status: ('A' for Active; 'I' for Inactive)
REMARK    1  A    between atoms: C_1  and  C_2
REMARK    2  A    between atoms: C_5  and  C_10
REMARK    3  A    between atoms: N_8  and  C_14
REMARK                            x       y       z     vdW  Elec       q    Type
REMARK                         _______ _______ _______ _____ _____    ______ ____
ROOT
ATOM      1  C   UNL A   1     -24.121  -0.770  29.023  0.00  0.00    +0.054 A 
ATOM      2  C   UNL A   1     -23.465  -1.953  28.912  0.00  0.00    +0.004 A 
ATOM      3  C   UNL A   1     -24.088  -3.281  29.102  0.00  0.00    -0.000 A 
ATOM      4  C   UNL A   1     -25.479  -3.301  29.451  0.00  0.00    +0.028 A 
ATOM      5  C   UNL A   1     -26.108  -2.048  29.628  0.00  0.00    -0.000 A 
ATOM      6  C   UNL A   1     -25.464  -0.853  29.434  0.00  0.00    +0.004 A 
ENDROOT
BRANCH   1   7
ATOM      7  C   UNL A   1     -23.598   0.310  28.867  0.00  0.00    +0.253 C 
ATOM      8  N   UNL A   1     -23.191   0.664  27.716  0.00  0.00    -0.253 N 
ATOM      9  C   UNL A   1     -22.172   1.612  27.568  0.00  0.00    +0.120 C 
ATOM     10  O   UNL A   1     -22.841   0.785  29.815  0.00  0.00    -0.270 OA
BRANCH   8  11
ATOM     11  C   UNL A   1     -24.298   0.886  26.806  0.00  0.00    +0.063 C 
ATOM     12  C   UNL A   1     -24.587   0.455  25.846  0.00  0.00    -0.010 C 
ATOM     13  C   UNL A   1     -25.710   0.722  24.977  0.00  0.00    +0.032 C 
ENDBRANCH   8  11
ENDBRANCH   1   7
BRANCH   4  14
ATOM     14  C   UNL A   1     -26.190  -4.525  29.704  0.00  0.00    +0.274 C 
ATOM     15  N   UNL A   1     -27.374  -4.742  30.014  0.00  0.00    -0.090 NA
ATOM     16  F   UNL A   1     -25.460  -5.580  29.367  0.00  0.00    -0.211 F 
ENDBRANCH   4  14
TORSDOF 3
ENDMDL
ENDMDL
