REMARK  Name = No_4418-gen_results/8p0m/2024-11-26-14-13-15/
REMARK  3 active torsions:
REMARK  status: ('A' for Active; 'I' for Inactive)
REMARK    1  A    between atoms: C_1  and  C_2
REMARK    2  A    between atoms: C_5  and  C_10
REMARK    3  A    between atoms: N_8  and  C_14
REMARK                            x       y       z     vdW  Elec       q    Type
REMARK                         _______ _______ _______ _____ _____    ______ ____
ROOT
ATOM      1  C   UNL A   1     -27.064  -0.119  28.608  0.00  0.00    +0.054 A 
ATOM      2  C   UNL A   1     -26.929   1.171  29.008  0.00  0.00    +0.004 A 
ATOM      3  C   UNL A   1     -25.770   2.034  28.688  0.00  0.00    -0.000 A 
ATOM      4  C   UNL A   1     -24.714   1.443  27.919  0.00  0.00    +0.028 A 
ATOM      5  C   UNL A   1     -24.859   0.078  27.584  0.00  0.00    -0.000 A 
ATOM      6  C   UNL A   1     -25.965  -0.661  27.916  0.00  0.00    +0.004 A 
ENDROOT
BRANCH   1   7
ATOM      7  C   UNL A   1     -28.016  -0.814  28.878  0.00  0.00    +0.253 C 
ATOM      8  N   UNL A   1     -29.178  -0.305  28.964  0.00  0.00    -0.253 N 
ATOM      9  C   UNL A   1     -30.177  -0.907  29.737  0.00  0.00    +0.120 C 
ATOM     10  O   UNL A   1     -27.857  -1.800  29.715  0.00  0.00    -0.270 OA
BRANCH   8  11
ATOM     11  C   UNL A   1     -29.661   0.137  27.670  0.00  0.00    +0.063 C 
ATOM     12  C   UNL A   1     -29.329   0.892  26.956  0.00  0.00    -0.010 C 
ATOM     13  C   UNL A   1     -29.859   1.293  25.673  0.00  0.00    +0.032 C 
ENDBRANCH   8  11
ENDBRANCH   1   7
BRANCH   4  14
ATOM     14  C   UNL A   1     -23.516   2.162  27.579  0.00  0.00    +0.274 C 
ATOM     15  N   UNL A   1     -22.358   2.091  28.023  0.00  0.00    -0.090 NA
ATOM     16  F   UNL A   1     -23.690   2.887  26.481  0.00  0.00    -0.211 F 
ENDBRANCH   4  14
TORSDOF 3
