REMARK  Name = No_4419-gen_results/8p0m/2024-11-26-14-13-15/
REMARK  2 active torsions:
REMARK  status: ('A' for Active; 'I' for Inactive)
REMARK    1  A    between atoms: C_6  and  C_8
REMARK    2  A    between atoms: C_10  and  C_15
REMARK                            x       y       z     vdW  Elec       q    Type
REMARK                         _______ _______ _______ _____ _____    ______ ____
ROOT
ATOM      1  C   UNL A   1     -30.081   1.511  31.011  0.00  0.00    +0.001 A 
ATOM      2  C   UNL A   1     -31.130   1.710  30.895  0.00  0.00    +0.007 A 
ATOM      3  C   UNL A   1     -32.071   2.278  31.848  0.00  0.00    +0.090 A 
ATOM      4  C   UNL A   1     -29.478   1.836  32.415  0.00  0.00    +0.001 A 
ATOM      5  C   UNL A   1     -30.307   2.388  33.379  0.00  0.00    +0.012 A 
ATOM      6  C   UNL A   1     -31.594   2.612  33.087  0.00  0.00    +0.064 A 
ATOM      7 CL   UNL A   1     -32.644   3.302  34.248  0.00  0.00    -0.082 Cl
ENDROOT
BRANCH   1  13
ATOM      8  C   UNL A   1     -28.016  -0.814  28.878  0.00  0.00    +0.023 A 
ATOM      9  C   UNL A   1     -27.064  -0.119  28.608  0.00  0.00    +0.059 A 
ATOM     10  C   UNL A   1     -26.929   1.171  29.008  0.00  0.00    +0.011 A 
ATOM     11  C   UNL A   1     -27.956   1.741  29.784  0.00  0.00    +0.002 A 
ATOM     12  C   UNL A   1     -29.057  -0.327  29.747  0.00  0.00    +0.059 A 
ATOM     13  C   UNL A   1     -28.983   0.972  30.152  0.00  0.00    +0.011 A 
ATOM     14 CL   UNL A   1     -25.735  -0.730  27.663  0.00  0.00    -0.082 Cl
ATOM     15 CL   UNL A   1     -30.352  -1.354  30.165  0.00  0.00    -0.082 Cl
ENDBRANCH   1  13
BRANCH   3  16
ATOM     16  C   UNL A   1     -33.483   2.474  31.446  0.00  0.00    +0.389 C 
ATOM     17  O   UNL A   1     -34.034   1.803  30.687  0.00  0.00    -0.240 OA
ATOM     18  O   UNL A   1     -34.131   3.298  32.103  0.00  0.00    -0.240 OA
ENDBRANCH   3  16
TORSDOF 2
