MODEL 4419
MODEL 1
REMARK VINA RESULT:    -6.837      0.000      0.000
REMARK INTER + INTRA:          -7.920
REMARK INTER:                  -7.637
REMARK INTRA:                  -0.283
REMARK UNBOUND:                -0.283
REMARK  Name = No_4419-gen_results/8p0m/2024-11-26-14-13-15/
REMARK  2 active torsions:
REMARK  status: ('A' for Active; 'I' for Inactive)
REMARK    1  A    between atoms: C_6  and  C_8
REMARK    2  A    between atoms: C_10  and  C_15
REMARK                            x       y       z     vdW  Elec       q    Type
REMARK                         _______ _______ _______ _____ _____    ______ ____
ROOT
ATOM      1  C   UNL A   1     -29.047 -11.794  30.399  0.00  0.00    +0.001 A 
ATOM      2  C   UNL A   1     -28.429 -12.083  31.229  0.00  0.00    +0.007 A 
ATOM      3  C   UNL A   1     -28.280 -11.451  32.531  0.00  0.00    +0.090 A 
ATOM      4  C   UNL A   1     -29.877 -10.484  30.593  0.00  0.00    +0.001 A 
ATOM      5  C   UNL A   1     -29.797  -9.825  31.810  0.00  0.00    +0.012 A 
ATOM      6  C   UNL A   1     -29.006 -10.316  32.771  0.00  0.00    +0.064 A 
ATOM      7 CL   UNL A   1     -28.891  -9.535  34.289  0.00  0.00    -0.082 Cl
ENDROOT
BRANCH   1  13
ATOM      8  C   UNL A   1     -30.230 -14.035  27.607  0.00  0.00    +0.023 A 
ATOM      9  C   UNL A   1     -29.909 -13.400  26.630  0.00  0.00    +0.059 A 
ATOM     10  C   UNL A   1     -29.316 -12.180  26.679  0.00  0.00    +0.011 A 
ATOM     11  C   UNL A   1     -29.057 -11.613  27.942  0.00  0.00    +0.002 A 
ATOM     12  C   UNL A   1     -29.908 -13.560  28.929  0.00  0.00    +0.059 A 
ATOM     13  C   UNL A   1     -29.339 -12.326  29.034  0.00  0.00    +0.011 A 
ATOM     14 CL   UNL A   1     -30.175 -14.014  25.022  0.00  0.00    -0.082 Cl
ATOM     15 CL   UNL A   1     -30.312 -14.511  30.285  0.00  0.00    -0.082 Cl
ENDBRANCH   1  13
BRANCH   3  16
ATOM     16  C   UNL A   1     -27.367 -12.053  33.530  0.00  0.00    +0.389 C 
ATOM     17  O   UNL A   1     -27.698 -12.390  34.582  0.00  0.00    -0.240 OA
ATOM     18  O   UNL A   1     -26.238 -12.359  33.127  0.00  0.00    -0.240 OA
ENDBRANCH   3  16
TORSDOF 2
ENDMDL
ENDMDL
