MODEL 441
MODEL 1
REMARK VINA RESULT:    -5.353      0.000      0.000
REMARK INTER + INTRA:          -5.818
REMARK INTER:                  -5.666
REMARK INTRA:                  -0.153
REMARK UNBOUND:                -0.153
REMARK  Name = No_441-gen_results/8p0m/2024-11-26-14-13-15/
REMARK  1 active torsions:
REMARK  status: ('A' for Active; 'I' for Inactive)
REMARK    1  A    between atoms: C_4  and  C_7
REMARK                            x       y       z     vdW  Elec       q    Type
REMARK                         _______ _______ _______ _____ _____    ______ ____
ROOT
ATOM      1  C   UNL A   1     -26.563  -3.973  29.837  0.00  0.00    -0.000 A 
ATOM      2  C   UNL A   1     -26.086  -4.876  29.575  0.00  0.00    -0.000 A 
ATOM      3  C   UNL A   1     -25.763  -2.745  29.714  0.00  0.00    +0.004 A 
ATOM      4  C   UNL A   1     -24.461  -2.783  29.133  0.00  0.00    +0.071 A 
ATOM      5  C   UNL A   1     -24.792  -5.179  28.906  0.00  0.00    -0.000 A 
ATOM      6  C   UNL A   1     -24.016  -4.065  28.783  0.00  0.00    +0.004 A 
ENDROOT
BRANCH   4   7
ATOM      7  C   UNL A   1     -23.649  -1.621  28.981  0.00  0.00    +0.419 C 
ATOM      8  F   UNL A   1     -22.549  -1.859  28.968  0.00  0.00    -0.166 F 
ATOM      9  F   UNL A   1     -23.879  -0.771  30.056  0.00  0.00    -0.166 F 
ATOM     10  F   UNL A   1     -24.000  -0.848  27.920  0.00  0.00    -0.166 F 
ENDBRANCH   4   7
TORSDOF 1
ENDMDL
ENDMDL
