REMARK  Name = No_442-gen_results/8p0m/2024-11-26-14-13-15/
REMARK  2 active torsions:
REMARK  status: ('A' for Active; 'I' for Inactive)
REMARK    1  A    between atoms: C_6  and  C_20
REMARK    2  A    between atoms: C_11  and  C_16
REMARK                            x       y       z     vdW  Elec       q    Type
REMARK                         _______ _______ _______ _____ _____    ______ ____
ROOT
ATOM      1  O   UNL A   1     -28.123  -1.335  28.487  0.00  0.00    -0.273 OA
ATOM      2  C   UNL A   1     -27.481  -0.404  28.709  0.00  0.00    +0.245 C 
ATOM      3  N   UNL A   1     -26.460  -0.110  28.005  0.00  0.00    -0.206 NA
ATOM      4  C   UNL A   1     -25.430   0.879  28.357  0.00  0.00    +0.110 C 
ATOM      5  C   UNL A   1     -24.360   1.056  27.565  0.00  0.00    +0.066 C 
ATOM      6  C   UNL A   1     -27.737   0.501  29.964  0.00  0.00    +0.101 C 
ATOM      7  C   UNL A   1     -24.341   1.619  26.431  0.00  0.00    +0.006 C 
ATOM      8  C   UNL A   1     -23.117   1.881  25.630  0.00  0.00    +0.000 C 
ATOM      9  C   UNL A   1     -21.924   1.854  26.394  0.00  0.00    +0.004 C 
ATOM     10  C   UNL A   1     -21.892   1.427  27.711  0.00  0.00    +0.049 C 
ATOM     11  C   UNL A   1     -23.056   1.149  28.336  0.00  0.00    +0.208 C 
ATOM     12  C   UNL A   1     -25.671   1.533  29.602  0.00  0.00    +0.120 C 
ATOM     13  C   UNL A   1     -26.804   1.381  30.399  0.00  0.00    +0.026 C 
ATOM     14  C   UNL A   1     -24.644   2.552  30.053  0.00  0.00    +0.318 C 
ATOM     15  O   UNL A   1     -23.314   2.268  29.635  0.00  0.00    -0.447 OA
ATOM     16  O   UNL A   1     -24.770   3.684  30.331  0.00  0.00    -0.250 OA
ENDROOT
BRANCH   6  17
ATOM     17  C   UNL A   1     -28.906   0.121  30.735  0.00  0.00    -0.014 A 
ATOM     18  C   UNL A   1     -28.742  -0.579  31.797  0.00  0.00    -0.004 A 
ATOM     19  C   UNL A   1     -29.901  -0.888  32.667  0.00  0.00    -0.000 A 
ATOM     20  C   UNL A   1     -31.129  -0.575  32.213  0.00  0.00    -0.000 A 
ATOM     21  C   UNL A   1     -30.162   0.487  30.241  0.00  0.00    -0.004 A 
ATOM     22  C   UNL A   1     -31.291   0.183  31.021  0.00  0.00    -0.000 A 
ENDBRANCH   6  17
BRANCH  11  23
ATOM     23  C   UNL A   1     -22.804  -0.237  28.993  0.00  0.00    +0.297 C 
ATOM     24  O   UNL A   1     -23.464  -1.114  29.067  0.00  0.00    -0.268 OA
ATOM     25  N   UNL A   1     -21.497  -0.338  29.623  0.00  0.00    -0.085 NA
ENDBRANCH  11  23
TORSDOF 2
