REMARK  Name = No_4420-gen_results/8p0m/2024-11-26-14-13-15/
REMARK  2 active torsions:
REMARK  status: ('A' for Active; 'I' for Inactive)
REMARK    1  A    between atoms: C_2  and  C_7
REMARK    2  A    between atoms: N_9  and  C_10
REMARK                            x       y       z     vdW  Elec       q    Type
REMARK                         _______ _______ _______ _____ _____    ______ ____
ROOT
ATOM      1  C   UNL A   1     -28.016  -0.814  28.878  0.00  0.00    +0.021 A 
ATOM      2  C   UNL A   1     -28.469  -0.785  29.829  0.00  0.00    +0.057 A 
ATOM      3  C   UNL A   1     -26.504  -0.778  28.877  0.00  0.00    +0.067 A 
ATOM      4  C   UNL A   1     -25.915  -0.658  29.923  0.00  0.00    -0.003 A 
ATOM      5  C   UNL A   1     -27.969  -0.724  31.205  0.00  0.00    +0.004 A 
ATOM      6  C   UNL A   1     -26.585  -0.639  31.206  0.00  0.00    -0.003 A 
ATOM      7  C   UNL A   1     -24.373  -0.599  30.014  0.00  0.00    +0.055 C 
ATOM      8  C   UNL A   1     -23.696   0.151  29.063  0.00  0.00    -0.002 A 
ATOM      9  C   UNL A   1     -23.208   1.061  29.057  0.00  0.00    -0.003 A 
ATOM     10  C   UNL A   1     -22.470   1.738  27.900  0.00  0.00    +0.000 A 
ATOM     11  C   UNL A   1     -22.822   2.012  26.908  0.00  0.00    +0.008 A 
ATOM     12  C   UNL A   1     -24.089   1.127  26.585  0.00  0.00    +0.050 A 
ATOM     13  C   UNL A   1     -24.424   0.258  27.544  0.00  0.00    +0.073 A 
ATOM     14  N   UNL A   1     -25.756  -0.352  27.781  0.00  0.00    -0.213 NA
ATOM     15 BR   UNL A   1     -24.892   1.230  24.981  0.00  0.00    -0.048 Br
ENDROOT
BRANCH   2  16
ATOM     16  C   UNL A   1     -30.075  -0.883  29.905  0.00  0.00    +0.269 C 
ATOM     17  O   UNL A   1     -30.593  -0.484  28.944  0.00  0.00    -0.268 OA
ATOM     18  N   UNL A   1     -30.721  -1.095  31.085  0.00  0.00    -0.175 NA
BRANCH  18  19
ATOM     19  C   UNL A   1     -32.160  -1.151  31.079  0.00  0.00    +0.075 A 
ATOM     20  C   UNL A   1     -32.897  -0.684  30.504  0.00  0.00    +0.018 A 
ATOM     21  C   UNL A   1     -34.343  -0.757  30.602  0.00  0.00    +0.014 A 
ATOM     22  C   UNL A   1     -34.767  -1.555  31.697  0.00  0.00    +0.068 A 
ATOM     23  C   UNL A   1     -33.846  -2.180  32.482  0.00  0.00    +0.070 A 
ATOM     24  C   UNL A   1     -32.467  -2.008  32.320  0.00  0.00    +0.029 A 
ATOM     25 CL   UNL A   1     -36.433  -1.719  31.938  0.00  0.00    -0.081 Cl
ATOM     26 CL   UNL A   1     -34.375  -3.112  33.841  0.00  0.00    -0.081 Cl
ENDBRANCH  18  19
ENDBRANCH   2  16
TORSDOF 2
