MODEL 4420
MODEL 1
REMARK VINA RESULT:    -7.935      0.000      0.000
REMARK INTER + INTRA:          -9.172
REMARK INTER:                  -8.862
REMARK INTRA:                  -0.310
REMARK UNBOUND:                -0.310
REMARK  Name = No_4420-gen_results/8p0m/2024-11-26-14-13-15/
REMARK  2 active torsions:
REMARK  status: ('A' for Active; 'I' for Inactive)
REMARK    1  A    between atoms: C_2  and  C_7
REMARK    2  A    between atoms: N_9  and  C_10
REMARK                            x       y       z     vdW  Elec       q    Type
REMARK                         _______ _______ _______ _____ _____    ______ ____
ROOT
ATOM      1  C   UNL A   1     -24.758   2.009  28.383  0.00  0.00    +0.021 A 
ATOM      2  C   UNL A   1     -24.138   2.430  27.643  0.00  0.00    +0.057 A 
ATOM      3  C   UNL A   1     -24.269   0.707  28.978  0.00  0.00    +0.067 A 
ATOM      4  C   UNL A   1     -23.262   0.202  28.546  0.00  0.00    -0.003 A 
ATOM      5  C   UNL A   1     -22.862   2.049  27.031  0.00  0.00    +0.004 A 
ATOM      6  C   UNL A   1     -22.436   0.830  27.538  0.00  0.00    -0.003 A 
ATOM      7  C   UNL A   1     -22.697  -1.132  29.086  0.00  0.00    +0.055 C 
ATOM      8  C   UNL A   1     -23.596  -2.154  29.358  0.00  0.00    -0.002 A 
ATOM      9  C   UNL A   1     -23.850  -3.047  28.908  0.00  0.00    -0.003 A 
ATOM     10  C   UNL A   1     -24.865  -4.093  29.374  0.00  0.00    +0.000 A 
ATOM     11  C   UNL A   1     -25.927  -3.993  29.590  0.00  0.00    +0.008 A 
ATOM     12  C   UNL A   1     -26.216  -2.470  29.887  0.00  0.00    +0.050 A 
ATOM     13  C   UNL A   1     -25.142  -1.676  29.836  0.00  0.00    +0.073 A 
ATOM     14  N   UNL A   1     -25.116  -0.211  29.594  0.00  0.00    -0.213 NA
ATOM     15 BR   UNL A   1     -27.857  -1.931  30.384  0.00  0.00    -0.048 Br
ENDROOT
BRANCH   2  16
ATOM     16  C   UNL A   1     -24.569   3.848  27.011  0.00  0.00    +0.269 C 
ATOM     17  O   UNL A   1     -24.401   3.895  25.862  0.00  0.00    -0.268 OA
ATOM     18  N   UNL A   1     -24.780   4.941  27.794  0.00  0.00    -0.175 NA
BRANCH  18  19
ATOM     19  C   UNL A   1     -25.144   6.181  27.158  0.00  0.00    +0.075 A 
ATOM     20  C   UNL A   1     -24.595   6.994  26.798  0.00  0.00    +0.018 A 
ATOM     21  C   UNL A   1     -25.051   8.242  26.213  0.00  0.00    +0.014 A 
ATOM     22  C   UNL A   1     -26.467   8.344  26.202  0.00  0.00    +0.068 A 
ATOM     23  C   UNL A   1     -27.228   7.314  26.666  0.00  0.00    +0.070 A 
ATOM     24  C   UNL A   1     -26.680   6.166  27.249  0.00  0.00    +0.029 A 
ATOM     25 CL   UNL A   1     -27.138   9.755  25.556  0.00  0.00    -0.081 Cl
ATOM     26 CL   UNL A   1     -28.952   7.471  26.690  0.00  0.00    -0.081 Cl
ENDBRANCH  18  19
ENDBRANCH   2  16
TORSDOF 2
ENDMDL
ENDMDL
