MODEL 4421
MODEL 1
REMARK VINA RESULT:    -6.700      0.000      0.000
REMARK INTER + INTRA:          -8.327
REMARK INTER:                  -7.876
REMARK INTRA:                  -0.452
REMARK UNBOUND:                -0.452
REMARK  Name = No_4421-gen_results/8p0m/2024-11-26-14-13-15/
REMARK  3 active torsions:
REMARK  status: ('A' for Active; 'I' for Inactive)
REMARK    1  A    between atoms: C_1  and  C_2
REMARK    2  A    between atoms: C_5  and  C_14
REMARK    3  A    between atoms: C_10  and  C_19
REMARK                            x       y       z     vdW  Elec       q    Type
REMARK                         _______ _______ _______ _____ _____    ______ ____
ROOT
ATOM      1  C   UNL A   1     -24.037   0.890  26.727  0.00  0.00    +0.249 C 
ATOM      2  N   UNL A   1     -23.971   0.401  27.899  0.00  0.00    -0.276 N 
ATOM      3  C   UNL A   1     -24.385  -0.734  28.234  0.00  0.00    +0.105 C 
ATOM      4  C   UNL A   1     -23.966  -1.582  28.818  0.00  0.00    +0.123 C 
ATOM      5  C   UNL A   1     -22.668  -1.394  29.472  0.00  0.00    +0.015 C 
ATOM      6  C   UNL A   1     -23.038   0.981  28.901  0.00  0.00    +0.094 C 
ATOM      7  C   UNL A   1     -22.300  -0.023  29.610  0.00  0.00    +0.022 C 
ATOM      8  O   UNL A   1     -23.061   1.651  26.318  0.00  0.00    -0.270 OA
ENDROOT
BRANCH   1   9
ATOM      9  C   UNL A   1     -25.100   0.959  26.154  0.00  0.00    +0.054 A 
ATOM     10  C   UNL A   1     -26.019   1.934  26.375  0.00  0.00    +0.004 A 
ATOM     11  C   UNL A   1     -27.322   2.034  25.681  0.00  0.00    +0.004 A 
ATOM     12  C   UNL A   1     -27.610   1.035  24.693  0.00  0.00    +0.071 A 
ATOM     13  C   UNL A   1     -26.598   0.081  24.441  0.00  0.00    +0.004 A 
ATOM     14  C   UNL A   1     -25.411   0.050  25.126  0.00  0.00    +0.004 A 
BRANCH  12  15
ATOM     15  C   UNL A   1     -28.793   1.037  23.880  0.00  0.00    +0.419 C 
ATOM     16  F   UNL A   1     -29.761   1.083  24.276  0.00  0.00    -0.166 F 
ATOM     17  F   UNL A   1     -28.592   2.180  22.968  0.00  0.00    -0.166 F 
ATOM     18  F   UNL A   1     -28.705  -0.031  22.943  0.00  0.00    -0.166 F 
ENDBRANCH  12  15
ENDBRANCH   1   9
BRANCH   4  19
ATOM     19  C   UNL A   1     -24.380  -3.064  28.919  0.00  0.00    +0.366 C 
ATOM     20  O   UNL A   1     -23.649  -3.834  28.545  0.00  0.00    -0.246 OA
ATOM     21  O   UNL A   1     -25.648  -3.288  29.376  0.00  0.00    -0.246 OA
ENDBRANCH   4  19
TORSDOF 3
ENDMDL
ENDMDL
