REMARK  Name = No_4421-gen_results/8p0m/2024-11-26-14-13-15/
REMARK  3 active torsions:
REMARK  status: ('A' for Active; 'I' for Inactive)
REMARK    1  A    between atoms: C_1  and  C_2
REMARK    2  A    between atoms: C_5  and  C_14
REMARK    3  A    between atoms: C_10  and  C_19
REMARK                            x       y       z     vdW  Elec       q    Type
REMARK                         _______ _______ _______ _____ _____    ______ ____
ROOT
ATOM      1  C   UNL A   1     -28.016  -0.814  28.878  0.00  0.00    +0.249 C 
ATOM      2  N   UNL A   1     -29.178  -0.305  28.964  0.00  0.00    -0.276 N 
ATOM      3  C   UNL A   1     -29.743   0.364  28.067  0.00  0.00    +0.105 C 
ATOM      4  C   UNL A   1     -30.751   0.356  27.599  0.00  0.00    +0.123 C 
ATOM      5  C   UNL A   1     -31.761  -0.550  28.152  0.00  0.00    +0.015 C 
ATOM      6  C   UNL A   1     -30.134  -0.790  29.995  0.00  0.00    +0.094 C 
ATOM      7  C   UNL A   1     -31.448  -1.008  29.465  0.00  0.00    +0.022 C 
ATOM      8  O   UNL A   1     -27.801  -1.966  29.450  0.00  0.00    -0.270 OA
ENDROOT
BRANCH   1   9
ATOM      9  C   UNL A   1     -27.064  -0.119  28.608  0.00  0.00    +0.054 A 
ATOM     10  C   UNL A   1     -26.929   1.171  29.008  0.00  0.00    +0.004 A 
ATOM     11  C   UNL A   1     -25.770   2.034  28.688  0.00  0.00    +0.004 A 
ATOM     12  C   UNL A   1     -24.714   1.443  27.919  0.00  0.00    +0.071 A 
ATOM     13  C   UNL A   1     -24.859   0.078  27.584  0.00  0.00    +0.004 A 
ATOM     14  C   UNL A   1     -25.965  -0.661  27.916  0.00  0.00    +0.004 A 
BRANCH  12  15
ATOM     15  C   UNL A   1     -23.491   2.121  27.593  0.00  0.00    +0.419 C 
ATOM     16  F   UNL A   1     -22.597   1.620  27.377  0.00  0.00    -0.166 F 
ATOM     17  F   UNL A   1     -23.855   2.973  26.444  0.00  0.00    -0.166 F 
ATOM     18  F   UNL A   1     -23.254   3.130  28.569  0.00  0.00    -0.166 F 
ENDBRANCH  12  15
ENDBRANCH   1   9
BRANCH   4  19
ATOM     19  C   UNL A   1     -31.280   0.973  26.288  0.00  0.00    +0.366 C 
ATOM     20  O   UNL A   1     -31.789   1.975  26.354  0.00  0.00    -0.246 OA
ATOM     21  O   UNL A   1     -31.155   0.186  25.178  0.00  0.00    -0.246 OA
ENDBRANCH   4  19
TORSDOF 3
