REMARK  Name = No_4422-gen_results/8p0m/2024-11-26-14-13-15/
REMARK  2 active torsions:
REMARK  status: ('A' for Active; 'I' for Inactive)
REMARK    1  A    between atoms: C_3  and  C_12
REMARK    2  A    between atoms: C_6  and  C_8
REMARK                            x       y       z     vdW  Elec       q    Type
REMARK                         _______ _______ _______ _____ _____    ______ ____
ROOT
ATOM      1  C   UNL A   1     -28.016  -0.814  28.878  0.00  0.00    +0.011 A 
ATOM      2  C   UNL A   1     -27.064  -0.119  28.608  0.00  0.00    +0.058 A 
ATOM      3  C   UNL A   1     -26.929   1.171  29.008  0.00  0.00    +0.011 A 
ATOM      4  C   UNL A   1     -27.956   1.741  29.784  0.00  0.00    +0.005 A 
ATOM      5  C   UNL A   1     -29.057  -0.327  29.747  0.00  0.00    +0.005 A 
ATOM      6  C   UNL A   1     -28.983   0.972  30.152  0.00  0.00    +0.071 A 
ATOM      7 CL   UNL A   1     -25.725  -0.728  27.673  0.00  0.00    -0.082 Cl
ENDROOT
BRANCH   3   8
ATOM      8  C   UNL A   1     -25.714   2.006  28.559  0.00  0.00    +0.001 A 
ATOM      9  C   UNL A   1     -25.631   2.461  27.224  0.00  0.00    +0.000 A 
ATOM     10  C   UNL A   1     -24.484   2.841  26.722  0.00  0.00    +0.000 A 
ATOM     11  C   UNL A   1     -23.221   2.643  27.330  0.00  0.00    +0.000 A 
ATOM     12  C   UNL A   1     -23.347   2.020  28.626  0.00  0.00    +0.000 A 
ATOM     13  C   UNL A   1     -24.522   1.749  29.297  0.00  0.00    +0.000 A 
ENDBRANCH   3   8
BRANCH   6  14
ATOM     14  C   UNL A   1     -30.037   1.698  30.919  0.00  0.00    +0.419 C 
ATOM     15  F   UNL A   1     -30.861   0.940  31.403  0.00  0.00    -0.166 F 
ATOM     16  F   UNL A   1     -29.444   2.342  31.956  0.00  0.00    -0.166 F 
ATOM     17  F   UNL A   1     -30.576   2.606  30.093  0.00  0.00    -0.166 F 
ENDBRANCH   6  14
TORSDOF 2
