MODEL 4423
MODEL 1
REMARK VINA RESULT:    -5.155      0.000      0.000
REMARK INTER + INTRA:          -5.477
REMARK INTER:                  -5.457
REMARK INTRA:                  -0.020
REMARK UNBOUND:                -0.020
REMARK  Name = No_4423-gen_results/8p0m/2024-11-26-14-13-15/
REMARK  1 active torsions:
REMARK  status: ('A' for Active; 'I' for Inactive)
REMARK    1  A    between atoms: C_2  and  C_5
REMARK                            x       y       z     vdW  Elec       q    Type
REMARK                         _______ _______ _______ _____ _____    ______ ____
ROOT
ATOM      1  C   UNL A   1     -10.290  -9.491  18.905  0.00  0.00    -0.002 A 
ATOM      2  C   UNL A   1      -9.569 -10.081  18.411  0.00  0.00    +0.011 A 
ATOM      3  C   UNL A   1      -9.887  -9.079  20.249  0.00  0.00    -0.000 A 
ATOM      4  C   UNL A   1      -8.819  -9.254  20.660  0.00  0.00    -0.000 A 
ATOM      5  C   UNL A   1      -7.811  -9.976  19.978  0.00  0.00    -0.000 A 
ATOM      6  C   UNL A   1      -8.171 -10.404  18.669  0.00  0.00    -0.002 A 
ENDROOT
BRANCH   2   7
ATOM      7  C   UNL A   1      -9.881 -10.558  16.966  0.00  0.00    +0.209 C 
ATOM      8  O   UNL A   1     -11.192 -10.507  16.660  0.00  0.00    -0.215 OA
ENDBRANCH   2   7
TORSDOF 1
ENDMDL
ENDMDL
