MODEL 4424
MODEL 1
REMARK VINA RESULT:    -5.192      0.000      0.000
REMARK INTER + INTRA:          -6.254
REMARK INTER:                  -6.103
REMARK INTRA:                  -0.151
REMARK UNBOUND:                -0.151
REMARK  Name = No_4424-gen_results/8p0m/2024-11-26-14-13-15/
REMARK  3 active torsions:
REMARK  status: ('A' for Active; 'I' for Inactive)
REMARK    1  A    between atoms: C_1  and  C_2
REMARK    2  A    between atoms: C_1  and  C_8
REMARK    3  A    between atoms: C_5  and  C_11
REMARK                            x       y       z     vdW  Elec       q    Type
REMARK                         _______ _______ _______ _____ _____    ______ ____
ROOT
ATOM      1  C   UNL A   1     -17.251 -21.928   7.610  0.00  0.00    -0.011 A 
ATOM      2  C   UNL A   1     -17.060 -20.960   6.624  0.00  0.00    -0.004 A 
ATOM      3  C   UNL A   1     -18.046 -19.976   6.137  0.00  0.00    +0.001 A 
ATOM      4  C   UNL A   1     -19.389 -20.172   6.581  0.00  0.00    +0.021 A 
ATOM      5  C   UNL A   1     -19.635 -21.163   7.537  0.00  0.00    +0.001 A 
ATOM      6  C   UNL A   1     -18.674 -21.987   8.013  0.00  0.00    -0.004 A 
ENDROOT
BRANCH   4   7
ATOM      7  C   UNL A   1     -20.396 -19.223   6.114  0.00  0.00    +0.122 C 
ATOM      8  N   UNL A   1     -20.059 -18.044   5.761  0.00  0.00    -0.146 NA
ENDBRANCH   4   7
BRANCH   1   9
ATOM      9  C   UNL A   1     -16.389 -22.698   7.967  0.00  0.00    +0.140 C 
BRANCH   9  10
ATOM     10  C   UNL A   1     -15.553 -22.322   9.149  0.00  0.00    +0.369 C 
ATOM     11  O   UNL A   1     -16.039 -22.258  10.315  0.00  0.00    -0.245 OA
ATOM     12  O   UNL A   1     -14.272 -22.267   9.151  0.00  0.00    -0.245 OA
ENDBRANCH   9  10
ENDBRANCH   1   9
TORSDOF 3
ENDMDL
ENDMDL
