REMARK  Name = No_4425-gen_results/8p0m/2024-11-26-14-13-15/
REMARK  1 active torsions:
REMARK  status: ('A' for Active; 'I' for Inactive)
REMARK    1  A    between atoms: C_3  and  C_4
REMARK                            x       y       z     vdW  Elec       q    Type
REMARK                         _______ _______ _______ _____ _____    ______ ____
ROOT
ATOM      1 CL   UNL A   1     -28.149  -0.820  28.908  0.00  0.00    -0.081 Cl
ATOM      2  C   UNL A   1     -28.532  -0.047  29.773  0.00  0.00    +0.068 C 
ATOM      3  C   UNL A   1     -27.602   0.785  30.319  0.00  0.00    +0.012 C 
ENDROOT
BRANCH   3   4
ATOM      4  C   UNL A   1     -26.214   0.816  29.938  0.00  0.00    +0.001 C 
ATOM      5  C   UNL A   1     -25.892  -0.204  28.948  0.00  0.00    +0.000 C 
ENDBRANCH   3   4
TORSDOF 1
