REMARK  Name = No_4426-gen_results/8p0m/2024-11-26-14-13-15/
REMARK  6 active torsions:
REMARK  status: ('A' for Active; 'I' for Inactive)
REMARK    1  A    between atoms: C_2  and  C_7
REMARK    2  A    between atoms: C_4  and  C_10
REMARK    3  A    between atoms: C_10  and  C_11
REMARK    4  A    between atoms: C_15  and  C_17
REMARK    5  A    between atoms: C_17  and  C_18
REMARK    6  A    between atoms: C_18  and  C_19
REMARK                            x       y       z     vdW  Elec       q    Type
REMARK                         _______ _______ _______ _____ _____    ______ ____
ROOT
ATOM      1  C   UNL A   1     -23.579  -0.589  29.110  0.00  0.00    -0.019 A 
ATOM      2  C   UNL A   1     -22.908   0.574  29.213  0.00  0.00    -0.004 A 
ATOM      3  C   UNL A   1     -22.069   1.083  28.160  0.00  0.00    -0.001 A 
ATOM      4  C   UNL A   1     -22.723   1.572  27.044  0.00  0.00    -0.004 A 
ATOM      5  C   UNL A   1     -24.055   1.091  26.771  0.00  0.00    -0.022 A 
ATOM      6  C   UNL A   1     -24.285  -0.168  27.517  0.00  0.00    -0.008 A 
ENDROOT
BRANCH   1   7
ATOM      7  C   UNL A   1     -24.371  -1.095  30.078  0.00  0.00    +0.038 C 
ATOM      8  C   UNL A   1     -23.959  -2.580  30.318  0.00  0.00    +0.009 C 
ATOM      9  C   UNL A   1     -23.922  -0.303  31.413  0.00  0.00    +0.009 C 
BRANCH   7  13
ATOM     10  C   UNL A   1     -28.016  -0.814  28.878  0.00  0.00    +0.006 A 
ATOM     11  C   UNL A   1     -28.469  -0.785  29.829  0.00  0.00    +0.080 A 
ATOM     12  C   UNL A   1     -26.546  -0.876  28.850  0.00  0.00    -0.004 A 
ATOM     13  C   UNL A   1     -25.804  -1.032  30.057  0.00  0.00    -0.019 A 
ATOM     14  C   UNL A   1     -27.944  -0.987  31.207  0.00  0.00    +0.006 A 
ATOM     15  C   UNL A   1     -26.582  -1.039  31.223  0.00  0.00    -0.004 A 
BRANCH  11  16
ATOM     16  C   UNL A   1     -30.061  -0.737  29.902  0.00  0.00    +0.388 C 
ATOM     17  O   UNL A   1     -30.605   0.086  30.707  0.00  0.00    -0.241 OA
ATOM     18  O   UNL A   1     -30.670  -1.459  29.073  0.00  0.00    -0.241 OA
ENDBRANCH  11  16
ENDBRANCH   7  13
ENDBRANCH   1   7
BRANCH   5  19
ATOM     19  C   UNL A   1     -24.695   1.342  25.595  0.00  0.00    +0.031 C 
BRANCH  19  20
ATOM     20  C   UNL A   1     -25.765   1.030  25.299  0.00  0.00    +0.027 C 
ATOM     21  C   UNL A   1     -26.014  -0.306  24.678  0.00  0.00    +0.005 C 
BRANCH  20  22
ATOM     22  C   UNL A   1     -26.911   1.752  25.585  0.00  0.00    -0.022 A 
ATOM     23  C   UNL A   1     -28.244   1.345  25.231  0.00  0.00    -0.004 A 
ATOM     24  C   UNL A   1     -29.380   2.001  25.669  0.00  0.00    -0.000 A 
ATOM     25  C   UNL A   1     -29.177   3.218  26.403  0.00  0.00    -0.000 A 
ATOM     26  C   UNL A   1     -27.929   3.702  26.694  0.00  0.00    -0.000 A 
ATOM     27  C   UNL A   1     -26.826   2.963  26.339  0.00  0.00    -0.004 A 
ENDBRANCH  20  22
ENDBRANCH  19  20
ENDBRANCH   5  19
TORSDOF 6
