MODEL 4427
MODEL 1
REMARK VINA RESULT:    -7.355      0.000      0.000
REMARK INTER + INTRA:         -10.622
REMARK INTER:                  -9.935
REMARK INTRA:                  -0.687
REMARK UNBOUND:                -0.687
REMARK  Name = No_4427-gen_results/8p0m/2024-11-26-14-13-15/
REMARK  6 active torsions:
REMARK  status: ('A' for Active; 'I' for Inactive)
REMARK    1  A    between atoms: C_1  and  C_2
REMARK    2  A    between atoms: C_5  and  C_10
REMARK    3  A    between atoms: C_19  and  C_20
REMARK    4  A    between atoms: C_22  and  C_23
REMARK    5  A    between atoms: C_24  and  C_25
REMARK    6  A    between atoms: C_26  and  C_27
REMARK                            x       y       z     vdW  Elec       q    Type
REMARK                         _______ _______ _______ _____ _____    ______ ____
ROOT
ATOM      1  C   UNL A   1     -24.595   0.491  25.883  0.00  0.00    +0.102 C 
ATOM      2  N   UNL A   1     -24.503   0.335  27.142  0.00  0.00    -0.263 NA
ATOM      3  C   UNL A   1     -23.315   0.627  27.822  0.00  0.00    +0.137 C 
ATOM      4  C   UNL A   1     -23.018   0.004  29.019  0.00  0.00    +0.030 C 
ATOM      5  C   UNL A   1     -22.342   1.568  27.273  0.00  0.00    +0.256 C 
ATOM      6  N   UNL A   1     -22.616   2.265  26.210  0.00  0.00    -0.203 NA
ATOM      7  C   UNL A   1     -23.577   1.542  25.265  0.00  0.00    +0.136 C 
ATOM      8  C   UNL A   1     -25.382  -0.501  27.829  0.00  0.00    +0.073 C 
ATOM      9  C   UNL A   1     -25.324  -1.266  28.492  0.00  0.00    +0.022 C 
ATOM     10  C   UNL A   1     -24.117  -0.954  29.455  0.00  0.00    +0.025 C 
ATOM     11  O   UNL A   1     -21.208   1.653  27.721  0.00  0.00    -0.272 OA
ENDROOT
BRANCH   1  12
ATOM     12  C   UNL A   1     -25.674   0.673  25.369  0.00  0.00    -0.006 A 
ATOM     13  C   UNL A   1     -26.380  -0.291  24.726  0.00  0.00    -0.003 A 
ATOM     14  C   UNL A   1     -27.702  -0.086  24.093  0.00  0.00    +0.001 A 
ATOM     15  C   UNL A   1     -28.273   1.226  24.195  0.00  0.00    +0.044 A 
ATOM     16  C   UNL A   1     -27.541   2.182  24.934  0.00  0.00    +0.001 A 
ATOM     17  C   UNL A   1     -26.318   1.919  25.494  0.00  0.00    -0.003 A 
BRANCH  15  18
ATOM     18  C   UNL A   1     -29.569   1.543  23.660  0.00  0.00    +0.341 C 
ATOM     19  F   UNL A   1     -30.173   0.958  23.007  0.00  0.00    -0.193 F 
ATOM     20  F   UNL A   1     -29.920   2.880  23.786  0.00  0.00    -0.193 F 
ENDBRANCH  15  18
ENDBRANCH   1  12
BRANCH  10  21
ATOM     21  C   UNL A   1     -23.832  -1.749  30.666  0.00  0.00    -0.026 C 
ATOM     22  C   UNL A   1     -23.837  -1.232  31.720  0.00  0.00    -0.004 C 
BRANCH  22  23
ATOM     23  C   UNL A   1     -23.916  -1.126  32.722  0.00  0.00    +0.009 C 
ATOM     24  C   UNL A   1     -24.172  -0.958  34.123  0.00  0.00    +0.049 C 
BRANCH  24  25
ATOM     25  C   UNL A   1     -24.606  -1.037  35.136  0.00  0.00    -0.063 C 
ATOM     26  C   UNL A   1     -25.220  -1.103  36.223  0.00  0.00    -0.074 C 
BRANCH  26  27
ATOM     27  C   UNL A   1     -25.402  -1.318  37.380  0.00  0.00    +0.143 C 
ATOM     28 BR   UNL A   1     -24.991  -1.109  38.705  0.00  0.00    -0.065 Br
ENDBRANCH  26  27
ENDBRANCH  24  25
ENDBRANCH  22  23
ENDBRANCH  10  21
TORSDOF 6
ENDMDL
ENDMDL
