REMARK  Name = No_4427-gen_results/8p0m/2024-11-26-14-13-15/
REMARK  6 active torsions:
REMARK  status: ('A' for Active; 'I' for Inactive)
REMARK    1  A    between atoms: C_1  and  C_2
REMARK    2  A    between atoms: C_5  and  C_10
REMARK    3  A    between atoms: C_19  and  C_20
REMARK    4  A    between atoms: C_22  and  C_23
REMARK    5  A    between atoms: C_24  and  C_25
REMARK    6  A    between atoms: C_26  and  C_27
REMARK                            x       y       z     vdW  Elec       q    Type
REMARK                         _______ _______ _______ _____ _____    ______ ____
ROOT
ATOM      1  C   UNL A   1     -28.016  -0.814  28.878  0.00  0.00    +0.102 C 
ATOM      2  N   UNL A   1     -29.178  -0.305  28.964  0.00  0.00    -0.263 NA
ATOM      3  C   UNL A   1     -30.177  -0.907  29.737  0.00  0.00    +0.137 C 
ATOM      4  C   UNL A   1     -31.512  -0.702  29.447  0.00  0.00    +0.030 C 
ATOM      5  C   UNL A   1     -29.840  -1.795  30.847  0.00  0.00    +0.256 C 
ATOM      6  N   UNL A   1     -28.607  -1.938  31.235  0.00  0.00    -0.203 NA
ATOM      7  C   UNL A   1     -27.607  -1.750  30.094  0.00  0.00    +0.136 C 
ATOM      8  C   UNL A   1     -29.641   0.595  28.004  0.00  0.00    +0.073 C 
ATOM      9  C   UNL A   1     -30.461   0.708  27.418  0.00  0.00    +0.022 C 
ATOM     10  C   UNL A   1     -31.703   0.233  28.261  0.00  0.00    +0.025 C 
ATOM     11  O   UNL A   1     -30.679  -2.512  31.373  0.00  0.00    -0.272 OA
ENDROOT
BRANCH   1  12
ATOM     12  C   UNL A   1     -27.064  -0.119  28.608  0.00  0.00    -0.006 A 
ATOM     13  C   UNL A   1     -26.929   1.171  29.008  0.00  0.00    -0.003 A 
ATOM     14  C   UNL A   1     -25.770   2.034  28.688  0.00  0.00    +0.001 A 
ATOM     15  C   UNL A   1     -24.714   1.443  27.919  0.00  0.00    +0.044 A 
ATOM     16  C   UNL A   1     -24.859   0.078  27.584  0.00  0.00    +0.001 A 
ATOM     17  C   UNL A   1     -25.965  -0.661  27.916  0.00  0.00    -0.003 A 
BRANCH  15  18
ATOM     18  C   UNL A   1     -23.516   2.162  27.579  0.00  0.00    +0.341 C 
ATOM     19  F   UNL A   1     -23.384   2.901  26.825  0.00  0.00    -0.193 F 
ATOM     20  F   UNL A   1     -22.357   1.608  28.104  0.00  0.00    -0.193 F 
ENDBRANCH  15  18
ENDBRANCH   1  12
BRANCH  10  21
ATOM     21  C   UNL A   1     -33.097   0.419  27.809  0.00  0.00    -0.026 C 
ATOM     22  C   UNL A   1     -33.929   0.711  28.583  0.00  0.00    -0.004 C 
BRANCH  22  23
ATOM     23  C   UNL A   1     -34.791   1.093  28.947  0.00  0.00    +0.009 C 
ATOM     24  C   UNL A   1     -35.974   1.581  29.595  0.00  0.00    +0.049 C 
BRANCH  24  25
ATOM     25  C   UNL A   1     -36.668   2.058  30.310  0.00  0.00    -0.063 C 
ATOM     26  C   UNL A   1     -37.544   2.607  31.013  0.00  0.00    -0.074 C 
BRANCH  26  27
ATOM     27  C   UNL A   1     -38.086   3.002  31.997  0.00  0.00    +0.143 C 
ATOM     28 BR   UNL A   1     -39.210   3.620  32.566  0.00  0.00    -0.065 Br
ENDBRANCH  26  27
ENDBRANCH  24  25
ENDBRANCH  22  23
ENDBRANCH  10  21
TORSDOF 6
