MODEL 4428
MODEL 1
REMARK VINA RESULT:    -4.453      0.000      0.000
REMARK INTER + INTRA:          -4.453
REMARK INTER:                  -4.453
REMARK INTRA:                   0.000
REMARK UNBOUND:                 0.000
REMARK  Name = No_4428-gen_results/8p0m/2024-11-26-14-13-15/
REMARK  0 active torsions:
REMARK  status: ('A' for Active; 'I' for Inactive)
REMARK                            x       y       z     vdW  Elec       q    Type
REMARK                         _______ _______ _______ _____ _____    ______ ____
ROOT
ATOM      1  C   UNL A   1     -24.011  -4.129  28.779  0.00  0.00    +0.011 A 
ATOM      2  C   UNL A   1     -24.238  -2.996  29.135  0.00  0.00    +0.058 A 
ATOM      3  C   UNL A   1     -25.401  -2.601  29.713  0.00  0.00    +0.011 A 
ATOM      4  C   UNL A   1     -26.409  -3.564  29.912  0.00  0.00    +0.001 A 
ATOM      5  C   UNL A   1     -24.958  -5.183  29.039  0.00  0.00    +0.001 A 
ATOM      6  C   UNL A   1     -26.154  -4.834  29.590  0.00  0.00    +0.000 A 
ATOM      7 CL   UNL A   1     -23.056  -1.732  28.944  0.00  0.00    -0.082 Cl
ENDROOT
TORSDOF 0
ENDMDL
ENDMDL
