MODEL 4429
MODEL 1
REMARK VINA RESULT:    -6.050      0.000      0.000
REMARK INTER + INTRA:          -7.551
REMARK INTER:                  -7.111
REMARK INTRA:                  -0.439
REMARK UNBOUND:                -0.439
REMARK  Name = No_4429-gen_results/8p0m/2024-11-26-14-13-15/
REMARK  3 active torsions:
REMARK  status: ('A' for Active; 'I' for Inactive)
REMARK    1  A    between atoms: C_3  and  C_15
REMARK    2  A    between atoms: C_6  and  C_11
REMARK    3  A    between atoms: N_17  and  C_18
REMARK                            x       y       z     vdW  Elec       q    Type
REMARK                         _______ _______ _______ _____ _____    ______ ____
ROOT
ATOM      1  C   UNL A   1     -10.387   2.628  11.498  0.00  0.00    +0.000 A 
ATOM      2  C   UNL A   1      -9.588   2.298  10.652  0.00  0.00    +0.005 A 
ATOM      3  C   UNL A   1      -9.640   2.730   9.341  0.00  0.00    +0.055 A 
ATOM      4  C   UNL A   1      -8.755   2.304   8.274  0.00  0.00    +0.005 A 
ATOM      5  C   UNL A   1      -8.043   1.499   8.425  0.00  0.00    +0.005 A 
ATOM      6  C   UNL A   1      -7.779   0.839   9.744  0.00  0.00    +0.055 A 
ATOM      7  C   UNL A   1      -8.607   1.230  10.824  0.00  0.00    +0.005 A 
ATOM      8  C   UNL A   1      -9.996   2.226  12.912  0.00  0.00    +0.000 A 
ATOM      9  C   UNL A   1      -9.267   1.067  13.134  0.00  0.00    +0.000 A 
ATOM     10  C   UNL A   1      -8.412   0.651  12.104  0.00  0.00    +0.000 A 
ENDROOT
BRANCH   6  11
ATOM     11  C   UNL A   1      -6.722  -0.221   9.868  0.00  0.00    +0.265 C 
ATOM     12  N   UNL A   1      -5.492   0.104  10.207  0.00  0.00    -0.200 NA
ATOM     13  O   UNL A   1      -7.054  -1.389   9.623  0.00  0.00    -0.268 OA
ATOM     14  C   UNL A   1      -4.256  -0.770  10.102  0.00  0.00    +0.139 C 
ENDBRANCH   6  11
BRANCH   3  15
ATOM     15  C   UNL A   1     -10.693   3.641   8.830  0.00  0.00    +0.265 C 
ATOM     16  O   UNL A   1     -11.538   3.348   8.224  0.00  0.00    -0.268 OA
ATOM     17  N   UNL A   1     -10.315   5.015   8.873  0.00  0.00    -0.202 NA
BRANCH  17  18
ATOM     18  C   UNL A   1     -11.187   6.017   8.274  0.00  0.00    +0.116 C 
ATOM     19  C   UNL A   1     -11.606   6.748   9.151  0.00  0.00    +0.025 C 
ENDBRANCH  17  18
ENDBRANCH   3  15
TORSDOF 3
ENDMDL
ENDMDL
