REMARK  Name = No_4429-gen_results/8p0m/2024-11-26-14-13-15/
REMARK  3 active torsions:
REMARK  status: ('A' for Active; 'I' for Inactive)
REMARK    1  A    between atoms: C_3  and  C_15
REMARK    2  A    between atoms: C_6  and  C_11
REMARK    3  A    between atoms: N_17  and  C_18
REMARK                            x       y       z     vdW  Elec       q    Type
REMARK                         _______ _______ _______ _____ _____    ______ ____
ROOT
ATOM      1  C   UNL A   1     -28.016  -0.814  28.878  0.00  0.00    +0.000 A 
ATOM      2  C   UNL A   1     -27.064  -0.119  28.608  0.00  0.00    +0.005 A 
ATOM      3  C   UNL A   1     -27.001   0.691  27.491  0.00  0.00    +0.055 A 
ATOM      4  C   UNL A   1     -25.855   1.482  27.083  0.00  0.00    +0.005 A 
ATOM      5  C   UNL A   1     -24.901   1.389  27.592  0.00  0.00    +0.005 A 
ATOM      6  C   UNL A   1     -24.678   0.576  28.830  0.00  0.00    +0.055 A 
ATOM      7  C   UNL A   1     -25.770  -0.205  29.280  0.00  0.00    +0.005 A 
ATOM      8  C   UNL A   1     -27.963  -1.428  30.268  0.00  0.00    +0.000 A 
ATOM      9  C   UNL A   1     -26.744  -1.758  30.842  0.00  0.00    +0.000 A 
ATOM     10  C   UNL A   1     -25.634  -0.997  30.448  0.00  0.00    +0.000 A 
ENDROOT
BRANCH   6  11
ATOM     11  C   UNL A   1     -23.335   0.565  29.504  0.00  0.00    +0.265 C 
ATOM     12  N   UNL A   1     -22.235   0.701  28.794  0.00  0.00    -0.200 NA
ATOM     13  O   UNL A   1     -23.315   0.406  30.732  0.00  0.00    -0.268 OA
ATOM     14  C   UNL A   1     -20.814   0.430  29.253  0.00  0.00    +0.139 C 
ENDBRANCH   6  11
BRANCH   3  15
ATOM     15  C   UNL A   1     -28.095   0.784  26.495  0.00  0.00    +0.265 C 
ATOM     16  O   UNL A   1     -29.124   0.499  26.661  0.00  0.00    -0.268 OA
ATOM     17  N   UNL A   1     -27.624   0.927  25.157  0.00  0.00    -0.202 NA
BRANCH  17  18
ATOM     18  C   UNL A   1     -28.576   0.889  24.054  0.00  0.00    +0.116 C 
ATOM     19  C   UNL A   1     -29.556   0.258  24.402  0.00  0.00    +0.025 C 
ENDBRANCH  17  18
ENDBRANCH   3  15
TORSDOF 3
