MODEL 442
MODEL 1
REMARK VINA RESULT:    -7.514      0.000      0.000
REMARK INTER + INTRA:          -8.693
REMARK INTER:                  -8.392
REMARK INTRA:                  -0.301
REMARK UNBOUND:                -0.301
REMARK  Name = No_442-gen_results/8p0m/2024-11-26-14-13-15/
REMARK  2 active torsions:
REMARK  status: ('A' for Active; 'I' for Inactive)
REMARK    1  A    between atoms: C_6  and  C_20
REMARK    2  A    between atoms: C_11  and  C_16
REMARK                            x       y       z     vdW  Elec       q    Type
REMARK                         _______ _______ _______ _____ _____    ______ ____
ROOT
ATOM      1  O   UNL A   1      -7.734   1.708  33.787  0.00  0.00    -0.273 OA
ATOM      2  C   UNL A   1      -8.522   1.224  34.473  0.00  0.00    +0.245 C 
ATOM      3  N   UNL A   1      -9.674   1.744  34.643  0.00  0.00    -0.206 NA
ATOM      4  C   UNL A   1     -10.640   1.370  35.687  0.00  0.00    +0.110 C 
ATOM      5  C   UNL A   1     -11.799   2.037  35.810  0.00  0.00    +0.066 C 
ATOM      6  C   UNL A   1      -8.200  -0.038  35.347  0.00  0.00    +0.101 C 
ATOM      7  C   UNL A   1     -12.797   1.972  35.033  0.00  0.00    +0.006 C 
ATOM      8  C   UNL A   1     -14.098   2.653  35.259  0.00  0.00    +0.000 C 
ATOM      9  C   UNL A   1     -14.312   3.033  36.607  0.00  0.00    +0.004 C 
ATOM     10  C   UNL A   1     -13.319   2.956  37.569  0.00  0.00    +0.049 C 
ATOM     11  C   UNL A   1     -12.142   2.376  37.249  0.00  0.00    +0.208 C 
ATOM     12  C   UNL A   1     -10.182   0.318  36.535  0.00  0.00    +0.120 C 
ATOM     13  C   UNL A   1      -8.999  -0.403  36.378  0.00  0.00    +0.026 C 
ATOM     14  C   UNL A   1     -11.107  -0.114  37.655  0.00  0.00    +0.318 C 
ATOM     15  O   UNL A   1     -11.922   0.928  38.177  0.00  0.00    -0.447 OA
ATOM     16  O   UNL A   1     -11.554  -1.169  37.905  0.00  0.00    -0.250 OA
ENDROOT
BRANCH   6  17
ATOM     17  C   UNL A   1      -6.876  -0.587  35.122  0.00  0.00    -0.014 A 
ATOM     18  C   UNL A   1      -6.772  -1.715  34.520  0.00  0.00    -0.004 A 
ATOM     19  C   UNL A   1      -5.434  -2.249  34.174  0.00  0.00    -0.000 A 
ATOM     20  C   UNL A   1      -4.356  -1.614  34.670  0.00  0.00    -0.000 A 
ATOM     21  C   UNL A   1      -5.781   0.117  35.632  0.00  0.00    -0.004 A 
ATOM     22  C   UNL A   1      -4.494  -0.375  35.354  0.00  0.00    -0.000 A 
ENDBRANCH   6  17
BRANCH  11  23
ATOM     23  C   UNL A   1     -11.078   3.389  37.755  0.00  0.00    +0.297 C 
ATOM     24  O   UNL A   1     -10.375   3.314  38.598  0.00  0.00    -0.268 OA
ATOM     25  N   UNL A   1     -11.062   4.626  36.990  0.00  0.00    -0.085 NA
ENDBRANCH  11  23
TORSDOF 2
ENDMDL
ENDMDL
