REMARK  Name = No_443-gen_results/8p0m/2024-11-26-14-13-15/
REMARK  7 active torsions:
REMARK  status: ('A' for Active; 'I' for Inactive)
REMARK    1  A    between atoms: C_5  and  C_8
REMARK    2  A    between atoms: C_6  and  O_16
REMARK    3  A    between atoms: O_16  and  C_17
REMARK    4  A    between atoms: C_17  and  C_18
REMARK    5  A    between atoms: C_18  and  N_21
REMARK    6  A    between atoms: N_21  and  C_22
REMARK    7  A    between atoms: C_22  and  C_23
REMARK                            x       y       z     vdW  Elec       q    Type
REMARK                         _______ _______ _______ _____ _____    ______ ____
ROOT
ATOM      1  F   UNL A   1     -28.073  -1.254  28.532  0.00  0.00    -0.199 F 
ATOM      2  C   UNL A   1     -27.061  -0.629  28.872  0.00  0.00    +0.198 A 
ATOM      3  C   UNL A   1     -26.153  -1.156  29.454  0.00  0.00    +0.170 A 
ATOM      4  C   UNL A   1     -24.878  -0.579  29.864  0.00  0.00    +0.040 A 
ATOM      5  C   UNL A   1     -24.743   0.827  29.481  0.00  0.00    +0.094 A 
ATOM      6  C   UNL A   1     -25.788   1.393  28.763  0.00  0.00    +0.172 A 
ATOM      7  C   UNL A   1     -26.915   0.731  28.443  0.00  0.00    +0.203 A 
ATOM      8  F   UNL A   1     -27.878   1.300  27.781  0.00  0.00    -0.199 F 
ATOM      9  F   UNL A   1     -26.212  -2.474  29.912  0.00  0.00    -0.202 F 
ENDROOT
BRANCH   5  10
ATOM     10  C   UNL A   1     -23.540   1.527  29.845  0.00  0.00    +0.274 C 
ATOM     11  N   UNL A   1     -22.413   1.211  29.312  0.00  0.00    -0.141 NA
ATOM     12  O   UNL A   1     -23.628   2.420  30.805  0.00  0.00    -0.268 OA
ATOM     13  C   UNL A   1     -22.181   0.326  28.276  0.00  0.00    +0.249 C 
ATOM     14  C   UNL A   1     -20.743   0.402  28.065  0.00  0.00    +0.097 C 
ATOM     15  O   UNL A   1     -22.847  -0.525  28.198  0.00  0.00    -0.273 OA
ENDBRANCH   5  10
BRANCH   6  16
ATOM     16  O   UNL A   1     -25.611   2.699  28.377  0.00  0.00    -0.474 OA
BRANCH  16  17
ATOM     17  C   UNL A   1     -25.026   3.018  27.157  0.00  0.00    +0.200 C 
ATOM     18  C   UNL A   1     -24.592   2.120  26.206  0.00  0.00    +0.050 C 
BRANCH  17  19
ATOM     19  C   UNL A   1     -24.941   4.350  26.898  0.00  0.00    +0.204 C 
ATOM     20  N   UNL A   1     -24.433   4.737  25.723  0.00  0.00    -0.110 NA
BRANCH  19  21
ATOM     21  N   UNL A   1     -25.311   5.343  27.822  0.00  0.00    -0.193 NA
BRANCH  21  22
ATOM     22  C   UNL A   1     -25.144   6.679  27.498  0.00  0.00    +0.117 C 
BRANCH  22  23
ATOM     23  C   UNL A   1     -25.205   7.583  28.639  0.00  0.00    -0.005 A 
ATOM     24  C   UNL A   1     -25.467   7.074  29.870  0.00  0.00    -0.003 A 
ATOM     25  C   UNL A   1     -25.573   7.893  31.024  0.00  0.00    -0.000 A 
ATOM     26  C   UNL A   1     -25.348   9.260  30.796  0.00  0.00    -0.000 A 
ATOM     27  C   UNL A   1     -25.073   9.844  29.599  0.00  0.00    -0.000 A 
ATOM     28  C   UNL A   1     -24.960   8.961  28.445  0.00  0.00    -0.003 A 
ENDBRANCH  22  23
ENDBRANCH  21  22
ENDBRANCH  19  21
ENDBRANCH  17  19
ENDBRANCH  16  17
ENDBRANCH   6  16
TORSDOF 7
