MODEL 4430
MODEL 1
REMARK VINA RESULT:    -5.061      0.000      0.000
REMARK INTER + INTRA:          -6.136
REMARK INTER:                  -5.949
REMARK INTRA:                  -0.187
REMARK UNBOUND:                -0.187
REMARK  Name = No_4430-gen_results/8p0m/2024-11-26-14-13-15/
REMARK  3 active torsions:
REMARK  status: ('A' for Active; 'I' for Inactive)
REMARK    1  A    between atoms: C_6  and  O_8
REMARK    2  A    between atoms: O_8  and  C_9
REMARK    3  A    between atoms: C_9  and  C_10
REMARK                            x       y       z     vdW  Elec       q    Type
REMARK                         _______ _______ _______ _____ _____    ______ ____
ROOT
ATOM      1  C   UNL A   1     -30.298 -10.028  30.493  0.00  0.00    +0.038 A 
ATOM      2  C   UNL A   1     -30.801  -9.969  29.395  0.00  0.00    +0.015 A 
ATOM      3  C   UNL A   1     -30.401 -10.761  28.319  0.00  0.00    +0.058 A 
ATOM      4  C   UNL A   1     -29.285 -11.671  28.489  0.00  0.00    +0.015 A 
ATOM      5  C   UNL A   1     -28.742 -11.679  29.794  0.00  0.00    +0.038 A 
ATOM      6  C   UNL A   1     -29.182 -10.891  30.742  0.00  0.00    +0.139 A 
ATOM      7 CL   UNL A   1     -31.082 -10.720  26.746  0.00  0.00    -0.082 Cl
ENDROOT
BRANCH   6   8
ATOM      8  O   UNL A   1     -28.561 -10.939  31.981  0.00  0.00    -0.464 OA
BRANCH   8   9
ATOM      9  C   UNL A   1     -28.539 -12.102  32.658  0.00  0.00    +0.319 C 
BRANCH   9  10
ATOM     10  C   UNL A   1     -27.291 -12.298  33.259  0.00  0.00    +0.408 C 
ATOM     11  O   UNL A   1     -26.465 -12.884  32.619  0.00  0.00    -0.241 OA
ATOM     12  O   UNL A   1     -27.194 -12.273  34.536  0.00  0.00    -0.241 OA
ENDBRANCH   9  10
ENDBRANCH   8   9
ENDBRANCH   6   8
TORSDOF 3
ENDMDL
ENDMDL
