REMARK  Name = No_4430-gen_results/8p0m/2024-11-26-14-13-15/
REMARK  3 active torsions:
REMARK  status: ('A' for Active; 'I' for Inactive)
REMARK    1  A    between atoms: C_6  and  O_8
REMARK    2  A    between atoms: O_8  and  C_9
REMARK    3  A    between atoms: C_9  and  C_10
REMARK                            x       y       z     vdW  Elec       q    Type
REMARK                         _______ _______ _______ _____ _____    ______ ____
ROOT
ATOM      1  C   UNL A   1     -28.016  -0.814  28.878  0.00  0.00    +0.038 A 
ATOM      2  C   UNL A   1     -27.064  -0.119  28.608  0.00  0.00    +0.015 A 
ATOM      3  C   UNL A   1     -25.765  -0.390  29.036  0.00  0.00    +0.058 A 
ATOM      4  C   UNL A   1     -25.530  -1.530  29.901  0.00  0.00    +0.015 A 
ATOM      5  C   UNL A   1     -26.689  -2.289  30.181  0.00  0.00    +0.038 A 
ATOM      6  C   UNL A   1     -27.873  -1.951  29.737  0.00  0.00    +0.139 A 
ATOM      7 CL   UNL A   1     -24.382   0.559  28.679  0.00  0.00    -0.082 Cl
ENDROOT
BRANCH   6   8
ATOM      8  O   UNL A   1     -28.960  -2.734  30.097  0.00  0.00    -0.464 OA
BRANCH   8   9
ATOM      9  C   UNL A   1     -30.055  -2.140  30.608  0.00  0.00    +0.319 C 
BRANCH   9  10
ATOM     10  C   UNL A   1     -30.615  -2.928  31.619  0.00  0.00    +0.408 C 
ATOM     11  O   UNL A   1     -31.587  -2.496  32.170  0.00  0.00    -0.241 OA
ATOM     12  O   UNL A   1     -29.889  -3.798  32.217  0.00  0.00    -0.241 OA
ENDBRANCH   9  10
ENDBRANCH   8   9
ENDBRANCH   6   8
TORSDOF 3
