MODEL 4431
MODEL 1
REMARK VINA RESULT:    -4.272      0.000      0.000
REMARK INTER + INTRA:          -4.272
REMARK INTER:                  -4.272
REMARK INTRA:                   0.000
REMARK UNBOUND:                 0.000
REMARK  Name = No_4431-gen_results/8p0m/2024-11-26-14-13-15/
REMARK  0 active torsions:
REMARK  status: ('A' for Active; 'I' for Inactive)
REMARK                            x       y       z     vdW  Elec       q    Type
REMARK                         _______ _______ _______ _____ _____    ______ ____
ROOT
ATOM      1  C   UNL A   1     -26.071  -4.791  29.643  0.00  0.00    +0.000 A 
ATOM      2  C   UNL A   1     -26.151  -3.587  29.716  0.00  0.00    +0.000 A 
ATOM      3  C   UNL A   1     -25.145  -2.729  29.315  0.00  0.00    +0.000 A 
ATOM      4  C   UNL A   1     -23.970  -3.297  28.750  0.00  0.00    +0.000 A 
ATOM      5  C   UNL A   1     -23.999  -4.633  28.532  0.00  0.00    +0.000 A 
ATOM      6  C   UNL A   1     -25.024  -5.372  28.912  0.00  0.00    +0.000 A 
ENDROOT
TORSDOF 0
ENDMDL
ENDMDL
