REMARK  Name = No_4432-gen_results/8p0m/2024-11-26-14-13-15/
REMARK  3 active torsions:
REMARK  status: ('A' for Active; 'I' for Inactive)
REMARK    1  A    between atoms: C_3  and  C_7
REMARK    2  A    between atoms: C_8  and  C_10
REMARK    3  A    between atoms: C_10  and  C_11
REMARK                            x       y       z     vdW  Elec       q    Type
REMARK                         _______ _______ _______ _____ _____    ______ ____
ROOT
ATOM      1  C   UNL A   1     -24.427   0.219  28.775  0.00  0.00    +0.014 C 
ATOM      2  C   UNL A   1     -24.009   1.274  29.439  0.00  0.00    +0.071 C 
ATOM      3  N   UNL A   1     -22.805   1.842  29.002  0.00  0.00    -0.132 NA
ENDROOT
BRANCH   1   6
ATOM      4  C   UNL A   1     -28.016  -0.814  28.878  0.00  0.00    +0.000 A 
ATOM      5  C   UNL A   1     -27.064  -0.119  28.608  0.00  0.00    +0.000 A 
ATOM      6  C   UNL A   1     -25.765  -0.390  29.036  0.00  0.00    +0.001 A 
ATOM      7  C   UNL A   1     -25.530  -1.530  29.901  0.00  0.00    +0.000 A 
ATOM      8  C   UNL A   1     -26.658  -2.292  30.203  0.00  0.00    +0.000 A 
ATOM      9  C   UNL A   1     -27.855  -1.956  29.763  0.00  0.00    +0.000 A 
ENDBRANCH   1   6
BRANCH   2  10
ATOM     10  C   UNL A   1     -24.669   1.907  30.547  0.00  0.00    +0.071 C 
BRANCH  10  11
ATOM     11  C   UNL A   1     -25.906   2.337  30.481  0.00  0.00    -0.016 A 
ATOM     12  C   UNL A   1     -26.178   3.530  29.816  0.00  0.00    -0.004 A 
ATOM     13  C   UNL A   1     -27.467   4.120  29.791  0.00  0.00    -0.000 A 
ATOM     14  C   UNL A   1     -28.451   3.431  30.507  0.00  0.00    -0.000 A 
ATOM     15  C   UNL A   1     -28.195   2.327  31.261  0.00  0.00    -0.000 A 
ATOM     16  C   UNL A   1     -26.919   1.820  31.352  0.00  0.00    -0.004 A 
ENDBRANCH  10  11
ENDBRANCH   2  10
TORSDOF 3
