MODEL 4432
MODEL 1
REMARK VINA RESULT:    -7.246      0.000      0.000
REMARK INTER + INTRA:          -9.148
REMARK INTER:                  -8.517
REMARK INTRA:                  -0.632
REMARK UNBOUND:                -0.632
REMARK  Name = No_4432-gen_results/8p0m/2024-11-26-14-13-15/
REMARK  3 active torsions:
REMARK  status: ('A' for Active; 'I' for Inactive)
REMARK    1  A    between atoms: C_3  and  C_7
REMARK    2  A    between atoms: C_8  and  C_10
REMARK    3  A    between atoms: C_10  and  C_11
REMARK                            x       y       z     vdW  Elec       q    Type
REMARK                         _______ _______ _______ _____ _____    ______ ____
ROOT
ATOM      1  C   UNL A   1     -23.075   0.614  29.374  0.00  0.00    +0.014 C 
ATOM      2  C   UNL A   1     -22.997  -0.615  29.834  0.00  0.00    +0.071 C 
ATOM      3  N   UNL A   1     -22.769  -0.746  31.210  0.00  0.00    -0.132 NA
ENDROOT
BRANCH   1   6
ATOM      4  C   UNL A   1     -24.732   1.012  26.049  0.00  0.00    +0.000 A 
ATOM      5  C   UNL A   1     -24.577   0.596  27.173  0.00  0.00    +0.000 A 
ATOM      6  C   UNL A   1     -23.466   0.896  27.960  0.00  0.00    +0.001 A 
ATOM      7  C   UNL A   1     -22.399   1.702  27.398  0.00  0.00    +0.000 A 
ATOM      8  C   UNL A   1     -22.611   2.144  26.093  0.00  0.00    +0.000 A 
ATOM      9  C   UNL A   1     -23.689   1.802  25.415  0.00  0.00    +0.000 A 
ENDBRANCH   1   6
BRANCH   2  10
ATOM     10  C   UNL A   1     -23.140  -1.827  29.075  0.00  0.00    +0.071 C 
BRANCH  10  11
ATOM     11  C   UNL A   1     -24.081  -2.707  29.319  0.00  0.00    -0.016 A 
ATOM     12  C   UNL A   1     -23.918  -4.018  28.880  0.00  0.00    -0.004 A 
ATOM     13  C   UNL A   1     -24.930  -5.003  29.006  0.00  0.00    -0.000 A 
ATOM     14  C   UNL A   1     -26.124  -4.559  29.583  0.00  0.00    -0.000 A 
ATOM     15  C   UNL A   1     -26.358  -3.261  29.917  0.00  0.00    -0.000 A 
ATOM     16  C   UNL A   1     -25.400  -2.297  29.701  0.00  0.00    -0.004 A 
ENDBRANCH  10  11
ENDBRANCH   2  10
TORSDOF 3
ENDMDL
ENDMDL
