REMARK  Name = No_4433-gen_results/8p0m/2024-11-26-14-13-15/
REMARK  0 active torsions:
REMARK  status: ('A' for Active; 'I' for Inactive)
REMARK                            x       y       z     vdW  Elec       q    Type
REMARK                         _______ _______ _______ _____ _____    ______ ____
ROOT
ATOM      1  C   UNL A   1     -28.016  -0.814  28.878  0.00  0.00    +0.017 A 
ATOM      2  C   UNL A   1     -28.469  -0.785  29.829  0.00  0.00    +0.001 A 
ATOM      3  C   UNL A   1     -26.504  -0.778  28.877  0.00  0.00    +0.072 A 
ATOM      4  C   UNL A   1     -25.810  -0.853  30.103  0.00  0.00    +0.031 A 
ATOM      5  C   UNL A   1     -27.991  -0.892  31.226  0.00  0.00    +0.000 A 
ATOM      6  C   UNL A   1     -24.398  -0.836  30.177  0.00  0.00    +0.086 C 
ATOM      7  C   UNL A   1     -26.575  -0.890  31.266  0.00  0.00    +0.003 A 
ATOM      8  N   UNL A   1     -23.781  -1.114  31.077  0.00  0.00    -0.152 NA
ATOM      9  C   UNL A   1     -23.601  -0.440  28.985  0.00  0.00    +0.075 C 
ATOM     10  C   UNL A   1     -23.919   0.269  27.909  0.00  0.00    -0.001 A 
ATOM     11  C   UNL A   1     -23.530   1.583  27.607  0.00  0.00    -0.003 A 
ATOM     12  C   UNL A   1     -23.881   2.245  26.412  0.00  0.00    -0.000 A 
ATOM     13  C   UNL A   1     -24.807   1.566  25.570  0.00  0.00    +0.001 A 
ATOM     14  C   UNL A   1     -25.271   0.319  25.938  0.00  0.00    +0.016 A 
ATOM     15  C   UNL A   1     -24.838  -0.296  27.009  0.00  0.00    +0.067 A 
ATOM     16  N   UNL A   1     -25.749  -0.549  27.754  0.00  0.00    -0.213 NA
ENDROOT
TORSDOF 0
