MODEL 4433
MODEL 1
REMARK VINA RESULT:    -7.026      0.000      0.000
REMARK INTER + INTRA:          -7.026
REMARK INTER:                  -7.026
REMARK INTRA:                   0.000
REMARK UNBOUND:                 0.000
REMARK  Name = No_4433-gen_results/8p0m/2024-11-26-14-13-15/
REMARK  0 active torsions:
REMARK  status: ('A' for Active; 'I' for Inactive)
REMARK                            x       y       z     vdW  Elec       q    Type
REMARK                         _______ _______ _______ _____ _____    ______ ____
ROOT
ATOM      1  C   UNL A   1     -23.866  -3.638  28.929  0.00  0.00    +0.017 A 
ATOM      2  C   UNL A   1     -24.789  -4.146  28.891  0.00  0.00    +0.001 A 
ATOM      3  C   UNL A   1     -23.883  -2.313  29.658  0.00  0.00    +0.072 A 
ATOM      4  C   UNL A   1     -25.050  -1.917  30.345  0.00  0.00    +0.031 A 
ATOM      5  C   UNL A   1     -26.111  -3.975  29.535  0.00  0.00    +0.000 A 
ATOM      6  C   UNL A   1     -25.134  -0.698  31.056  0.00  0.00    +0.086 C 
ATOM      7  C   UNL A   1     -26.158  -2.755  30.253  0.00  0.00    +0.003 A 
ATOM      8  N   UNL A   1     -25.932  -0.422  31.801  0.00  0.00    -0.152 NA
ATOM      9  C   UNL A   1     -24.093   0.346  30.858  0.00  0.00    +0.075 C 
ATOM     10  C   UNL A   1     -23.240   0.561  29.864  0.00  0.00    -0.001 A 
ATOM     11  C   UNL A   1     -23.296   1.574  28.894  0.00  0.00    -0.003 A 
ATOM     12  C   UNL A   1     -22.316   1.754  27.897  0.00  0.00    -0.000 A 
ATOM     13  C   UNL A   1     -21.320   0.740  27.809  0.00  0.00    +0.001 A 
ATOM     14  C   UNL A   1     -21.344  -0.314  28.700  0.00  0.00    +0.016 A 
ATOM     15  C   UNL A   1     -22.217  -0.383  29.672  0.00  0.00    +0.067 A 
ATOM     16  N   UNL A   1     -22.864  -1.395  29.593  0.00  0.00    -0.213 NA
ENDROOT
TORSDOF 0
ENDMDL
ENDMDL
