MODEL 4434
MODEL 1
REMARK VINA RESULT:    -6.019      0.000      0.000
REMARK INTER + INTRA:          -7.921
REMARK INTER:                  -7.426
REMARK INTRA:                  -0.495
REMARK UNBOUND:                -0.495
REMARK  Name = No_4434-gen_results/8p0m/2024-11-26-14-13-15/
REMARK  4 active torsions:
REMARK  status: ('A' for Active; 'I' for Inactive)
REMARK    1  A    between atoms: C_2  and  C_3
REMARK    2  A    between atoms: C_3  and  C_6
REMARK    3  A    between atoms: N_4  and  C_5
REMARK    4  A    between atoms: C_6  and  C_7
REMARK                            x       y       z     vdW  Elec       q    Type
REMARK                         _______ _______ _______ _____ _____    ______ ____
ROOT
ATOM      1  C   UNL A   1     -23.080  -0.785  29.949  0.00  0.00    +0.092 C 
ENDROOT
BRANCH   1   3
ATOM      2  O   UNL A   1     -23.571   1.313  29.940  0.00  0.00    -0.273 OA
ATOM      3  C   UNL A   1     -23.074   0.396  29.461  0.00  0.00    +0.246 C 
ATOM      4  N   UNL A   1     -22.650   0.575  28.119  0.00  0.00    -0.178 NA
BRANCH   4   5
ATOM      5  C   UNL A   1     -22.478   1.769  27.475  0.00  0.00    +0.084 C 
ATOM      6  C   UNL A   1     -22.878   2.219  26.563  0.00  0.00    -0.008 C 
ATOM      7  C   UNL A   1     -23.829   1.585  25.670  0.00  0.00    +0.032 C 
ENDBRANCH   4   5
ENDBRANCH   1   3
BRANCH   1   8
ATOM      8  C   UNL A   1     -23.347  -1.760  28.947  0.00  0.00    +0.036 C 
BRANCH   8   9
ATOM      9  C   UNL A   1     -24.150  -2.730  29.209  0.00  0.00    -0.022 A 
ATOM     10  C   UNL A   1     -23.987  -4.075  28.823  0.00  0.00    -0.004 A 
ATOM     11  C   UNL A   1     -24.983  -5.131  29.026  0.00  0.00    -0.000 A 
ATOM     12  C   UNL A   1     -26.233  -4.765  29.576  0.00  0.00    -0.000 A 
ATOM     13  C   UNL A   1     -26.448  -3.426  29.907  0.00  0.00    -0.000 A 
ATOM     14  C   UNL A   1     -25.500  -2.486  29.683  0.00  0.00    -0.004 A 
ENDBRANCH   8   9
ENDBRANCH   1   8
TORSDOF 4
ENDMDL
ENDMDL
