MODEL 4435
MODEL 1
REMARK VINA RESULT:    -6.137      0.000      0.000
REMARK INTER + INTRA:          -6.566
REMARK INTER:                  -6.496
REMARK INTRA:                  -0.070
REMARK UNBOUND:                -0.070
REMARK  Name = No_4435-gen_results/8p0m/2024-11-26-14-13-15/
REMARK  1 active torsions:
REMARK  status: ('A' for Active; 'I' for Inactive)
REMARK    1  A    between atoms: C_8  and  N_11
REMARK                            x       y       z     vdW  Elec       q    Type
REMARK                         _______ _______ _______ _____ _____    ______ ____
ROOT
ATOM      1  O   UNL A   1     -23.101   1.631  30.122  0.00  0.00    -0.270 OA
ATOM      2  C   UNL A   1     -23.125   0.895  29.235  0.00  0.00    +0.252 C 
ATOM      3  C   UNL A   1     -23.188   1.340  27.930  0.00  0.00    +0.070 A 
ATOM      4  N   UNL A   1     -23.626  -0.474  29.397  0.00  0.00    -0.260 N 
ATOM      5  C   UNL A   1     -22.657   1.930  27.294  0.00  0.00    +0.006 A 
ATOM      6  C   UNL A   1     -22.740   2.253  25.792  0.00  0.00    +0.002 A 
ATOM      7  C   UNL A   1     -23.767   1.620  25.158  0.00  0.00    +0.017 A 
ATOM      8  C   UNL A   1     -24.589   0.759  25.876  0.00  0.00    +0.080 A 
ATOM      9  C   UNL A   1     -24.400   0.492  27.127  0.00  0.00    +0.086 A 
ATOM     10  C   UNL A   1     -23.571  -0.970  30.818  0.00  0.00    +0.095 C 
ATOM     11  C   UNL A   1     -24.457  -1.835  31.030  0.00  0.00    +0.022 C 
ATOM     12  C   UNL A   1     -25.111  -2.655  30.059  0.00  0.00    +0.005 C 
ATOM     13  C   UNL A   1     -25.001  -2.149  28.713  0.00  0.00    +0.042 C 
ATOM     14  C   UNL A   1     -24.319  -1.053  28.494  0.00  0.00    +0.169 C 
ATOM     15  N   UNL A   1     -24.503  -0.463  27.311  0.00  0.00    -0.218 NA
ENDROOT
BRANCH   8  16
ATOM     16  N   UNL A   1     -25.553   0.040  25.127  0.00  0.00    -0.234 NA
ATOM     17  C   UNL A   1     -26.722   0.761  24.791  0.00  0.00    +0.136 C 
ENDBRANCH   8  16
TORSDOF 1
ENDMDL
ENDMDL
