REMARK  Name = No_4435-gen_results/8p0m/2024-11-26-14-13-15/
REMARK  1 active torsions:
REMARK  status: ('A' for Active; 'I' for Inactive)
REMARK    1  A    between atoms: C_8  and  N_11
REMARK                            x       y       z     vdW  Elec       q    Type
REMARK                         _______ _______ _______ _____ _____    ______ ____
ROOT
ATOM      1  O   UNL A   1     -28.123  -1.335  28.487  0.00  0.00    -0.270 OA
ATOM      2  C   UNL A   1     -27.481  -0.404  28.709  0.00  0.00    +0.252 C 
ATOM      3  C   UNL A   1     -26.380  -0.087  27.939  0.00  0.00    +0.070 A 
ATOM      4  N   UNL A   1     -27.423   0.175  30.055  0.00  0.00    -0.260 N 
ATOM      5  C   UNL A   1     -26.156   0.116  26.968  0.00  0.00    +0.006 A 
ATOM      6  C   UNL A   1     -24.900   0.604  26.225  0.00  0.00    +0.002 A 
ATOM      7  C   UNL A   1     -23.829   0.801  27.044  0.00  0.00    +0.017 A 
ATOM      8  C   UNL A   1     -23.962   0.585  28.411  0.00  0.00    +0.080 A 
ATOM      9  C   UNL A   1     -25.082   0.241  28.959  0.00  0.00    +0.086 A 
ATOM     10  C   UNL A   1     -28.614  -0.170  30.910  0.00  0.00    +0.095 C 
ATOM     11  C   UNL A   1     -28.312  -0.164  32.129  0.00  0.00    +0.022 C 
ATOM     12  C   UNL A   1     -27.224   0.529  32.745  0.00  0.00    +0.005 C 
ATOM     13  C   UNL A   1     -26.193   0.918  31.816  0.00  0.00    +0.042 C 
ATOM     14  C   UNL A   1     -26.342   0.649  30.543  0.00  0.00    +0.169 C 
ATOM     15  N   UNL A   1     -25.249   0.742  29.782  0.00  0.00    -0.218 NA
ENDROOT
BRANCH   8  16
ATOM     16  N   UNL A   1     -22.848   0.931  29.214  0.00  0.00    -0.234 NA
ATOM     17  C   UNL A   1     -21.845  -0.060  29.321  0.00  0.00    +0.136 C 
ENDBRANCH   8  16
TORSDOF 1
