REMARK  Name = No_4436-gen_results/8p0m/2024-11-26-14-13-15/
REMARK  1 active torsions:
REMARK  status: ('A' for Active; 'I' for Inactive)
REMARK    1  A    between atoms: C_3  and  C_4
REMARK                            x       y       z     vdW  Elec       q    Type
REMARK                         _______ _______ _______ _____ _____    ______ ____
ROOT
ATOM      1  C   UNL A   1     -28.016  -0.814  28.878  0.00  0.00    +0.064 A 
ATOM      2  C   UNL A   1     -27.064  -0.119  28.608  0.00  0.00    +0.012 A 
ATOM      3  C   UNL A   1     -25.792  -0.430  29.076  0.00  0.00    +0.001 A 
ATOM      4  C   UNL A   1     -27.905  -1.898  29.873  0.00  0.00    +0.045 A 
ATOM      5  C   UNL A   1     -26.680  -2.314  30.318  0.00  0.00    +0.007 A 
ATOM      6  C   UNL A   1     -25.520  -1.556  29.977  0.00  0.00    +0.001 A 
ATOM      7 BR   UNL A   1     -29.393  -2.920  30.387  0.00  0.00    -0.048 Br
ATOM      8 CL   UNL A   1     -29.609  -0.403  28.370  0.00  0.00    -0.082 Cl
ENDROOT
BRANCH   3   9
ATOM      9  C   UNL A   1     -24.546   0.349  28.823  0.00  0.00    +0.000 A 
ATOM     10  C   UNL A   1     -23.241   0.022  29.332  0.00  0.00    +0.000 A 
ATOM     11  C   UNL A   1     -22.136   0.769  29.006  0.00  0.00    +0.000 A 
ATOM     12  C   UNL A   1     -22.125   1.736  28.024  0.00  0.00    +0.000 A 
ATOM     13  C   UNL A   1     -24.544   1.386  27.792  0.00  0.00    +0.000 A 
ATOM     14  C   UNL A   1     -23.337   2.047  27.452  0.00  0.00    +0.000 A 
ENDBRANCH   3   9
TORSDOF 1
