MODEL 4436
MODEL 1
REMARK VINA RESULT:    -6.256      0.000      0.000
REMARK INTER + INTRA:          -6.895
REMARK INTER:                  -6.622
REMARK INTRA:                  -0.273
REMARK UNBOUND:                -0.273
REMARK  Name = No_4436-gen_results/8p0m/2024-11-26-14-13-15/
REMARK  1 active torsions:
REMARK  status: ('A' for Active; 'I' for Inactive)
REMARK    1  A    between atoms: C_3  and  C_4
REMARK                            x       y       z     vdW  Elec       q    Type
REMARK                         _______ _______ _______ _____ _____    ______ ____
ROOT
ATOM      1  C   UNL A   1     -23.658   0.532  27.602  0.00  0.00    +0.064 A 
ATOM      2  C   UNL A   1     -24.390  -0.388  27.887  0.00  0.00    +0.012 A 
ATOM      3  C   UNL A   1     -23.988  -1.374  28.782  0.00  0.00    +0.001 A 
ATOM      4  C   UNL A   1     -22.247   0.539  28.032  0.00  0.00    +0.045 A 
ATOM      5  C   UNL A   1     -21.799  -0.349  28.971  0.00  0.00    +0.007 A 
ATOM      6  C   UNL A   1     -22.649  -1.420  29.380  0.00  0.00    +0.001 A 
ATOM      7 BR   UNL A   1     -21.065   1.902  27.512  0.00  0.00    -0.048 Br
ATOM      8 CL   UNL A   1     -24.110   1.720  26.440  0.00  0.00    -0.082 Cl
ENDROOT
BRANCH   3   9
ATOM      9  C   UNL A   1     -24.790  -2.558  29.204  0.00  0.00    +0.000 A 
ATOM     10  C   UNL A   1     -26.140  -2.518  29.697  0.00  0.00    +0.000 A 
ATOM     11  C   UNL A   1     -26.822  -3.666  30.017  0.00  0.00    +0.000 A 
ATOM     12  C   UNL A   1     -26.381  -4.934  29.703  0.00  0.00    +0.000 A 
ATOM     13  C   UNL A   1     -24.309  -3.902  28.884  0.00  0.00    +0.000 A 
ATOM     14  C   UNL A   1     -25.118  -5.031  29.166  0.00  0.00    +0.000 A 
ENDBRANCH   3   9
TORSDOF 1
ENDMDL
ENDMDL
