MODEL 4437
MODEL 1
REMARK VINA RESULT:    -4.855      0.000      0.000
REMARK INTER + INTRA:          -5.183
REMARK INTER:                  -5.138
REMARK INTRA:                  -0.045
REMARK UNBOUND:                -0.045
REMARK  Name = No_4437-gen_results/8p0m/2024-11-26-14-13-15/
REMARK  1 active torsions:
REMARK  status: ('A' for Active; 'I' for Inactive)
REMARK    1  A    between atoms: C_3  and  C_8
REMARK                            x       y       z     vdW  Elec       q    Type
REMARK                         _______ _______ _______ _____ _____    ______ ____
ROOT
ATOM      1  C   UNL A   1     -29.030 -10.228  32.638  0.00  0.00    +0.126 C 
ATOM      2  N   UNL A   1     -29.600  -9.916  31.831  0.00  0.00    -0.205 NA
ATOM      3  C   UNL A   1     -28.003 -11.246  32.698  0.00  0.00    +0.126 C 
ATOM      4  C   UNL A   1     -27.931 -12.034  31.473  0.00  0.00    +0.023 C 
ATOM      5  C   UNL A   1     -28.731 -11.727  30.385  0.00  0.00    +0.087 C 
ATOM      6  C   UNL A   1     -29.582 -10.613  30.557  0.00  0.00    +0.241 C 
ATOM      7  O   UNL A   1     -30.310 -10.223  29.509  0.00  0.00    -0.273 OA
ENDROOT
BRANCH   3   8
ATOM      8  C   UNL A   1     -27.196 -11.678  33.813  0.00  0.00    +0.366 C 
ATOM      9  O   UNL A   1     -26.809 -12.833  33.916  0.00  0.00    -0.246 OA
ATOM     10  O   UNL A   1     -26.968 -10.790  34.719  0.00  0.00    -0.246 OA
ENDBRANCH   3   8
TORSDOF 1
ENDMDL
ENDMDL
