REMARK  Name = No_4437-gen_results/8p0m/2024-11-26-14-13-15/
REMARK  1 active torsions:
REMARK  status: ('A' for Active; 'I' for Inactive)
REMARK    1  A    between atoms: C_3  and  C_8
REMARK                            x       y       z     vdW  Elec       q    Type
REMARK                         _______ _______ _______ _____ _____    ______ ____
ROOT
ATOM      1  C   UNL A   1     -28.016  -0.814  28.878  0.00  0.00    +0.126 C 
ATOM      2  N   UNL A   1     -27.188  -0.359  28.452  0.00  0.00    -0.205 NA
ATOM      3  C   UNL A   1     -28.106  -1.626  30.072  0.00  0.00    +0.126 C 
ATOM      4  C   UNL A   1     -26.794  -1.973  30.606  0.00  0.00    +0.023 C 
ATOM      5  C   UNL A   1     -25.639  -1.472  30.030  0.00  0.00    +0.087 C 
ATOM      6  C   UNL A   1     -25.838  -0.614  28.926  0.00  0.00    +0.241 C 
ATOM      7  O   UNL A   1     -24.763  -0.036  28.389  0.00  0.00    -0.273 OA
ENDROOT
BRANCH   3   8
ATOM      8  C   UNL A   1     -29.256  -2.252  30.678  0.00  0.00    +0.366 C 
ATOM      9  O   UNL A   1     -29.451  -2.205  31.884  0.00  0.00    -0.246 OA
ATOM     10  O   UNL A   1     -30.022  -2.913  29.879  0.00  0.00    -0.246 OA
ENDBRANCH   3   8
TORSDOF 1
