REMARK  Name = No_4438-gen_results/8p0m/2024-11-26-14-13-15/
REMARK  3 active torsions:
REMARK  status: ('A' for Active; 'I' for Inactive)
REMARK    1  A    between atoms: C_2  and  C_8
REMARK    2  A    between atoms: C_8  and  N_9
REMARK    3  A    between atoms: N_9  and  C_12
REMARK                            x       y       z     vdW  Elec       q    Type
REMARK                         _______ _______ _______ _____ _____    ______ ____
ROOT
ATOM      1  C   UNL A   1     -29.507  -1.967  30.253  0.00  0.00    +0.096 C 
ATOM      2  C   UNL A   1     -30.865  -1.794  29.535  0.00  0.00    +0.026 C 
ENDROOT
BRANCH   1   4
ATOM      3  C   UNL A   1     -28.016  -0.814  28.878  0.00  0.00    +0.027 A 
ATOM      4  C   UNL A   1     -28.469  -0.785  29.829  0.00  0.00    -0.002 A 
ATOM      5  C   UNL A   1     -27.087   0.290  28.638  0.00  0.00    +0.140 A 
ATOM      6  C   UNL A   1     -26.768   1.027  29.472  0.00  0.00    +0.030 A 
ATOM      7  C   UNL A   1     -28.276   0.027  31.015  0.00  0.00    -0.003 A 
ATOM      8  C   UNL A   1     -27.329   1.054  30.753  0.00  0.00    +0.002 A 
ATOM      9  F   UNL A   1     -26.439   0.421  27.428  0.00  0.00    -0.204 F 
ENDBRANCH   1   4
BRANCH   1  10
ATOM     10  N   UNL A   1     -29.256  -3.202  30.328  0.00  0.00    -0.304 N 
ATOM     11  C   UNL A   1     -27.990  -3.572  30.858  0.00  0.00    +0.112 C 
BRANCH  10  12
ATOM     12  C   UNL A   1     -30.112  -4.250  30.149  0.00  0.00    +0.048 A 
ATOM     13  C   UNL A   1     -30.972  -4.546  31.080  0.00  0.00    +0.015 A 
ATOM     14  C   UNL A   1     -31.827  -5.569  30.954  0.00  0.00    +0.001 A 
ATOM     15  C   UNL A   1     -31.928  -6.101  30.098  0.00  0.00    +0.000 A 
ATOM     16  C   UNL A   1     -31.096  -5.934  28.851  0.00  0.00    +0.001 A 
ATOM     17  C   UNL A   1     -30.153  -4.952  28.989  0.00  0.00    +0.015 A 
ENDBRANCH  10  12
ENDBRANCH   1  10
TORSDOF 3
