MODEL 4438
MODEL 1
REMARK VINA RESULT:    -7.458      0.000      0.000
REMARK INTER + INTRA:          -9.438
REMARK INTER:                  -8.767
REMARK INTRA:                  -0.672
REMARK UNBOUND:                -0.672
REMARK  Name = No_4438-gen_results/8p0m/2024-11-26-14-13-15/
REMARK  3 active torsions:
REMARK  status: ('A' for Active; 'I' for Inactive)
REMARK    1  A    between atoms: C_2  and  C_8
REMARK    2  A    between atoms: C_8  and  N_9
REMARK    3  A    between atoms: N_9  and  C_12
REMARK                            x       y       z     vdW  Elec       q    Type
REMARK                         _______ _______ _______ _____ _____    ______ ____
ROOT
ATOM      1  C   UNL A   1     -23.354  -0.824  28.999  0.00  0.00    +0.096 C 
ATOM      2  C   UNL A   1     -22.331  -0.277  30.020  0.00  0.00    +0.026 C 
ENDROOT
BRANCH   1   4
ATOM      3  C   UNL A   1     -24.377   0.076  27.105  0.00  0.00    +0.027 A 
ATOM      4  C   UNL A   1     -23.582   0.232  27.779  0.00  0.00    -0.002 A 
ATOM      5  C   UNL A   1     -24.450   1.080  26.044  0.00  0.00    +0.140 A 
ATOM      6  C   UNL A   1     -23.621   1.871  25.878  0.00  0.00    +0.030 A 
ATOM      7  C   UNL A   1     -22.453   1.141  27.817  0.00  0.00    -0.003 A 
ATOM      8  C   UNL A   1     -22.537   2.065  26.740  0.00  0.00    +0.002 A 
ATOM      9  F   UNL A   1     -25.455   1.043  25.101  0.00  0.00    -0.204 F 
ENDBRANCH   1   4
BRANCH   1  10
ATOM     10  N   UNL A   1     -24.249  -1.448  29.635  0.00  0.00    -0.304 N 
ATOM     11  C   UNL A   1     -25.051  -0.691  30.531  0.00  0.00    +0.112 C 
BRANCH  10  12
ATOM     12  C   UNL A   1     -24.687  -2.726  29.440  0.00  0.00    +0.048 A 
ATOM     13  C   UNL A   1     -23.895  -3.603  28.895  0.00  0.00    +0.015 A 
ATOM     14  C   UNL A   1     -24.282  -4.867  28.676  0.00  0.00    +0.001 A 
ATOM     15  C   UNL A   1     -25.162  -5.240  29.011  0.00  0.00    +0.000 A 
ATOM     16  C   UNL A   1     -26.241  -4.457  29.717  0.00  0.00    +0.001 A 
ATOM     17  C   UNL A   1     -25.905  -3.140  29.871  0.00  0.00    +0.015 A 
ENDBRANCH  10  12
ENDBRANCH   1  10
TORSDOF 3
ENDMDL
ENDMDL
