MODEL 4439
MODEL 1
REMARK VINA RESULT:    -6.726      0.000      0.000
REMARK INTER + INTRA:         -10.153
REMARK INTER:                  -7.905
REMARK INTRA:                  -2.248
REMARK UNBOUND:                -2.248
REMARK  Name = No_4439-gen_results/8p0m/2024-11-26-14-13-15/
REMARK  3 active torsions:
REMARK  status: ('A' for Active; 'I' for Inactive)
REMARK    1  A    between atoms: C_3  and  C_7
REMARK    2  A    between atoms: C_7  and  C_8
REMARK    3  A    between atoms: C_8  and  C_10
REMARK                            x       y       z     vdW  Elec       q    Type
REMARK                         _______ _______ _______ _____ _____    ______ ____
ROOT
ATOM      1  C   UNL A   1     -22.963   0.939  28.596  0.00  0.00    -0.022 A 
ATOM      2  C   UNL A   1     -21.865   0.048  28.932  0.00  0.00    -0.004 A 
ATOM      3  C   UNL A   1     -21.891  -0.775  30.047  0.00  0.00    -0.000 A 
ATOM      4  C   UNL A   1     -22.924  -0.620  30.977  0.00  0.00    -0.000 A 
ATOM      5  C   UNL A   1     -23.110  -1.169  32.086  0.00  0.00    -0.000 A 
ATOM      6  C   UNL A   1     -24.143  -0.703  33.004  0.00  0.00    -0.000 A 
ATOM      7  C   UNL A   1     -24.841   0.378  32.416  0.00  0.00    -0.000 A 
ATOM      8  C   UNL A   1     -24.479   0.727  31.264  0.00  0.00    -0.000 A 
ATOM      9  C   UNL A   1     -23.390   0.263  30.503  0.00  0.00    -0.000 A 
ATOM     10  C   UNL A   1     -23.196   1.094  29.725  0.00  0.00    -0.004 A 
ENDROOT
BRANCH   1  11
ATOM     11  C   UNL A   1     -24.231   0.527  28.438  0.00  0.00    +0.031 C 
BRANCH  11  12
ATOM     12  C   UNL A   1     -24.657  -0.504  27.648  0.00  0.00    +0.027 C 
ATOM     13  C   UNL A   1     -25.473  -0.073  26.533  0.00  0.00    +0.005 C 
BRANCH  12  16
ATOM     14  C   UNL A   1     -24.430  -2.944  28.398  0.00  0.00    -0.004 A 
ATOM     15  C   UNL A   1     -24.812  -3.728  28.989  0.00  0.00    -0.000 A 
ATOM     16  C   UNL A   1     -25.117  -1.710  28.415  0.00  0.00    -0.022 A 
ATOM     17  C   UNL A   1     -26.261  -1.522  29.164  0.00  0.00    -0.004 A 
ATOM     18  C   UNL A   1     -25.995  -3.789  29.870  0.00  0.00    -0.000 A 
ATOM     19  C   UNL A   1     -26.684  -2.628  29.914  0.00  0.00    -0.000 A 
ENDBRANCH  12  16
ENDBRANCH  11  12
ENDBRANCH   1  11
TORSDOF 3
ENDMDL
ENDMDL
