REMARK  Name = No_4439-gen_results/8p0m/2024-11-26-14-13-15/
REMARK  3 active torsions:
REMARK  status: ('A' for Active; 'I' for Inactive)
REMARK    1  A    between atoms: C_3  and  C_7
REMARK    2  A    between atoms: C_7  and  C_8
REMARK    3  A    between atoms: C_8  and  C_10
REMARK                            x       y       z     vdW  Elec       q    Type
REMARK                         _______ _______ _______ _____ _____    ______ ____
ROOT
ATOM      1  C   UNL A   1     -24.236   1.219  27.792  0.00  0.00    -0.022 A 
ATOM      2  C   UNL A   1     -22.823   1.035  28.079  0.00  0.00    -0.004 A 
ATOM      3  C   UNL A   1     -22.364   0.069  28.960  0.00  0.00    -0.000 A 
ATOM      4  C   UNL A   1     -23.292  -0.635  29.734  0.00  0.00    -0.000 A 
ATOM      5  C   UNL A   1     -23.121  -1.473  30.648  0.00  0.00    -0.000 A 
ATOM      6  C   UNL A   1     -24.228  -1.930  31.480  0.00  0.00    -0.000 A 
ATOM      7  C   UNL A   1     -25.424  -1.306  31.055  0.00  0.00    -0.000 A 
ATOM      8  C   UNL A   1     -25.337  -0.516  30.081  0.00  0.00    -0.000 A 
ATOM      9  C   UNL A   1     -24.184  -0.069  29.408  0.00  0.00    -0.000 A 
ATOM     10  C   UNL A   1     -24.508   0.904  28.878  0.00  0.00    -0.004 A 
ENDROOT
BRANCH   1  11
ATOM     11  C   UNL A   1     -25.039   0.236  27.354  0.00  0.00    +0.031 C 
BRANCH  11  12
ATOM     12  C   UNL A   1     -26.399   0.295  27.228  0.00  0.00    +0.027 C 
ATOM     13  C   UNL A   1     -26.842   1.272  26.257  0.00  0.00    +0.005 C 
BRANCH  12  16
ATOM     14  C   UNL A   1     -28.016  -0.814  28.878  0.00  0.00    -0.004 A 
ATOM     15  C   UNL A   1     -28.469  -0.785  29.829  0.00  0.00    -0.000 A 
ATOM     16  C   UNL A   1     -27.136   0.236  28.535  0.00  0.00    -0.022 A 
ATOM     17  C   UNL A   1     -26.875   1.282  29.398  0.00  0.00    -0.004 A 
ATOM     18  C   UNL A   1     -28.361   0.199  30.924  0.00  0.00    -0.000 A 
ATOM     19  C   UNL A   1     -27.528   1.223  30.636  0.00  0.00    -0.000 A 
ENDBRANCH  12  16
ENDBRANCH  11  12
ENDBRANCH   1  11
TORSDOF 3
