MODEL 443
MODEL 1
REMARK VINA RESULT:    -7.120      0.000      0.000
REMARK INTER + INTRA:         -11.183
REMARK INTER:                 -10.034
REMARK INTRA:                  -1.149
REMARK UNBOUND:                -1.149
REMARK  Name = No_443-gen_results/8p0m/2024-11-26-14-13-15/
REMARK  7 active torsions:
REMARK  status: ('A' for Active; 'I' for Inactive)
REMARK    1  A    between atoms: C_5  and  C_8
REMARK    2  A    between atoms: C_6  and  O_16
REMARK    3  A    between atoms: O_16  and  C_17
REMARK    4  A    between atoms: C_17  and  C_18
REMARK    5  A    between atoms: C_18  and  N_21
REMARK    6  A    between atoms: N_21  and  C_22
REMARK    7  A    between atoms: C_22  and  C_23
REMARK                            x       y       z     vdW  Elec       q    Type
REMARK                         _______ _______ _______ _____ _____    ______ ____
ROOT
ATOM      1  F   UNL A   1     -25.172  -5.611  29.449  0.00  0.00    -0.199 F 
ATOM      2  C   UNL A   1     -25.513  -4.423  29.400  0.00  0.00    +0.198 A 
ATOM      3  C   UNL A   1     -26.522  -4.029  29.918  0.00  0.00    +0.170 A 
ATOM      4  C   UNL A   1     -27.026  -2.663  30.004  0.00  0.00    +0.040 A 
ATOM      5  C   UNL A   1     -26.140  -1.690  29.365  0.00  0.00    +0.094 A 
ATOM      6  C   UNL A   1     -24.956  -2.170  28.822  0.00  0.00    +0.172 A 
ATOM      7  C   UNL A   1     -24.611  -3.471  28.822  0.00  0.00    +0.203 A 
ATOM      8  F   UNL A   1     -23.499  -3.884  28.290  0.00  0.00    -0.199 F 
ATOM      9  F   UNL A   1     -27.458  -4.886  30.500  0.00  0.00    -0.202 F 
ENDROOT
BRANCH   5  10
ATOM     10  C   UNL A   1     -26.530  -0.305  29.357  0.00  0.00    +0.274 C 
ATOM     11  N   UNL A   1     -26.342   0.433  30.394  0.00  0.00    -0.141 NA
ATOM     12  O   UNL A   1     -27.168   0.137  28.297  0.00  0.00    -0.268 OA
ATOM     13  C   UNL A   1     -25.660   0.113  31.553  0.00  0.00    +0.249 C 
ATOM     14  C   UNL A   1     -25.729   1.330  32.347  0.00  0.00    +0.097 C 
ATOM     15  O   UNL A   1     -25.688  -0.922  31.870  0.00  0.00    -0.273 OA
ENDBRANCH   5  10
BRANCH   6  16
ATOM     16  O   UNL A   1     -24.124  -1.226  28.272  0.00  0.00    -0.474 OA
BRANCH  16  17
ATOM     17  C   UNL A   1     -23.098  -0.649  29.012  0.00  0.00    +0.200 C 
ATOM     18  C   UNL A   1     -22.632  -1.088  30.232  0.00  0.00    +0.050 C 
BRANCH  17  19
ATOM     19  C   UNL A   1     -22.495   0.414  28.416  0.00  0.00    +0.204 C 
ATOM     20  N   UNL A   1     -21.168   0.381  28.253  0.00  0.00    -0.110 NA
BRANCH  19  21
ATOM     21  N   UNL A   1     -23.187   1.568  28.009  0.00  0.00    -0.193 NA
BRANCH  21  22
ATOM     22  C   UNL A   1     -23.244   1.896  26.664  0.00  0.00    +0.117 C 
BRANCH  22  23
ATOM     23  C   UNL A   1     -24.528   1.617  26.035  0.00  0.00    -0.005 A 
ATOM     24  C   UNL A   1     -24.704   0.436  25.390  0.00  0.00    -0.003 A 
ATOM     25  C   UNL A   1     -25.914   0.105  24.727  0.00  0.00    -0.000 A 
ATOM     26  C   UNL A   1     -26.922   1.077  24.826  0.00  0.00    -0.000 A 
ATOM     27  C   UNL A   1     -26.827   2.277  25.459  0.00  0.00    -0.000 A 
ATOM     28  C   UNL A   1     -25.570   2.567  26.137  0.00  0.00    -0.003 A 
ENDBRANCH  22  23
ENDBRANCH  21  22
ENDBRANCH  19  21
ENDBRANCH  17  19
ENDBRANCH  16  17
ENDBRANCH   6  16
TORSDOF 7
ENDMDL
ENDMDL
