REMARK  Name = No_444-gen_results/8p0m/2024-11-26-14-13-15/
REMARK  3 active torsions:
REMARK  status: ('A' for Active; 'I' for Inactive)
REMARK    1  A    between atoms: C_1  and  C_2
REMARK    2  A    between atoms: C_1  and  C_9
REMARK    3  A    between atoms: C_5  and  C_12
REMARK                            x       y       z     vdW  Elec       q    Type
REMARK                         _______ _______ _______ _____ _____    ______ ____
ROOT
ATOM      1  C   UNL A   1     -27.064  -0.119  28.608  0.00  0.00    +0.003 A 
ATOM      2  C   UNL A   1     -25.765  -0.390  29.036  0.00  0.00    -0.002 A 
ATOM      3  C   UNL A   1     -24.552   0.406  28.765  0.00  0.00    +0.004 A 
ATOM      4  C   UNL A   1     -24.696   1.448  27.799  0.00  0.00    +0.058 A 
ATOM      5  C   UNL A   1     -25.976   1.725  27.308  0.00  0.00    +0.004 A 
ATOM      6  C   UNL A   1     -27.072   1.013  27.654  0.00  0.00    -0.002 A 
ENDROOT
BRANCH   4   7
ATOM      7  C   UNL A   1     -23.508   2.257  27.533  0.00  0.00    +0.275 C 
ATOM      8  N   UNL A   1     -22.575   1.974  27.251  0.00  0.00    -0.232 NA
ATOM      9  O   UNL A   1     -23.817   3.596  27.389  0.00  0.00    -0.266 OA
ATOM     10  C   UNL A   1     -21.460   1.292  27.983  0.00  0.00    +0.155 C 
ENDBRANCH   4   7
BRANCH   1  11
ATOM     11  C   UNL A   1     -28.016  -0.814  28.878  0.00  0.00    +0.205 C 
ATOM     12 CL   UNL A   1     -29.530  -0.278  28.667  0.00  0.00    -0.098 Cl
BRANCH  11  13
ATOM     13  C   UNL A   1     -27.823  -1.655  30.119  0.00  0.00    +0.384 C 
ATOM     14  O   UNL A   1     -28.736  -2.229  30.634  0.00  0.00    -0.244 OA
ATOM     15  O   UNL A   1     -26.660  -2.152  30.417  0.00  0.00    -0.244 OA
ENDBRANCH  11  13
ENDBRANCH   1  11
TORSDOF 3
