MODEL 4440
MODEL 1
REMARK VINA RESULT:    -4.283      0.000      0.000
REMARK INTER + INTRA:          -4.283
REMARK INTER:                  -4.283
REMARK INTRA:                   0.000
REMARK UNBOUND:                 0.000
REMARK  Name = No_4440-gen_results/8p0m/2024-11-26-14-13-15/
REMARK  0 active torsions:
REMARK  status: ('A' for Active; 'I' for Inactive)
REMARK                            x       y       z     vdW  Elec       q    Type
REMARK                         _______ _______ _______ _____ _____    ______ ____
ROOT
ATOM      1  C   UNL A   1     -24.159  -4.849  28.640  0.00  0.00    +0.000 A 
ATOM      2  C   UNL A   1     -25.055  -5.243  29.029  0.00  0.00    +0.000 A 
ATOM      3  C   UNL A   1     -24.059  -3.394  28.756  0.00  0.00    +0.000 A 
ATOM      4  C   UNL A   1     -25.046  -2.639  29.339  0.00  0.00    +0.000 A 
ATOM      5  C   UNL A   1     -26.243  -4.702  29.690  0.00  0.00    +0.000 A 
ATOM      6  C   UNL A   1     -26.156  -3.294  29.807  0.00  0.00    +0.000 A 
ENDROOT
TORSDOF 0
ENDMDL
ENDMDL
