MODEL 4441
MODEL 1
REMARK VINA RESULT:    -5.355      0.000      0.000
REMARK INTER + INTRA:          -5.807
REMARK INTER:                  -5.668
REMARK INTRA:                  -0.139
REMARK UNBOUND:                -0.139
REMARK  Name = No_4441-gen_results/8p0m/2024-11-26-14-13-15/
REMARK  1 active torsions:
REMARK  status: ('A' for Active; 'I' for Inactive)
REMARK    1  A    between atoms: C_4  and  C_7
REMARK                            x       y       z     vdW  Elec       q    Type
REMARK                         _______ _______ _______ _____ _____    ______ ____
ROOT
ATOM      1  C   UNL A   1     -24.648  -5.238  28.915  0.00  0.00    -0.000 A 
ATOM      2  C   UNL A   1     -25.623  -5.155  29.305  0.00  0.00    -0.000 A 
ATOM      3  C   UNL A   1     -23.934  -3.979  28.651  0.00  0.00    -0.000 A 
ATOM      4  C   UNL A   1     -24.498  -2.730  29.043  0.00  0.00    -0.000 A 
ATOM      5  C   UNL A   1     -25.752  -2.783  29.596  0.00  0.00    -0.000 A 
ATOM      6  C   UNL A   1     -26.373  -3.966  29.792  0.00  0.00    -0.000 A 
ENDROOT
BRANCH   4   7
ATOM      7  C   UNL A   1     -23.791  -1.485  28.801  0.00  0.00    -0.005 C 
ATOM      8  C   UNL A   1     -22.668  -1.161  29.217  0.00  0.00    -0.026 C 
ATOM      9  C   UNL A   1     -21.917   0.021  28.784  0.00  0.00    +0.031 C 
ENDBRANCH   4   7
TORSDOF 1
ENDMDL
ENDMDL
