MODEL 4442
MODEL 1
REMARK VINA RESULT:    -8.120      0.000      0.000
REMARK INTER + INTRA:         -10.888
REMARK INTER:                 -10.018
REMARK INTRA:                  -0.870
REMARK UNBOUND:                -0.870
REMARK  Name = No_4442-gen_results/8p0m/2024-11-26-14-13-15/
REMARK  4 active torsions:
REMARK  status: ('A' for Active; 'I' for Inactive)
REMARK    1  A    between atoms: C_3  and  C_8
REMARK    2  A    between atoms: C_6  and  N_14
REMARK    3  A    between atoms: C_10  and  C_20
REMARK    4  A    between atoms: N_14  and  C_16
REMARK                            x       y       z     vdW  Elec       q    Type
REMARK                         _______ _______ _______ _____ _____    ______ ____
ROOT
ATOM      1  C   UNL A   1      -9.401   2.322  10.354  0.00  0.00    +0.025 A 
ATOM      2  C   UNL A   1      -8.279   1.809   9.550  0.00  0.00    -0.001 A 
ATOM      3  C   UNL A   1      -7.596   0.932  10.137  0.00  0.00    -0.000 A 
ATOM      4  C   UNL A   1      -7.909   0.370  11.465  0.00  0.00    +0.003 A 
ATOM      5  C   UNL A   1      -8.954   0.912  12.145  0.00  0.00    +0.042 A 
ATOM      6  C   UNL A   1      -9.712   1.945  11.609  0.00  0.00    +0.192 A 
ATOM      7  O   UNL A   1     -10.701   2.557  12.240  0.00  0.00    -0.287 OA
ENDROOT
BRANCH   3   8
ATOM      8  C   UNL A   1      -6.480   0.212   9.372  0.00  0.00    -0.000 A 
ATOM      9  C   UNL A   1      -6.564   0.038   8.232  0.00  0.00    -0.000 A 
ATOM     10  C   UNL A   1      -5.571  -0.760   7.465  0.00  0.00    -0.000 A 
ATOM     11  C   UNL A   1      -4.456  -1.209   8.186  0.00  0.00    +0.000 A 
ATOM     12  C   UNL A   1      -4.348  -0.974   9.505  0.00  0.00    -0.000 A 
ATOM     13  C   UNL A   1      -5.351  -0.276  10.174  0.00  0.00    -0.000 A 
ATOM     14  C   UNL A   1      -3.409  -1.964   7.422  0.00  0.00    +0.000 A 
ATOM     15  C   UNL A   1      -2.345  -2.318   8.101  0.00  0.00    +0.000 A 
ATOM     16  C   UNL A   1      -2.274  -2.049   9.540  0.00  0.00    +0.000 A 
ATOM     17  C   UNL A   1      -3.198  -1.412  10.240  0.00  0.00    +0.000 A 
ENDBRANCH   3   8
BRANCH   1  20
ATOM     18  O   UNL A   1     -11.240   2.659   8.306  0.00  0.00    -0.273 OA
ATOM     19  C   UNL A   1     -10.737   3.505   8.905  0.00  0.00    +0.246 C 
ATOM     20  C   UNL A   1     -10.013   3.665   9.697  0.00  0.00    +0.104 C 
ATOM     21  N   UNL A   1     -11.156   4.879   8.325  0.00  0.00    -0.190 NA
ATOM     22  C   UNL A   1      -9.407   4.791  10.420  0.00  0.00    +0.017 C 
ATOM     23  C   UNL A   1     -10.726   6.084   8.857  0.00  0.00    +0.155 C 
ATOM     24  C   UNL A   1      -9.805   6.022   9.938  0.00  0.00    +0.039 C 
BRANCH  23  25
ATOM     25  N   UNL A   1     -11.061   7.142   8.205  0.00  0.00    -0.257 NA
ATOM     26  C   UNL A   1     -10.451   8.042   7.730  0.00  0.00    +0.091 C 
BRANCH  25  27
ATOM     27  C   UNL A   1     -12.527   7.431   8.127  0.00  0.00    +0.059 C 
ATOM     28  C   UNL A   1     -13.363   7.085   9.198  0.00  0.00    +0.017 C 
ATOM     29  C   UNL A   1     -12.916   8.689   7.434  0.00  0.00    +0.017 C 
ENDBRANCH  25  27
ENDBRANCH  23  25
ENDBRANCH   1  20
TORSDOF 4
ENDMDL
ENDMDL
