REMARK  Name = No_4442-gen_results/8p0m/2024-11-26-14-13-15/
REMARK  4 active torsions:
REMARK  status: ('A' for Active; 'I' for Inactive)
REMARK    1  A    between atoms: C_3  and  C_8
REMARK    2  A    between atoms: C_6  and  N_14
REMARK    3  A    between atoms: C_10  and  C_20
REMARK    4  A    between atoms: N_14  and  C_16
REMARK                            x       y       z     vdW  Elec       q    Type
REMARK                         _______ _______ _______ _____ _____    ______ ____
ROOT
ATOM      1  C   UNL A   1     -27.862  -0.098  30.955  0.00  0.00    +0.025 A 
ATOM      2  C   UNL A   1     -29.078   0.705  31.169  0.00  0.00    -0.001 A 
ATOM      3  C   UNL A   1     -29.787   0.302  32.126  0.00  0.00    -0.000 A 
ATOM      4  C   UNL A   1     -29.427  -0.803  33.035  0.00  0.00    +0.003 A 
ATOM      5  C   UNL A   1     -28.294  -1.500  32.756  0.00  0.00    +0.042 A 
ATOM      6  C   UNL A   1     -27.494  -1.180  31.667  0.00  0.00    +0.192 A 
ATOM      7  O   UNL A   1     -26.414  -1.854  31.304  0.00  0.00    -0.287 OA
ENDROOT
BRANCH   3   8
ATOM      8  C   UNL A   1     -31.012   1.121  32.550  0.00  0.00    -0.000 A 
ATOM      9  C   UNL A   1     -32.059   0.879  32.124  0.00  0.00    -0.000 A 
ATOM     10  C   UNL A   1     -33.255   1.716  32.406  0.00  0.00    -0.000 A 
ATOM     11  C   UNL A   1     -33.068   2.769  33.312  0.00  0.00    +0.000 A 
ATOM     12  C   UNL A   1     -31.854   3.024  33.830  0.00  0.00    -0.000 A 
ATOM     13  C   UNL A   1     -30.761   2.239  33.468  0.00  0.00    -0.000 A 
ATOM     14  C   UNL A   1     -34.273   3.591  33.661  0.00  0.00    +0.000 A 
ATOM     15  C   UNL A   1     -34.089   4.529  34.558  0.00  0.00    +0.000 A 
ATOM     16  C   UNL A   1     -32.746   4.778  35.089  0.00  0.00    +0.000 A 
ATOM     17  C   UNL A   1     -31.664   4.086  34.773  0.00  0.00    +0.000 A 
ENDBRANCH   3   8
BRANCH   1  20
ATOM     18  O   UNL A   1     -28.123  -1.335  28.487  0.00  0.00    -0.273 OA
ATOM     19  C   UNL A   1     -27.481  -0.404  28.709  0.00  0.00    +0.246 C 
ATOM     20  C   UNL A   1     -27.190   0.246  29.527  0.00  0.00    +0.104 C 
ATOM     21  N   UNL A   1     -26.687  -0.000  27.442  0.00  0.00    -0.190 NA
ATOM     22  C   UNL A   1     -26.350   1.433  29.742  0.00  0.00    +0.017 C 
ATOM     23  C   UNL A   1     -25.845   1.100  27.399  0.00  0.00    +0.155 C 
ATOM     24  C   UNL A   1     -25.669   1.827  28.608  0.00  0.00    +0.039 C 
BRANCH  23  25
ATOM     25  N   UNL A   1     -25.164   1.249  26.317  0.00  0.00    -0.257 NA
ATOM     26  C   UNL A   1     -24.878   0.527  25.420  0.00  0.00    +0.091 C 
BRANCH  25  27
ATOM     27  C   UNL A   1     -24.424   2.542  26.178  0.00  0.00    +0.059 C 
ATOM     28  C   UNL A   1     -23.053   2.533  25.884  0.00  0.00    +0.017 C 
ATOM     29  C   UNL A   1     -25.172   3.666  25.552  0.00  0.00    +0.017 C 
ENDBRANCH  25  27
ENDBRANCH  23  25
ENDBRANCH   1  20
TORSDOF 4
