MODEL 4443
MODEL 1
REMARK VINA RESULT:    -5.624      0.000      0.000
REMARK INTER + INTRA:         -12.143
REMARK INTER:                  -8.583
REMARK INTRA:                  -3.560
REMARK UNBOUND:                -3.560
REMARK  Name = No_4443-gen_results/8p0m/2024-11-26-14-13-15/
REMARK  9 active torsions:
REMARK  status: ('A' for Active; 'I' for Inactive)
REMARK    1  A    between atoms: C_2  and  C_13
REMARK    2  A    between atoms: C_4  and  C_6
REMARK    3  A    between atoms: C_13  and  O_14
REMARK    4  A    between atoms: O_14  and  C_16
REMARK    5  A    between atoms: C_16  and  C_17
REMARK    6  A    between atoms: N_19  and  C_20
REMARK    7  A    between atoms: C_20  and  C_21
REMARK    8  A    between atoms: C_22  and  C_23
REMARK    9  A    between atoms: C_24  and  C_25
REMARK                            x       y       z     vdW  Elec       q    Type
REMARK                         _______ _______ _______ _____ _____    ______ ____
ROOT
ATOM      1  C   UNL A   1     -28.289 -11.186  34.181  0.00  0.00    +0.342 C 
ATOM      2  O   UNL A   1     -27.108 -11.203  34.517  0.00  0.00    -0.245 OA
ENDROOT
BRANCH   1   4
ATOM      3  C   UNL A   1     -28.017 -11.871  32.003  0.00  0.00    +0.006 A 
ATOM      4  C   UNL A   1     -28.606 -11.229  32.596  0.00  0.00    +0.076 A 
ATOM      5  C   UNL A   1     -28.344 -11.927  30.569  0.00  0.00    +0.000 A 
ATOM      6  C   UNL A   1     -29.315 -11.045  30.012  0.00  0.00    +0.000 A 
ATOM      7  C   UNL A   1     -29.615 -10.186  32.265  0.00  0.00    +0.006 A 
ATOM      8  C   UNL A   1     -29.937 -10.186  30.917  0.00  0.00    +0.000 A 
BRANCH   6   9
ATOM      9  C   UNL A   1     -29.672 -11.050  28.653  0.00  0.00    +0.000 A 
ATOM     10  C   UNL A   1     -30.456 -10.610  28.174  0.00  0.00    +0.000 A 
ATOM     11  C   UNL A   1     -30.960 -10.717  26.738  0.00  0.00    +0.000 A 
ATOM     12  C   UNL A   1     -30.224 -11.605  26.024  0.00  0.00    +0.000 A 
ATOM     13  C   UNL A   1     -29.151 -12.332  26.551  0.00  0.00    +0.000 A 
ATOM     14  C   UNL A   1     -28.842 -12.075  27.925  0.00  0.00    +0.000 A 
ENDBRANCH   6   9
ENDBRANCH   1   4
BRANCH   1  15
ATOM     15  O   UNL A   1     -29.256 -11.257  34.984  0.00  0.00    -0.438 OA
BRANCH  15  16
ATOM     16  C   UNL A   1     -29.857 -12.230  35.326  0.00  0.00    +0.265 C 
BRANCH  16  17
ATOM     17  C   UNL A   1     -30.986 -12.694  34.647  0.00  0.00    +0.155 C 
ATOM     18 CL   UNL A   1     -32.155 -12.402  34.297  0.00  0.00    -0.063 Cl
ATOM     19  N   UNL A   1     -30.651 -14.128  34.273  0.00  0.00    -0.255 NA
BRANCH  19  20
ATOM     20  C   UNL A   1     -31.611 -14.965  33.672  0.00  0.00    +0.152 C 
BRANCH  20  21
ATOM     21  C   UNL A   1     -31.205 -15.483  32.427  0.00  0.00    -0.000 C 
ATOM     22  C   UNL A   1     -30.747 -14.584  31.430  0.00  0.00    -0.003 C 
BRANCH  22  23
ATOM     23  C   UNL A   1     -30.157 -15.083  30.250  0.00  0.00    -0.000 C 
ATOM     24  C   UNL A   1     -30.780 -14.774  28.965  0.00  0.00    -0.000 C 
BRANCH  24  25
ATOM     25  C   UNL A   1     -31.918 -13.956  28.898  0.00  0.00    -0.000 C 
ATOM     26  C   UNL A   1     -32.664 -13.884  27.746  0.00  0.00    -0.000 C 
ENDBRANCH  24  25
ENDBRANCH  22  23
ENDBRANCH  20  21
ENDBRANCH  19  20
ENDBRANCH  16  17
ENDBRANCH  15  16
ENDBRANCH   1  15
TORSDOF 9
ENDMDL
ENDMDL
