REMARK  Name = No_4443-gen_results/8p0m/2024-11-26-14-13-15/
REMARK  9 active torsions:
REMARK  status: ('A' for Active; 'I' for Inactive)
REMARK    1  A    between atoms: C_2  and  C_13
REMARK    2  A    between atoms: C_4  and  C_6
REMARK    3  A    between atoms: C_13  and  O_14
REMARK    4  A    between atoms: O_14  and  C_16
REMARK    5  A    between atoms: C_16  and  C_17
REMARK    6  A    between atoms: N_19  and  C_20
REMARK    7  A    between atoms: C_20  and  C_21
REMARK    8  A    between atoms: C_22  and  C_23
REMARK    9  A    between atoms: C_24  and  C_25
REMARK                            x       y       z     vdW  Elec       q    Type
REMARK                         _______ _______ _______ _____ _____    ______ ____
ROOT
ATOM      1  C   UNL A   1     -30.081  -0.674  29.880  0.00  0.00    +0.342 C 
ATOM      2  O   UNL A   1     -30.720  -1.474  29.202  0.00  0.00    -0.245 OA
ENDROOT
BRANCH   1   4
ATOM      3  C   UNL A   1     -28.016  -0.814  28.878  0.00  0.00    +0.006 A 
ATOM      4  C   UNL A   1     -28.469  -0.785  29.829  0.00  0.00    +0.076 A 
ATOM      5  C   UNL A   1     -26.546  -0.876  28.850  0.00  0.00    +0.000 A 
ATOM      6  C   UNL A   1     -25.804  -1.032  30.057  0.00  0.00    +0.000 A 
ATOM      7  C   UNL A   1     -27.944  -0.987  31.207  0.00  0.00    +0.006 A 
ATOM      8  C   UNL A   1     -26.561  -1.075  31.227  0.00  0.00    +0.000 A 
BRANCH   6   9
ATOM      9  C   UNL A   1     -24.401  -1.097  30.096  0.00  0.00    +0.000 A 
ATOM     10  C   UNL A   1     -23.764  -1.147  30.890  0.00  0.00    +0.000 A 
ATOM     11  C   UNL A   1     -22.243  -1.065  30.980  0.00  0.00    +0.000 A 
ATOM     12  C   UNL A   1     -21.691  -0.839  29.762  0.00  0.00    +0.000 A 
ATOM     13  C   UNL A   1     -22.431  -0.691  28.584  0.00  0.00    +0.000 A 
ATOM     14  C   UNL A   1     -23.851  -0.808  28.724  0.00  0.00    +0.000 A 
ENDBRANCH   6   9
ENDBRANCH   1   4
BRANCH   1  15
ATOM     15  O   UNL A   1     -30.593   0.290  30.508  0.00  0.00    -0.438 OA
BRANCH  15  16
ATOM     16  C   UNL A   1     -31.555   0.931  30.213  0.00  0.00    +0.265 C 
BRANCH  16  17
ATOM     17  C   UNL A   1     -31.495   2.023  29.345  0.00  0.00    +0.155 C 
ATOM     18 CL   UNL A   1     -32.163   2.731  28.552  0.00  0.00    -0.063 Cl
ATOM     19  N   UNL A   1     -30.031   2.427  29.330  0.00  0.00    -0.255 NA
BRANCH  19  20
ATOM     20  C   UNL A   1     -29.564   3.433  28.462  0.00  0.00    +0.152 C 
BRANCH  20  21
ATOM     21  C   UNL A   1     -28.271   3.187  27.960  0.00  0.00    -0.000 C 
ATOM     22  C   UNL A   1     -27.171   3.238  28.854  0.00  0.00    -0.003 C 
BRANCH  22  23
ATOM     23  C   UNL A   1     -25.896   2.811  28.425  0.00  0.00    -0.000 C 
ATOM     24  C   UNL A   1     -24.800   2.787  29.390  0.00  0.00    -0.000 C 
BRANCH  24  25
ATOM     25  C   UNL A   1     -25.017   3.136  30.732  0.00  0.00    -0.000 C 
ATOM     26  C   UNL A   1     -26.252   3.566  31.155  0.00  0.00    -0.000 C 
ENDBRANCH  24  25
ENDBRANCH  22  23
ENDBRANCH  20  21
ENDBRANCH  19  20
ENDBRANCH  16  17
ENDBRANCH  15  16
ENDBRANCH   1  15
TORSDOF 9
