MODEL 4444
MODEL 1
REMARK VINA RESULT:    -5.142      0.000      0.000
REMARK INTER + INTRA:          -5.676
REMARK INTER:                  -5.443
REMARK INTRA:                  -0.233
REMARK UNBOUND:                -0.233
REMARK  Name = No_4444-gen_results/8p0m/2024-11-26-14-13-15/
REMARK  1 active torsions:
REMARK  status: ('A' for Active; 'I' for Inactive)
REMARK    1  A    between atoms: C_2  and  N_7
REMARK                            x       y       z     vdW  Elec       q    Type
REMARK                         _______ _______ _______ _____ _____    ______ ____
ROOT
ATOM      1  C   UNL A   1     -23.990  -4.077  28.807  0.00  0.00    +0.019 A 
ATOM      2  C   UNL A   1     -24.246  -2.925  29.069  0.00  0.00    +0.086 A 
ATOM      3  C   UNL A   1     -25.508  -2.555  29.523  0.00  0.00    +0.019 A 
ATOM      4  C   UNL A   1     -26.376  -3.445  29.911  0.00  0.00    +0.002 A 
ATOM      5  C   UNL A   1     -26.117  -4.823  29.599  0.00  0.00    +0.000 A 
ATOM      6  C   UNL A   1     -24.959  -5.108  29.041  0.00  0.00    +0.002 A 
ENDROOT
BRANCH   2   7
ATOM      7  N   UNL A   1     -23.386  -1.841  28.763  0.00  0.00    -0.193 NA
ATOM      8  C   UNL A   1     -22.817  -1.171  29.278  0.00  0.00    +0.366 C 
ATOM      9  F   UNL A   1     -22.779  -1.144  30.529  0.00  0.00    -0.150 F 
ATOM     10  F   UNL A   1     -22.129  -0.159  28.719  0.00  0.00    -0.150 F 
ENDBRANCH   2   7
TORSDOF 1
ENDMDL
ENDMDL
