REMARK  Name = No_4444-gen_results/8p0m/2024-11-26-14-13-15/
REMARK  1 active torsions:
REMARK  status: ('A' for Active; 'I' for Inactive)
REMARK    1  A    between atoms: C_2  and  N_7
REMARK                            x       y       z     vdW  Elec       q    Type
REMARK                         _______ _______ _______ _____ _____    ______ ____
ROOT
ATOM      1  C   UNL A   1     -28.016  -0.814  28.878  0.00  0.00    +0.019 A 
ATOM      2  C   UNL A   1     -27.064  -0.119  28.608  0.00  0.00    +0.086 A 
ATOM      3  C   UNL A   1     -25.792  -0.430  29.076  0.00  0.00    +0.019 A 
ATOM      4  C   UNL A   1     -25.531  -1.588  29.610  0.00  0.00    +0.002 A 
ATOM      5  C   UNL A   1     -26.637  -2.434  29.965  0.00  0.00    +0.000 A 
ATOM      6  C   UNL A   1     -27.841  -2.029  29.620  0.00  0.00    +0.002 A 
ENDROOT
BRANCH   2   7
ATOM      7  N   UNL A   1     -27.171   1.146  27.978  0.00  0.00    -0.193 NA
ATOM      8  C   UNL A   1     -27.803   1.944  28.008  0.00  0.00    +0.366 C 
ATOM      9  F   UNL A   1     -28.830   1.960  28.724  0.00  0.00    -0.150 F 
ATOM     10  F   UNL A   1     -27.708   3.028  27.218  0.00  0.00    -0.150 F 
ENDBRANCH   2   7
TORSDOF 1
