MODEL 4445
MODEL 1
REMARK VINA RESULT:    -5.175      0.000      0.000
REMARK INTER + INTRA:          -5.698
REMARK INTER:                  -5.477
REMARK INTRA:                  -0.220
REMARK UNBOUND:                -0.220
REMARK  Name = No_4445-gen_results/8p0m/2024-11-26-14-13-15/
REMARK  1 active torsions:
REMARK  status: ('A' for Active; 'I' for Inactive)
REMARK    1  A    between atoms: C_3  and  C_4
REMARK                            x       y       z     vdW  Elec       q    Type
REMARK                         _______ _______ _______ _____ _____    ______ ____
ROOT
ATOM      1  C   UNL A   1     -25.834  -2.581  29.837  0.00  0.00    +0.004 A 
ATOM      2  C   UNL A   1     -26.376  -3.480  29.929  0.00  0.00    -0.000 A 
ATOM      3  C   UNL A   1     -24.541  -2.646  29.272  0.00  0.00    +0.071 A 
ATOM      4  C   UNL A   1     -26.025  -4.868  29.577  0.00  0.00    -0.000 A 
ATOM      5  C   UNL A   1     -24.756  -5.008  29.015  0.00  0.00    -0.000 A 
ATOM      6  C   UNL A   1     -23.999  -3.901  28.803  0.00  0.00    +0.004 A 
ENDROOT
BRANCH   3   7
ATOM      7  C   UNL A   1     -23.692  -1.463  28.973  0.00  0.00    +0.419 C 
ATOM      8  F   UNL A   1     -22.581  -1.828  28.954  0.00  0.00    -0.166 F 
ATOM      9  F   UNL A   1     -23.802  -0.617  30.031  0.00  0.00    -0.166 F 
ATOM     10  F   UNL A   1     -24.069  -0.820  27.841  0.00  0.00    -0.166 F 
ENDBRANCH   3   7
TORSDOF 1
ENDMDL
ENDMDL
