REMARK  Name = No_4446-gen_results/8p0m/2024-11-26-14-13-15/
REMARK  2 active torsions:
REMARK  status: ('A' for Active; 'I' for Inactive)
REMARK    1  A    between atoms: C_3  and  C_11
REMARK    2  A    between atoms: C_5  and  C_7
REMARK                            x       y       z     vdW  Elec       q    Type
REMARK                         _______ _______ _______ _____ _____    ______ ____
ROOT
ATOM      1  C   UNL A   1     -28.016  -0.814  28.878  0.00  0.00    -0.000 A 
ATOM      2  C   UNL A   1     -27.064  -0.119  28.608  0.00  0.00    +0.004 A 
ATOM      3  C   UNL A   1     -26.972   0.714  27.506  0.00  0.00    +0.071 A 
ATOM      4  C   UNL A   1     -28.105   0.774  26.642  0.00  0.00    +0.008 A 
ATOM      5  C   UNL A   1     -29.201   0.104  27.053  0.00  0.00    +0.071 A 
ATOM      6  C   UNL A   1     -29.210  -0.603  28.185  0.00  0.00    +0.004 A 
ENDROOT
BRANCH   5   7
ATOM      7  C   UNL A   1     -30.370   0.226  26.160  0.00  0.00    +0.419 C 
ATOM      8  F   UNL A   1     -30.899   1.263  26.193  0.00  0.00    -0.166 F 
ATOM      9  F   UNL A   1     -31.290  -0.732  26.596  0.00  0.00    -0.166 F 
ATOM     10  F   UNL A   1     -29.909  -0.368  25.024  0.00  0.00    -0.166 F 
ENDBRANCH   5   7
BRANCH   3  11
ATOM     11  C   UNL A   1     -25.681   1.409  27.115  0.00  0.00    +0.419 C 
ATOM     12  F   UNL A   1     -25.526   2.444  27.811  0.00  0.00    -0.166 F 
ATOM     13  F   UNL A   1     -24.640   0.634  27.461  0.00  0.00    -0.166 F 
ATOM     14  F   UNL A   1     -25.598   1.679  25.823  0.00  0.00    -0.166 F 
ENDBRANCH   3  11
TORSDOF 2
