MODEL 4446
MODEL 1
REMARK VINA RESULT:    -5.913      0.000      0.000
REMARK INTER + INTRA:          -7.043
REMARK INTER:                  -6.604
REMARK INTRA:                  -0.439
REMARK UNBOUND:                -0.439
REMARK  Name = No_4446-gen_results/8p0m/2024-11-26-14-13-15/
REMARK  2 active torsions:
REMARK  status: ('A' for Active; 'I' for Inactive)
REMARK    1  A    between atoms: C_3  and  C_11
REMARK    2  A    between atoms: C_5  and  C_7
REMARK                            x       y       z     vdW  Elec       q    Type
REMARK                         _______ _______ _______ _____ _____    ______ ____
ROOT
ATOM      1  C   UNL A   1     -20.958   0.807  28.170  0.00  0.00    -0.000 A 
ATOM      2  C   UNL A   1     -21.514   1.595  27.440  0.00  0.00    +0.004 A 
ATOM      3  C   UNL A   1     -22.839   1.518  27.046  0.00  0.00    +0.071 A 
ATOM      4  C   UNL A   1     -23.610   0.439  27.570  0.00  0.00    +0.008 A 
ATOM      5  C   UNL A   1     -23.002  -0.331  28.496  0.00  0.00    +0.071 A 
ATOM      6  C   UNL A   1     -21.739  -0.115  28.870  0.00  0.00    +0.004 A 
ENDROOT
BRANCH   5   7
ATOM      7  C   UNL A   1     -23.843  -1.408  29.052  0.00  0.00    +0.419 C 
ATOM      8  F   UNL A   1     -24.094  -1.292  30.183  0.00  0.00    -0.166 F 
ATOM      9  F   UNL A   1     -23.109  -2.588  28.900  0.00  0.00    -0.166 F 
ATOM     10  F   UNL A   1     -24.774  -1.564  28.069  0.00  0.00    -0.166 F 
ENDBRANCH   5   7
BRANCH   3  11
ATOM     11  C   UNL A   1     -23.425   2.421  25.977  0.00  0.00    +0.419 C 
ATOM     12  F   UNL A   1     -22.566   2.639  25.085  0.00  0.00    -0.166 F 
ATOM     13  F   UNL A   1     -24.398   1.762  25.327  0.00  0.00    -0.166 F 
ATOM     14  F   UNL A   1     -23.923   3.550  26.454  0.00  0.00    -0.166 F 
ENDBRANCH   3  11
TORSDOF 2
ENDMDL
ENDMDL
