MODEL 4447
MODEL 1
REMARK VINA RESULT:    -5.030      0.000      0.000
REMARK INTER + INTRA:          -5.345
REMARK INTER:                  -5.324
REMARK INTRA:                  -0.021
REMARK UNBOUND:                -0.021
REMARK  Name = No_4447-gen_results/8p0m/2024-11-26-14-13-15/
REMARK  1 active torsions:
REMARK  status: ('A' for Active; 'I' for Inactive)
REMARK    1  A    between atoms: C_1  and  C_2
REMARK                            x       y       z     vdW  Elec       q    Type
REMARK                         _______ _______ _______ _____ _____    ______ ____
ROOT
ATOM      1  C   UNL A   1      -9.746 -10.161  18.087  0.00  0.00    +0.042 A 
ATOM      2  C   UNL A   1     -10.402  -9.417  19.053  0.00  0.00    +0.003 A 
ATOM      3  C   UNL A   1      -9.872  -9.026  20.336  0.00  0.00    +0.000 A 
ATOM      4  C   UNL A   1      -8.559  -9.430  20.677  0.00  0.00    +0.000 A 
ATOM      5  C   UNL A   1      -7.841 -10.176  19.681  0.00  0.00    +0.000 A 
ATOM      6  C   UNL A   1      -8.353 -10.514  18.460  0.00  0.00    +0.003 A 
ENDROOT
BRANCH   1   7
ATOM      7  C   UNL A   1     -10.185 -10.420  16.990  0.00  0.00    +0.234 C 
ATOM      8  O   UNL A   1     -11.368 -10.523  16.867  0.00  0.00    -0.283 OA
ENDBRANCH   1   7
TORSDOF 1
ENDMDL
ENDMDL
