MODEL 4448
MODEL 1
REMARK VINA RESULT:    -5.255      0.000      0.000
REMARK INTER + INTRA:          -5.715
REMARK INTER:                  -5.563
REMARK INTRA:                  -0.152
REMARK UNBOUND:                -0.152
REMARK  Name = No_4448-gen_results/8p0m/2024-11-26-14-13-15/
REMARK  1 active torsions:
REMARK  status: ('A' for Active; 'I' for Inactive)
REMARK    1  A    between atoms: C_4  and  C_7
REMARK                            x       y       z     vdW  Elec       q    Type
REMARK                         _______ _______ _______ _____ _____    ______ ____
ROOT
ATOM      1  C   UNL A   1     -26.541  -3.871  29.848  0.00  0.00    -0.000 A 
ATOM      2  C   UNL A   1     -26.178  -4.833  29.616  0.00  0.00    -0.000 A 
ATOM      3  C   UNL A   1     -25.555  -2.740  29.659  0.00  0.00    -0.000 A 
ATOM      4  C   UNL A   1     -24.303  -3.007  29.066  0.00  0.00    -0.000 A 
ATOM      5  C   UNL A   1     -24.960  -5.369  28.967  0.00  0.00    -0.000 A 
ATOM      6  C   UNL A   1     -24.032  -4.356  28.771  0.00  0.00    -0.000 A 
ENDROOT
BRANCH   4   7
ATOM      7  C   UNL A   1     -23.330  -1.986  28.879  0.00  0.00    -0.005 C 
ATOM      8  C   UNL A   1     -23.604  -0.751  28.812  0.00  0.00    -0.026 C 
ATOM      9  C   UNL A   1     -22.575   0.303  28.757  0.00  0.00    +0.031 C 
ENDBRANCH   4   7
TORSDOF 1
ENDMDL
ENDMDL
