REMARK  Name = No_4449-gen_results/8p0m/2024-11-26-14-13-15/
REMARK  4 active torsions:
REMARK  status: ('A' for Active; 'I' for Inactive)
REMARK    1  A    between atoms: C_2  and  C_15
REMARK    2  A    between atoms: C_3  and  C_8
REMARK    3  A    between atoms: C_21  and  O_22
REMARK    4  A    between atoms: O_22  and  C_23
REMARK                            x       y       z     vdW  Elec       q    Type
REMARK                         _______ _______ _______ _____ _____    ______ ____
ROOT
ATOM      1  C   UNL A   1     -27.166   1.071  27.650  0.00  0.00    +0.170 C 
ATOM      2 CL   UNL A   1     -27.724   2.404  28.353  0.00  0.00    -0.101 Cl
ATOM      3  C   UNL A   1     -27.907   0.722  26.400  0.00  0.00    +0.139 C 
ATOM      4  C   UNL A   1     -27.214   0.763  25.214  0.00  0.00    +0.027 C 
ATOM      5  C   UNL A   1     -25.897   1.245  25.316  0.00  0.00    +0.001 C 
ATOM      6  C   UNL A   1     -25.333   2.006  26.253  0.00  0.00    +0.019 C 
ATOM      7  C   UNL A   1     -25.989   1.871  27.589  0.00  0.00    +0.211 C 
ATOM      8  F   UNL A   1     -29.015   0.111  26.473  0.00  0.00    -0.207 F 
ENDROOT
BRANCH   1  10
ATOM      9  C   UNL A   1     -28.016  -0.814  28.878  0.00  0.00    +0.009 A 
ATOM     10  C   UNL A   1     -27.064  -0.119  28.608  0.00  0.00    -0.002 A 
ATOM     11  C   UNL A   1     -25.765  -0.390  29.036  0.00  0.00    -0.016 A 
ATOM     12  C   UNL A   1     -25.530  -1.530  29.901  0.00  0.00    -0.003 A 
ATOM     13  C   UNL A   1     -26.689  -2.289  30.181  0.00  0.00    +0.011 A 
ATOM     14  C   UNL A   1     -27.873  -1.951  29.737  0.00  0.00    +0.057 A 
ATOM     15 CL   UNL A   1     -29.293  -2.768  30.152  0.00  0.00    -0.082 Cl
BRANCH  11  16
ATOM     16  C   UNL A   1     -24.522   0.405  28.721  0.00  0.00    +0.100 C 
ATOM     17  C   UNL A   1     -24.082   1.402  29.547  0.00  0.00    +0.245 C 
ATOM     18  O   UNL A   1     -24.601   1.708  30.586  0.00  0.00    -0.273 OA
ATOM     19  N   UNL A   1     -22.914   2.119  29.120  0.00  0.00    -0.205 NA
ATOM     20  C   UNL A   1     -22.151   1.830  27.940  0.00  0.00    +0.115 C 
ATOM     21  C   UNL A   1     -23.668   0.303  27.580  0.00  0.00    +0.015 C 
ATOM     22  C   UNL A   1     -22.630   0.946  27.247  0.00  0.00    +0.024 C 
ENDBRANCH  11  16
ENDBRANCH   1  10
BRANCH   7  23
ATOM     23  O   UNL A   1     -25.669   2.706  28.520  0.00  0.00    -0.473 OA
BRANCH  23  24
ATOM     24  C   UNL A   1     -25.857   4.136  28.366  0.00  0.00    +0.139 A 
ATOM     25  C   UNL A   1     -26.695   4.799  28.764  0.00  0.00    +0.037 A 
ATOM     26  C   UNL A   1     -24.606   4.698  27.701  0.00  0.00    +0.037 A 
ATOM     27  C   UNL A   1     -26.683   6.258  28.637  0.00  0.00    +0.003 A 
ATOM     28  C   UNL A   1     -24.574   6.112  27.529  0.00  0.00    +0.003 A 
ATOM     29  C   UNL A   1     -25.587   6.889  28.030  0.00  0.00    +0.000 A 
ENDBRANCH  23  24
ENDBRANCH   7  23
TORSDOF 4
