MODEL 444
MODEL 1
REMARK VINA RESULT:    -5.544      0.000      0.000
REMARK INTER + INTRA:          -6.873
REMARK INTER:                  -6.516
REMARK INTRA:                  -0.357
REMARK UNBOUND:                -0.357
REMARK  Name = No_444-gen_results/8p0m/2024-11-26-14-13-15/
REMARK  3 active torsions:
REMARK  status: ('A' for Active; 'I' for Inactive)
REMARK    1  A    between atoms: C_1  and  C_2
REMARK    2  A    between atoms: C_1  and  C_9
REMARK    3  A    between atoms: C_5  and  C_12
REMARK                            x       y       z     vdW  Elec       q    Type
REMARK                         _______ _______ _______ _____ _____    ______ ____
ROOT
ATOM      1  C   UNL A   1     -17.391 -22.203   7.743  0.00  0.00    +0.003 A 
ATOM      2  C   UNL A   1     -18.767 -22.097   7.941  0.00  0.00    -0.002 A 
ATOM      3  C   UNL A   1     -19.707 -21.219   7.217  0.00  0.00    +0.004 A 
ATOM      4  C   UNL A   1     -19.112 -20.237   6.369  0.00  0.00    +0.058 A 
ATOM      5  C   UNL A   1     -17.727 -20.277   6.177  0.00  0.00    +0.004 A 
ATOM      6  C   UNL A   1     -16.918 -21.159   6.805  0.00  0.00    -0.002 A 
ENDROOT
BRANCH   4   7
ATOM      7  C   UNL A   1     -20.030 -19.372   5.631  0.00  0.00    +0.275 C 
ATOM      8  N   UNL A   1     -20.904 -19.594   5.164  0.00  0.00    -0.232 NA
ATOM      9  O   UNL A   1     -19.778 -18.033   5.862  0.00  0.00    -0.266 OA
ATOM     10  C   UNL A   1     -21.215 -20.335   3.899  0.00  0.00    +0.155 C 
ENDBRANCH   4   7
BRANCH   1  11
ATOM     11  C   UNL A   1     -16.681 -22.955   8.370  0.00  0.00    +0.205 C 
ATOM     12 CL   UNL A   1     -17.246 -24.364   8.934  0.00  0.00    -0.098 Cl
BRANCH  11  13
ATOM     13  C   UNL A   1     -15.725 -22.251   9.306  0.00  0.00    +0.384 C 
ATOM     14  O   UNL A   1     -15.996 -22.067  10.455  0.00  0.00    -0.244 OA
ATOM     15  O   UNL A   1     -14.450 -22.216   9.059  0.00  0.00    -0.244 OA
ENDBRANCH  11  13
ENDBRANCH   1  11
TORSDOF 3
ENDMDL
ENDMDL
