REMARK  Name = No_445-gen_results/8p0m/2024-11-26-14-13-15/
REMARK  1 active torsions:
REMARK  status: ('A' for Active; 'I' for Inactive)
REMARK    1  A    between atoms: C_1  and  C_3
REMARK                            x       y       z     vdW  Elec       q    Type
REMARK                         _______ _______ _______ _____ _____    ______ ____
ROOT
ATOM      1  C   UNL A   1     -28.016  -0.814  28.878  0.00  0.00    -0.078 C 
ATOM      2  C   UNL A   1     -28.469  -0.785  29.829  0.00  0.00    -0.014 C 
ENDROOT
BRANCH   1   3
ATOM      3  C   UNL A   1     -28.192   0.147  27.872  0.00  0.00    +0.077 C 
ATOM      4  C   UNL A   1     -29.282   1.012  27.961  0.00  0.00    +0.015 C 
ENDBRANCH   1   3
TORSDOF 1
