REMARK  Name = No_4450-gen_results/8p0m/2024-11-26-14-13-15/
REMARK  2 active torsions:
REMARK  status: ('A' for Active; 'I' for Inactive)
REMARK    1  A    between atoms: C_3  and  C_7
REMARK    2  A    between atoms: C_6  and  C_11
REMARK                            x       y       z     vdW  Elec       q    Type
REMARK                         _______ _______ _______ _____ _____    ______ ____
ROOT
ATOM      1  C   UNL A   1     -28.016  -0.814  28.878  0.00  0.00    +0.007 A 
ATOM      2  C   UNL A   1     -27.064  -0.119  28.608  0.00  0.00    +0.001 A 
ATOM      3  C   UNL A   1     -25.765  -0.390  29.036  0.00  0.00    +0.006 A 
ATOM      4  C   UNL A   1     -25.530  -1.530  29.901  0.00  0.00    +0.001 A 
ATOM      5  C   UNL A   1     -26.658  -2.292  30.203  0.00  0.00    +0.007 A 
ATOM      6  C   UNL A   1     -27.855  -1.956  29.763  0.00  0.00    +0.080 A 
ENDROOT
BRANCH   3   7
ATOM      7  C   UNL A   1     -24.535   0.413  28.743  0.00  0.00    +0.056 C 
ATOM      8  C   UNL A   1     -24.054   1.325  29.576  0.00  0.00    -0.010 C 
ATOM      9  N   UNL A   1     -22.948   2.015  29.108  0.00  0.00    -0.223 NA
ATOM     10  C   UNL A   1     -23.554   1.153  27.868  0.00  0.00    +0.171 C 
ENDBRANCH   3   7
BRANCH   6  11
ATOM     11  C   UNL A   1     -29.003  -2.797  30.176  0.00  0.00    +0.388 C 
ATOM     12  O   UNL A   1     -30.060  -2.465  30.056  0.00  0.00    -0.241 OA
ATOM     13  O   UNL A   1     -28.704  -3.966  30.769  0.00  0.00    -0.241 OA
ENDBRANCH   6  11
TORSDOF 2
