MODEL 4450
MODEL 1
REMARK VINA RESULT:    -5.858      0.000      0.000
REMARK INTER + INTRA:          -6.661
REMARK INTER:                  -6.543
REMARK INTRA:                  -0.118
REMARK UNBOUND:                -0.118
REMARK  Name = No_4450-gen_results/8p0m/2024-11-26-14-13-15/
REMARK  2 active torsions:
REMARK  status: ('A' for Active; 'I' for Inactive)
REMARK    1  A    between atoms: C_3  and  C_7
REMARK    2  A    between atoms: C_6  and  C_11
REMARK                            x       y       z     vdW  Elec       q    Type
REMARK                         _______ _______ _______ _____ _____    ______ ____
ROOT
ATOM      1  C   UNL A   1     -24.563   0.038  27.536  0.00  0.00    +0.007 A 
ATOM      2  C   UNL A   1     -24.989  -1.058  27.817  0.00  0.00    +0.001 A 
ATOM      3  C   UNL A   1     -24.337  -1.942  28.676  0.00  0.00    +0.006 A 
ATOM      4  C   UNL A   1     -23.049  -1.570  29.228  0.00  0.00    +0.001 A 
ATOM      5  C   UNL A   1     -22.587  -0.306  28.863  0.00  0.00    +0.007 A 
ATOM      6  C   UNL A   1     -23.265   0.463  28.034  0.00  0.00    +0.080 A 
ENDROOT
BRANCH   3   7
ATOM      7  C   UNL A   1     -24.797  -3.310  29.077  0.00  0.00    +0.056 C 
ATOM      8  C   UNL A   1     -24.239  -4.422  28.618  0.00  0.00    -0.010 C 
ATOM      9  N   UNL A   1     -24.840  -5.594  29.048  0.00  0.00    -0.223 NA
ATOM     10  C   UNL A   1     -25.806  -4.357  29.478  0.00  0.00    +0.171 C 
ENDBRANCH   3   7
BRANCH   6  11
ATOM     11  C   UNL A   1     -22.672   1.770  27.663  0.00  0.00    +0.388 C 
ATOM     12  O   UNL A   1     -23.257   2.718  27.682  0.00  0.00    -0.241 OA
ATOM     13  O   UNL A   1     -21.397   1.747  27.237  0.00  0.00    -0.241 OA
ENDBRANCH   6  11
TORSDOF 2
ENDMDL
ENDMDL
