REMARK  Name = No_4452-gen_results/8p0m/2024-11-26-14-13-15/
REMARK  3 active torsions:
REMARK  status: ('A' for Active; 'I' for Inactive)
REMARK    1  A    between atoms: C_1  and  C_2
REMARK    2  A    between atoms: C_1  and  C_8
REMARK    3  A    between atoms: C_5  and  C_14
REMARK                            x       y       z     vdW  Elec       q    Type
REMARK                         _______ _______ _______ _____ _____    ______ ____
ROOT
ATOM      1  C   UNL A   1     -28.016  -0.814  28.878  0.00  0.00    +0.053 C 
ENDROOT
BRANCH   1   2
ATOM      2  C   UNL A   1     -29.236  -0.061  29.267  0.00  0.00    -0.018 A 
ATOM      3  C   UNL A   1     -29.807  -0.356  30.383  0.00  0.00    -0.004 A 
ATOM      4  C   UNL A   1     -30.942   0.418  30.823  0.00  0.00    -0.000 A 
ATOM      5  C   UNL A   1     -31.453   1.345  29.924  0.00  0.00    -0.000 A 
ATOM      6  C   UNL A   1     -30.857   1.553  28.736  0.00  0.00    -0.000 A 
ATOM      7  C   UNL A   1     -29.721   0.882  28.382  0.00  0.00    -0.004 A 
ATOM      8  C   UNL A   1     -31.379   2.612  27.818  0.00  0.00    -0.000 A 
ATOM      9  C   UNL A   1     -31.123   2.566  26.579  0.00  0.00    -0.000 A 
ATOM     10  C   UNL A   1     -29.970   1.772  26.154  0.00  0.00    -0.000 A 
ATOM     11  C   UNL A   1     -29.291   0.986  27.010  0.00  0.00    -0.000 A 
ENDBRANCH   1   2
BRANCH   1  12
ATOM     12  C   UNL A   1     -27.064  -0.119  28.608  0.00  0.00    -0.018 A 
ATOM     13  C   UNL A   1     -25.792  -0.430  29.076  0.00  0.00    -0.004 A 
ATOM     14  C   UNL A   1     -24.546   0.349  28.823  0.00  0.00    +0.008 A 
ATOM     15  C   UNL A   1     -24.659   1.420  27.888  0.00  0.00    +0.098 A 
ATOM     16  C   UNL A   1     -25.947   1.681  27.379  0.00  0.00    +0.008 A 
ATOM     17  C   UNL A   1     -27.044   0.974  27.687  0.00  0.00    -0.004 A 
BRANCH  15  18
ATOM     18  C   UNL A   1     -23.463   2.156  27.583  0.00  0.00    +0.477 C 
ATOM     19  N   UNL A   1     -22.248   1.723  28.060  0.00  0.00    +0.205 NA
ATOM     20  N   UNL A   1     -23.481   3.030  26.579  0.00  0.00    +0.205 NA
ENDBRANCH  15  18
ENDBRANCH   1  12
TORSDOF 3
