MODEL 4453
MODEL 1
REMARK VINA RESULT:    -5.323      0.000      0.000
REMARK INTER + INTRA:          -5.786
REMARK INTER:                  -5.635
REMARK INTRA:                  -0.151
REMARK UNBOUND:                -0.151
REMARK  Name = No_4453-gen_results/8p0m/2024-11-26-14-13-15/
REMARK  1 active torsions:
REMARK  status: ('A' for Active; 'I' for Inactive)
REMARK    1  A    between atoms: C_4  and  C_7
REMARK                            x       y       z     vdW  Elec       q    Type
REMARK                         _______ _______ _______ _____ _____    ______ ____
ROOT
ATOM      1  C   UNL A   1     -26.604  -3.984  29.846  0.00  0.00    -0.000 A 
ATOM      2  C   UNL A   1     -26.090  -4.875  29.619  0.00  0.00    -0.000 A 
ATOM      3  C   UNL A   1     -25.829  -2.708  29.603  0.00  0.00    -0.000 A 
ATOM      4  C   UNL A   1     -24.568  -2.773  28.975  0.00  0.00    -0.000 A 
ATOM      5  C   UNL A   1     -24.818  -5.214  28.941  0.00  0.00    -0.000 A 
ATOM      6  C   UNL A   1     -24.081  -4.064  28.696  0.00  0.00    -0.000 A 
ENDROOT
BRANCH   4   7
ATOM      7  C   UNL A   1     -23.786  -1.608  28.739  0.00  0.00    -0.005 C 
ATOM      8  C   UNL A   1     -22.690  -1.360  29.325  0.00  0.00    -0.026 C 
ATOM      9  C   UNL A   1     -21.825  -0.220  28.971  0.00  0.00    +0.031 C 
ENDBRANCH   4   7
TORSDOF 1
ENDMDL
ENDMDL
