MODEL 4454
MODEL 1
REMARK VINA RESULT:    -6.367      0.000      0.000
REMARK INTER + INTRA:          -9.569
REMARK INTER:                  -8.973
REMARK INTRA:                  -0.596
REMARK UNBOUND:                -0.596
REMARK  Name = No_4454-gen_results/8p0m/2024-11-26-14-13-15/
REMARK  7 active torsions:
REMARK  status: ('A' for Active; 'I' for Inactive)
REMARK    1  A    between atoms: C_1  and  C_11
REMARK    2  A    between atoms: C_5  and  C_7
REMARK    3  A    between atoms: N_12  and  C_14
REMARK    4  A    between atoms: C_14  and  C_16
REMARK    5  A    between atoms: C_16  and  C_17
REMARK    6  A    between atoms: C_18  and  C_19
REMARK    7  A    between atoms: C_19  and  C_20
REMARK                            x       y       z     vdW  Elec       q    Type
REMARK                         _______ _______ _______ _____ _____    ______ ____
ROOT
ATOM      1  C   UNL A   1     -25.827   1.616  26.138  0.00  0.00    +0.249 C 
ATOM      2  N   UNL A   1     -26.366   0.957  25.362  0.00  0.00    -0.274 N 
ATOM      3  O   UNL A   1     -26.435   2.760  26.475  0.00  0.00    -0.270 OA
ATOM      4  C   UNL A   1     -25.727  -0.341  24.822  0.00  0.00    +0.115 C 
ENDROOT
BRANCH   1   5
ATOM      5  C   UNL A   1     -24.399   1.539  26.671  0.00  0.00    +0.054 A 
ATOM      6  C   UNL A   1     -23.495   2.123  26.120  0.00  0.00    +0.004 A 
ATOM      7  C   UNL A   1     -22.166   2.081  26.505  0.00  0.00    +0.000 A 
ATOM      8  C   UNL A   1     -21.840   1.258  27.623  0.00  0.00    +0.005 A 
ATOM      9  C   UNL A   1     -22.845   0.506  28.119  0.00  0.00    +0.055 A 
ATOM     10  C   UNL A   1     -24.079   0.559  27.613  0.00  0.00    +0.009 A 
BRANCH   9  11
ATOM     11  C   UNL A   1     -22.470  -0.374  29.243  0.00  0.00    +0.265 C 
ATOM     12  O   UNL A   1     -21.509  -1.113  29.223  0.00  0.00    -0.268 OA
ATOM     13  N   UNL A   1     -23.096  -0.165  30.467  0.00  0.00    -0.200 NA
ATOM     14  C   UNL A   1     -22.670  -0.875  31.616  0.00  0.00    +0.139 C 
ENDBRANCH   9  11
ENDBRANCH   1   5
BRANCH   2  15
ATOM     15  C   UNL A   1     -27.785   1.045  24.966  0.00  0.00    +0.098 C 
BRANCH  15  16
ATOM     16  C   UNL A   1     -27.982   1.176  23.463  0.00  0.00    +0.047 C 
BRANCH  16  17
ATOM     17  C   UNL A   1     -28.448   2.167  23.303  0.00  0.00    -0.029 C 
ATOM     18  C   UNL A   1     -29.812   2.251  23.553  0.00  0.00    -0.026 C 
BRANCH  18  19
ATOM     19  C   UNL A   1     -30.633   2.329  22.945  0.00  0.00    +0.051 C 
BRANCH  19  20
ATOM     20  C   UNL A   1     -31.649   1.351  22.461  0.00  0.00    -0.026 C 
ATOM     21  C   UNL A   1     -32.268   1.693  21.310  0.00  0.00    -0.030 C 
ATOM     22  C   UNL A   1     -31.921   2.856  20.712  0.00  0.00    +0.030 C 
ENDBRANCH  19  20
ENDBRANCH  18  19
ENDBRANCH  16  17
ENDBRANCH  15  16
ENDBRANCH   2  15
TORSDOF 7
ENDMDL
ENDMDL
