REMARK  Name = No_4454-gen_results/8p0m/2024-11-26-14-13-15/
REMARK  7 active torsions:
REMARK  status: ('A' for Active; 'I' for Inactive)
REMARK    1  A    between atoms: C_1  and  C_11
REMARK    2  A    between atoms: C_5  and  C_7
REMARK    3  A    between atoms: N_12  and  C_14
REMARK    4  A    between atoms: C_14  and  C_16
REMARK    5  A    between atoms: C_16  and  C_17
REMARK    6  A    between atoms: C_18  and  C_19
REMARK    7  A    between atoms: C_19  and  C_20
REMARK                            x       y       z     vdW  Elec       q    Type
REMARK                         _______ _______ _______ _____ _____    ______ ____
ROOT
ATOM      1  C   UNL A   1     -28.035  -1.664  30.146  0.00  0.00    +0.249 C 
ATOM      2  N   UNL A   1     -28.698  -1.583  31.084  0.00  0.00    -0.274 N 
ATOM      3  O   UNL A   1     -26.966  -2.464  30.238  0.00  0.00    -0.270 OA
ATOM      4  C   UNL A   1     -29.908  -0.625  31.137  0.00  0.00    +0.115 C 
ENDROOT
BRANCH   1   5
ATOM      5  C   UNL A   1     -28.016  -0.814  28.878  0.00  0.00    +0.054 A 
ATOM      6  C   UNL A   1     -27.064  -0.119  28.608  0.00  0.00    +0.004 A 
ATOM      7  C   UNL A   1     -26.972   0.714  27.506  0.00  0.00    +0.000 A 
ATOM      8  C   UNL A   1     -28.105   0.774  26.642  0.00  0.00    +0.005 A 
ATOM      9  C   UNL A   1     -29.201   0.104  27.053  0.00  0.00    +0.055 A 
ATOM     10  C   UNL A   1     -29.210  -0.603  28.185  0.00  0.00    +0.009 A 
BRANCH   9  11
ATOM     11  C   UNL A   1     -30.375   0.223  26.167  0.00  0.00    +0.265 C 
ATOM     12  O   UNL A   1     -30.327   0.057  24.966  0.00  0.00    -0.268 OA
ATOM     13  N   UNL A   1     -31.632   0.280  26.759  0.00  0.00    -0.200 NA
ATOM     14  C   UNL A   1     -32.800   0.242  25.958  0.00  0.00    +0.139 C 
ENDBRANCH   9  11
ENDBRANCH   1   5
BRANCH   2  15
ATOM     15  C   UNL A   1     -28.713  -2.507  32.235  0.00  0.00    +0.098 C 
BRANCH  15  16
ATOM     16  C   UNL A   1     -30.074  -2.606  32.908  0.00  0.00    +0.047 C 
BRANCH  16  17
ATOM     17  C   UNL A   1     -30.695  -3.240  32.246  0.00  0.00    -0.029 C 
ATOM     18  C   UNL A   1     -31.536  -4.147  32.880  0.00  0.00    -0.026 C 
BRANCH  18  19
ATOM     19  C   UNL A   1     -31.513  -5.165  32.992  0.00  0.00    +0.051 C 
BRANCH  19  20
ATOM     20  C   UNL A   1     -32.441  -6.150  33.617  0.00  0.00    -0.026 C 
ATOM     21  C   UNL A   1     -33.608  -5.634  34.061  0.00  0.00    -0.030 C 
ATOM     22  C   UNL A   1     -33.828  -4.309  33.901  0.00  0.00    +0.030 C 
ENDBRANCH  19  20
ENDBRANCH  18  19
ENDBRANCH  16  17
ENDBRANCH  15  16
ENDBRANCH   2  15
TORSDOF 7
