REMARK  Name = No_4455-gen_results/8p0m/2024-11-26-14-13-15/
REMARK  7 active torsions:
REMARK  status: ('A' for Active; 'I' for Inactive)
REMARK    1  A    between atoms: C_2  and  C_7
REMARK    2  A    between atoms: C_4  and  C_20
REMARK    3  A    between atoms: C_7  and  O_9
REMARK    4  A    between atoms: O_9  and  C_11
REMARK    5  A    between atoms: C_14  and  C_17
REMARK    6  A    between atoms: C_21  and  O_26
REMARK    7  A    between atoms: O_26  and  C_27
REMARK                            x       y       z     vdW  Elec       q    Type
REMARK                         _______ _______ _______ _____ _____    ______ ____
ROOT
ATOM      1  C   UNL A   1     -28.016  -0.814  28.878  0.00  0.00    +0.018 A 
ATOM      2  C   UNL A   1     -28.469  -0.785  29.829  0.00  0.00    +0.077 A 
ATOM      3  C   UNL A   1     -26.504  -0.778  28.877  0.00  0.00    +0.058 A 
ATOM      4  C   UNL A   1     -25.810  -0.853  30.103  0.00  0.00    +0.013 A 
ATOM      5  C   UNL A   1     -27.991  -0.892  31.226  0.00  0.00    +0.006 A 
ATOM      6  C   UNL A   1     -26.604  -0.868  31.265  0.00  0.00    +0.001 A 
ATOM      7 CL   UNL A   1     -25.545  -0.709  27.481  0.00  0.00    -0.082 Cl
ENDROOT
BRANCH   4   8
ATOM      8  C   UNL A   1     -24.366  -0.840  30.199  0.00  0.00    +0.035 A 
ATOM      9  C   UNL A   1     -23.707   0.091  30.916  0.00  0.00    +0.145 A 
ATOM     10  C   UNL A   1     -22.287   0.256  30.748  0.00  0.00    +0.037 A 
ATOM     11  C   UNL A   1     -21.694  -0.473  29.651  0.00  0.00    +0.003 A 
ATOM     12  C   UNL A   1     -22.447  -1.386  28.926  0.00  0.00    +0.000 A 
ATOM     13  C   UNL A   1     -23.772  -1.595  29.191  0.00  0.00    +0.003 A 
BRANCH   9  14
ATOM     14  O   UNL A   1     -24.258   0.810  31.909  0.00  0.00    -0.454 OA
BRANCH  14  15
ATOM     15  C   UNL A   1     -24.425   2.210  31.628  0.00  0.00    +0.145 A 
ATOM     16  C   UNL A   1     -25.394   2.870  32.518  0.00  0.00    +0.037 A 
ATOM     17  C   UNL A   1     -25.445   4.247  32.494  0.00  0.00    +0.003 A 
ATOM     18  C   UNL A   1     -24.975   4.904  31.389  0.00  0.00    +0.000 A 
ATOM     19  C   UNL A   1     -24.384   4.181  30.356  0.00  0.00    +0.003 A 
ATOM     20  C   UNL A   1     -24.004   2.838  30.531  0.00  0.00    +0.037 A 
ENDBRANCH  14  15
ENDBRANCH   9  14
ENDBRANCH   4   8
BRANCH   2  21
ATOM     21  C   UNL A   1     -30.074  -0.836  29.861  0.00  0.00    +0.346 C 
ATOM     22  O   UNL A   1     -30.689  -1.655  30.223  0.00  0.00    -0.244 OA
BRANCH  21  23
ATOM     23  O   UNL A   1     -30.606   0.240  29.267  0.00  0.00    -0.421 OA
BRANCH  23  24
ATOM     24  C   UNL A   1     -31.704   0.524  29.079  0.00  0.00    +0.149 A 
ATOM     25  C   UNL A   1     -32.045   0.784  27.898  0.00  0.00    +0.038 A 
ATOM     26  C   UNL A   1     -33.450   1.087  27.533  0.00  0.00    +0.010 A 
ATOM     27  C   UNL A   1     -34.380   1.134  28.603  0.00  0.00    +0.080 A 
ATOM     28  C   UNL A   1     -33.926   0.863  29.867  0.00  0.00    +0.010 A 
ATOM     29  C   UNL A   1     -32.592   0.565  30.157  0.00  0.00    +0.038 A 
BRANCH  27  30
ATOM     30  C   UNL A   1     -35.741   1.492  28.292  0.00  0.00    +0.388 C 
ATOM     31  O   UNL A   1     -36.316   2.254  28.988  0.00  0.00    -0.241 OA
ATOM     32  O   UNL A   1     -36.236   0.906  27.228  0.00  0.00    -0.241 OA
ENDBRANCH  27  30
ENDBRANCH  23  24
ENDBRANCH  21  23
ENDBRANCH   2  21
TORSDOF 7
