MODEL 4455
MODEL 1
REMARK VINA RESULT:    -7.778      0.000      0.000
REMARK INTER + INTRA:         -12.493
REMARK INTER:                 -10.961
REMARK INTRA:                  -1.533
REMARK UNBOUND:                -1.533
REMARK  Name = No_4455-gen_results/8p0m/2024-11-26-14-13-15/
REMARK  7 active torsions:
REMARK  status: ('A' for Active; 'I' for Inactive)
REMARK    1  A    between atoms: C_2  and  C_7
REMARK    2  A    between atoms: C_4  and  C_20
REMARK    3  A    between atoms: C_7  and  O_9
REMARK    4  A    between atoms: O_9  and  C_11
REMARK    5  A    between atoms: C_14  and  C_17
REMARK    6  A    between atoms: C_21  and  O_26
REMARK    7  A    between atoms: O_26  and  C_27
REMARK                            x       y       z     vdW  Elec       q    Type
REMARK                         _______ _______ _______ _____ _____    ______ ____
ROOT
ATOM      1  C   UNL A   1      -5.031  -0.155  35.644  0.00  0.00    +0.018 A 
ATOM      2  C   UNL A   1      -5.086  -1.046  35.085  0.00  0.00    +0.077 A 
ATOM      3  C   UNL A   1      -6.322   0.627  35.748  0.00  0.00    +0.058 A 
ATOM      4  C   UNL A   1      -7.512   0.068  35.236  0.00  0.00    +0.013 A 
ATOM      5  C   UNL A   1      -6.178  -1.852  34.493  0.00  0.00    +0.006 A 
ATOM      6  C   UNL A   1      -7.382  -1.167  34.575  0.00  0.00    +0.001 A 
ATOM      7 CL   UNL A   1      -6.472   2.139  36.500  0.00  0.00    -0.082 Cl
ENDROOT
BRANCH   4   8
ATOM      8  C   UNL A   1      -8.794   0.736  35.303  0.00  0.00    +0.035 A 
ATOM      9  C   UNL A   1      -9.693   0.459  36.268  0.00  0.00    +0.145 A 
ATOM     10  C   UNL A   1     -11.053   0.910  36.135  0.00  0.00    +0.037 A 
ATOM     11  C   UNL A   1     -11.409   1.468  34.851  0.00  0.00    +0.003 A 
ATOM     12  C   UNL A   1     -10.435   1.684  33.886  0.00  0.00    +0.000 A 
ATOM     13  C   UNL A   1      -9.128   1.342  34.095  0.00  0.00    +0.003 A 
BRANCH   9  14
ATOM     14  O   UNL A   1      -9.384  -0.102  37.450  0.00  0.00    -0.454 OA
BRANCH  14  15
ATOM     15  C   UNL A   1     -10.404  -0.948  38.008  0.00  0.00    +0.145 A 
ATOM     16  C   UNL A   1     -10.514  -0.837  39.472  0.00  0.00    +0.037 A 
ATOM     17  C   UNL A   1     -11.611  -1.415  40.073  0.00  0.00    +0.003 A 
ATOM     18  C   UNL A   1     -12.275  -2.412  39.412  0.00  0.00    +0.000 A 
ATOM     19  C   UNL A   1     -11.885  -2.764  38.122  0.00  0.00    +0.003 A 
ATOM     20  C   UNL A   1     -11.018  -1.946  37.375  0.00  0.00    +0.037 A 
ENDBRANCH  14  15
ENDBRANCH   9  14
ENDBRANCH   4   8
BRANCH   2  21
ATOM     21  C   UNL A   1      -3.734  -1.905  34.969  0.00  0.00    +0.346 C 
ATOM     22  O   UNL A   1      -3.109  -2.243  35.791  0.00  0.00    -0.244 OA
BRANCH  21  23
ATOM     23  O   UNL A   1      -3.376  -2.077  33.691  0.00  0.00    -0.421 OA
BRANCH  23  24
ATOM     24  C   UNL A   1      -2.434  -1.737  33.125  0.00  0.00    +0.149 A 
ATOM     25  C   UNL A   1      -1.673  -2.627  32.670  0.00  0.00    +0.038 A 
ATOM     26  C   UNL A   1      -0.474  -2.300  31.861  0.00  0.00    +0.010 A 
ATOM     27  C   UNL A   1      -0.194  -0.921  31.684  0.00  0.00    +0.080 A 
ATOM     28  C   UNL A   1      -1.058  -0.010  32.232  0.00  0.00    +0.010 A 
ATOM     29  C   UNL A   1      -2.187  -0.370  32.973  0.00  0.00    +0.038 A 
BRANCH  27  30
ATOM     30  C   UNL A   1       1.001  -0.569  30.960  0.00  0.00    +0.388 C 
ATOM     31  O   UNL A   1       1.575   0.427  31.233  0.00  0.00    -0.241 OA
ATOM     32  O   UNL A   1       1.347  -1.416  30.021  0.00  0.00    -0.241 OA
ENDBRANCH  27  30
ENDBRANCH  23  24
ENDBRANCH  21  23
ENDBRANCH   2  21
TORSDOF 7
ENDMDL
ENDMDL
