REMARK  Name = No_4456-gen_results/8p0m/2024-11-26-14-13-15/
REMARK  2 active torsions:
REMARK  status: ('A' for Active; 'I' for Inactive)
REMARK    1  A    between atoms: C_3  and  C_7
REMARK    2  A    between atoms: C_7  and  C_8
REMARK                            x       y       z     vdW  Elec       q    Type
REMARK                         _______ _______ _______ _____ _____    ______ ____
ROOT
ATOM      1  C   UNL A   1     -28.016  -0.814  28.878  0.00  0.00    -0.000 A 
ATOM      2  C   UNL A   1     -27.064  -0.119  28.608  0.00  0.00    -0.004 A 
ATOM      3  C   UNL A   1     -25.765  -0.390  29.036  0.00  0.00    -0.018 A 
ATOM      4  C   UNL A   1     -25.530  -1.530  29.901  0.00  0.00    -0.004 A 
ATOM      5  C   UNL A   1     -26.658  -2.292  30.203  0.00  0.00    -0.000 A 
ATOM      6  C   UNL A   1     -27.855  -1.956  29.763  0.00  0.00    -0.000 A 
ENDROOT
BRANCH   3   7
ATOM      7  C   UNL A   1     -24.535   0.413  28.743  0.00  0.00    +0.044 C 
ATOM      8  C   UNL A   1     -23.581   0.745  29.824  0.00  0.00    +0.009 C 
BRANCH   7   9
ATOM      9  C   UNL A   1     -24.483   1.243  27.740  0.00  0.00    -0.027 C 
ATOM     10  C   UNL A   1     -23.313   1.855  27.351  0.00  0.00    -0.030 C 
ATOM     11  C   UNL A   1     -23.255   2.812  26.280  0.00  0.00    +0.030 C 
ENDBRANCH   7   9
ENDBRANCH   3   7
TORSDOF 2
