MODEL 4456
MODEL 1
REMARK VINA RESULT:    -5.646      0.000      0.000
REMARK INTER + INTRA:          -6.623
REMARK INTER:                  -6.306
REMARK INTRA:                  -0.317
REMARK UNBOUND:                -0.317
REMARK  Name = No_4456-gen_results/8p0m/2024-11-26-14-13-15/
REMARK  2 active torsions:
REMARK  status: ('A' for Active; 'I' for Inactive)
REMARK    1  A    between atoms: C_3  and  C_7
REMARK    2  A    between atoms: C_7  and  C_8
REMARK                            x       y       z     vdW  Elec       q    Type
REMARK                         _______ _______ _______ _____ _____    ______ ____
ROOT
ATOM      1  C   UNL A   1     -21.091   0.652  28.225  0.00  0.00    -0.000 A 
ATOM      2  C   UNL A   1     -21.636  -0.254  28.813  0.00  0.00    -0.004 A 
ATOM      3  C   UNL A   1     -22.996  -0.538  28.701  0.00  0.00    -0.018 A 
ATOM      4  C   UNL A   1     -23.833   0.321  27.886  0.00  0.00    -0.004 A 
ATOM      5  C   UNL A   1     -23.168   1.364  27.243  0.00  0.00    -0.000 A 
ATOM      6  C   UNL A   1     -21.876   1.568  27.414  0.00  0.00    -0.000 A 
ENDROOT
BRANCH   3   7
ATOM      7  C   UNL A   1     -23.744  -1.640  29.388  0.00  0.00    +0.044 C 
ATOM      8  C   UNL A   1     -23.971  -1.595  30.849  0.00  0.00    +0.009 C 
BRANCH   7   9
ATOM      9  C   UNL A   1     -23.786  -2.847  28.899  0.00  0.00    -0.027 C 
ATOM     10  C   UNL A   1     -24.640  -3.809  29.386  0.00  0.00    -0.030 C 
ATOM     11  C   UNL A   1     -24.657  -5.158  28.889  0.00  0.00    +0.030 C 
ENDBRANCH   7   9
ENDBRANCH   3   7
TORSDOF 2
ENDMDL
ENDMDL
