REMARK  Name = No_4457-gen_results/8p0m/2024-11-26-14-13-15/
REMARK  1 active torsions:
REMARK  status: ('A' for Active; 'I' for Inactive)
REMARK    1  A    between atoms: C_3  and  C_4
REMARK                            x       y       z     vdW  Elec       q    Type
REMARK                         _______ _______ _______ _____ _____    ______ ____
ROOT
ATOM      1  C   UNL A   1     -28.016  -0.814  28.878  0.00  0.00    +0.003 A 
ATOM      2  C   UNL A   1     -28.469  -0.785  29.829  0.00  0.00    +0.035 A 
ATOM      3  C   UNL A   1     -28.182   0.428  28.113  0.00  0.00    -0.014 A 
ATOM      4  C   UNL A   1     -29.426   0.110  30.418  0.00  0.00    +0.018 A 
ATOM      5  C   UNL A   1     -29.623   1.220  29.735  0.00  0.00    +0.058 A 
ATOM      6  C   UNL A   1     -28.961   1.453  28.551  0.00  0.00    +0.008 A 
ATOM      7 CL   UNL A   1     -30.678   2.468  30.330  0.00  0.00    -0.082 Cl
ATOM      8 BR   UNL A   1     -28.049  -2.400  30.882  0.00  0.00    -0.049 Br
ENDROOT
BRANCH   3   9
ATOM      9  C   UNL A   1     -27.450   0.643  26.850  0.00  0.00    +0.080 C 
ATOM     10  C   UNL A   1     -27.860   1.457  25.908  0.00  0.00    +0.012 C 
ATOM     11  C   UNL A   1     -27.184   1.582  24.700  0.00  0.00    +0.001 C 
ATOM     12  C   UNL A   1     -26.100   0.743  24.415  0.00  0.00    +0.008 C 
ATOM     13  C   UNL A   1     -25.659  -0.123  25.387  0.00  0.00    +0.065 C 
ATOM     14  C   UNL A   1     -26.292  -0.211  26.579  0.00  0.00    +0.154 C 
ATOM     15  O   UNL A   1     -25.648  -1.078  27.329  0.00  0.00    -0.296 OA
ENDBRANCH   3   9
TORSDOF 1
