MODEL 4457
MODEL 1
REMARK VINA RESULT:    -6.499      0.000      0.000
REMARK INTER + INTRA:          -7.194
REMARK INTER:                  -6.879
REMARK INTRA:                  -0.315
REMARK UNBOUND:                -0.315
REMARK  Name = No_4457-gen_results/8p0m/2024-11-26-14-13-15/
REMARK  1 active torsions:
REMARK  status: ('A' for Active; 'I' for Inactive)
REMARK    1  A    between atoms: C_3  and  C_4
REMARK                            x       y       z     vdW  Elec       q    Type
REMARK                         _______ _______ _______ _____ _____    ______ ____
ROOT
ATOM      1  C   UNL A   1     -25.352  -1.267  30.022  0.00  0.00    +0.003 A 
ATOM      2  C   UNL A   1     -26.083  -2.006  30.199  0.00  0.00    +0.035 A 
ATOM      3  C   UNL A   1     -24.241  -1.734  29.183  0.00  0.00    -0.014 A 
ATOM      4  C   UNL A   1     -26.085  -3.430  30.009  0.00  0.00    +0.018 A 
ATOM      5  C   UNL A   1     -25.080  -3.883  29.288  0.00  0.00    +0.058 A 
ATOM      6  C   UNL A   1     -24.118  -3.031  28.794  0.00  0.00    +0.008 A 
ATOM      7 CL   UNL A   1     -24.956  -5.568  28.874  0.00  0.00    -0.082 Cl
ATOM      8 BR   UNL A   1     -27.638  -1.269  31.164  0.00  0.00    -0.049 Br
ENDROOT
BRANCH   3   9
ATOM      9  C   UNL A   1     -23.232  -0.788  28.667  0.00  0.00    +0.080 C 
ATOM     10  C   UNL A   1     -21.976  -0.798  29.041  0.00  0.00    +0.012 C 
ATOM     11  C   UNL A   1     -21.068   0.153  28.590  0.00  0.00    +0.001 C 
ATOM     12  C   UNL A   1     -21.510   1.225  27.806  0.00  0.00    +0.008 C 
ATOM     13  C   UNL A   1     -22.825   1.258  27.409  0.00  0.00    +0.065 C 
ATOM     14  C   UNL A   1     -23.698   0.307  27.814  0.00  0.00    +0.154 C 
ATOM     15  O   UNL A   1     -24.867   0.554  27.264  0.00  0.00    -0.296 OA
ENDBRANCH   3   9
TORSDOF 1
ENDMDL
ENDMDL
