REMARK  Name = No_4458-gen_results/8p0m/2024-11-26-14-13-15/
REMARK  4 active torsions:
REMARK  status: ('A' for Active; 'I' for Inactive)
REMARK    1  A    between atoms: C_3  and  C_10
REMARK    2  A    between atoms: C_10  and  C_11
REMARK    3  A    between atoms: C_12  and  C_13
REMARK    4  A    between atoms: C_14  and  C_15
REMARK                            x       y       z     vdW  Elec       q    Type
REMARK                         _______ _______ _______ _____ _____    ______ ____
ROOT
ATOM      1  O   UNL A   1     -28.123  -1.335  28.487  0.00  0.00    -0.219 OA
ATOM      2  C   UNL A   1     -27.064  -0.824  28.869  0.00  0.00    +0.192 C 
ATOM      3  C   UNL A   1     -27.025   0.188  29.736  0.00  0.00    +0.201 C 
ATOM      4  O   UNL A   1     -26.001   0.701  29.980  0.00  0.00    -0.470 OA
ATOM      5  C   UNL A   1     -24.952   0.236  29.611  0.00  0.00    +0.190 C 
ATOM      6  C   UNL A   1     -23.698   1.126  29.748  0.00  0.00    +0.166 C 
ATOM      7  C   UNL A   1     -25.758  -1.094  28.274  0.00  0.00    +0.045 C 
ATOM      8  C   UNL A   1     -24.645  -0.225  28.327  0.00  0.00    +0.078 C 
ATOM      9  O   UNL A   1     -23.199   1.675  28.847  0.00  0.00    -0.228 OA
ENDROOT
BRANCH   3  10
ATOM     10  C   UNL A   1     -28.271   0.371  30.511  0.00  0.00    +0.072 C 
BRANCH  10  11
ATOM     11  C   UNL A   1     -28.323   1.225  31.500  0.00  0.00    -0.022 C 
ATOM     12  C   UNL A   1     -29.083   1.627  32.149  0.00  0.00    -0.004 C 
BRANCH  12  13
ATOM     13  C   UNL A   1     -29.037   2.619  33.261  0.00  0.00    -0.000 C 
ATOM     14  C   UNL A   1     -27.778   3.202  33.497  0.00  0.00    -0.000 C 
BRANCH  14  15
ATOM     15  C   UNL A   1     -26.684   2.777  32.702  0.00  0.00    -0.000 C 
ATOM     16  C   UNL A   1     -26.900   1.850  31.763  0.00  0.00    -0.000 C 
ENDBRANCH  14  15
ENDBRANCH  12  13
ENDBRANCH  10  11
ENDBRANCH   3  10
TORSDOF 4
