MODEL 4458
MODEL 1
REMARK VINA RESULT:    -6.065      0.000      0.000
REMARK INTER + INTRA:          -7.952
REMARK INTER:                  -7.483
REMARK INTRA:                  -0.469
REMARK UNBOUND:                -0.469
REMARK  Name = No_4458-gen_results/8p0m/2024-11-26-14-13-15/
REMARK  4 active torsions:
REMARK  status: ('A' for Active; 'I' for Inactive)
REMARK    1  A    between atoms: C_3  and  C_10
REMARK    2  A    between atoms: C_10  and  C_11
REMARK    3  A    between atoms: C_12  and  C_13
REMARK    4  A    between atoms: C_14  and  C_15
REMARK                            x       y       z     vdW  Elec       q    Type
REMARK                         _______ _______ _______ _____ _____    ______ ____
ROOT
ATOM      1  O   UNL A   1     -21.089   0.276  28.250  0.00  0.00    -0.219 OA
ATOM      2  C   UNL A   1     -22.186   0.783  27.988  0.00  0.00    +0.192 C 
ATOM      3  C   UNL A   1     -23.342   0.215  28.333  0.00  0.00    +0.201 C 
ATOM      4  O   UNL A   1     -24.349   0.687  27.966  0.00  0.00    -0.470 OA
ATOM      5  C   UNL A   1     -24.390   1.768  27.435  0.00  0.00    +0.190 C 
ATOM      6  C   UNL A   1     -25.715   2.169  26.751  0.00  0.00    +0.166 C 
ATOM      7  C   UNL A   1     -22.373   1.924  27.096  0.00  0.00    +0.045 C 
ATOM      8  C   UNL A   1     -23.566   2.225  26.402  0.00  0.00    +0.078 C 
ATOM      9  O   UNL A   1     -25.872   2.150  25.595  0.00  0.00    -0.228 OA
ENDROOT
BRANCH   3  10
ATOM     10  C   UNL A   1     -23.221  -0.814  29.388  0.00  0.00    +0.072 C 
BRANCH  10  11
ATOM     11  C   UNL A   1     -23.340  -2.084  29.099  0.00  0.00    -0.022 C 
ATOM     12  C   UNL A   1     -24.147  -2.776  28.926  0.00  0.00    -0.004 C 
BRANCH  12  13
ATOM     13  C   UNL A   1     -24.174  -4.231  28.604  0.00  0.00    -0.000 C 
ATOM     14  C   UNL A   1     -25.270  -4.944  29.127  0.00  0.00    -0.000 C 
BRANCH  14  15
ATOM     15  C   UNL A   1     -26.206  -4.240  29.925  0.00  0.00    -0.000 C 
ATOM     16  C   UNL A   1     -27.478  -4.651  29.928  0.00  0.00    -0.000 C 
ENDBRANCH  14  15
ENDBRANCH  12  13
ENDBRANCH  10  11
ENDBRANCH   3  10
TORSDOF 4
ENDMDL
ENDMDL
