MODEL 4459
MODEL 1
REMARK VINA RESULT:    -5.059      0.000      0.000
REMARK INTER + INTRA:          -5.059
REMARK INTER:                  -5.059
REMARK INTRA:                   0.000
REMARK UNBOUND:                 0.000
REMARK  Name = No_4459-gen_results/8p0m/2024-11-26-14-13-15/
REMARK  0 active torsions:
REMARK  status: ('A' for Active; 'I' for Inactive)
REMARK                            x       y       z     vdW  Elec       q    Type
REMARK                         _______ _______ _______ _____ _____    ______ ____
ROOT
ATOM      1  C   UNL A   1      -9.149  -9.163  20.180  0.00  0.00    +0.053 A 
ATOM      2  C   UNL A   1      -8.172  -9.861  20.036  0.00  0.00    +0.061 A 
ATOM      3  C   UNL A   1      -8.015 -10.652  18.904  0.00  0.00    +0.012 A 
ATOM      4  C   UNL A   1      -9.034 -10.701  17.887  0.00  0.00    +0.004 A 
ATOM      5  C   UNL A   1     -10.141  -9.881  18.144  0.00  0.00    +0.042 A 
ATOM      6  C   UNL A   1     -10.249  -9.164  19.239  0.00  0.00    +0.197 A 
ATOM      7 CL   UNL A   1      -6.889  -9.963  21.165  0.00  0.00    -0.082 Cl
ATOM      8  O   UNL A   1     -11.380  -8.416  19.422  0.00  0.00    -0.286 OA
ENDROOT
TORSDOF 0
ENDMDL
ENDMDL
