MODEL 445
MODEL 1
REMARK VINA RESULT:    -3.228      0.000      0.000
REMARK INTER + INTRA:          -3.417
REMARK INTER:                  -3.417
REMARK INTRA:                   0.000
REMARK UNBOUND:                 0.000
REMARK  Name = No_445-gen_results/8p0m/2024-11-26-14-13-15/
REMARK  1 active torsions:
REMARK  status: ('A' for Active; 'I' for Inactive)
REMARK    1  A    between atoms: C_1  and  C_3
REMARK                            x       y       z     vdW  Elec       q    Type
REMARK                         _______ _______ _______ _____ _____    ______ ____
ROOT
ATOM      1  C   UNL A   1      -9.072  -9.387  19.687  0.00  0.00    -0.078 C 
ATOM      2  C   UNL A   1      -9.889  -9.106  20.290  0.00  0.00    -0.014 C 
ENDROOT
BRANCH   1   3
ATOM      3  C   UNL A   1      -7.723  -9.253  20.044  0.00  0.00    +0.077 C 
ATOM      4  C   UNL A   1      -7.046  -8.094  19.667  0.00  0.00    +0.015 C 
ENDBRANCH   1   3
TORSDOF 1
ENDMDL
ENDMDL
