REMARK  Name = No_446-gen_results/8p0m/2024-11-26-14-13-15/
REMARK  5 active torsions:
REMARK  status: ('A' for Active; 'I' for Inactive)
REMARK    1  A    between atoms: C_3  and  C_4
REMARK    2  A    between atoms: C_4  and  C_8
REMARK    3  A    between atoms: C_8  and  C_9
REMARK    4  A    between atoms: C_9  and  C_10
REMARK    5  A    between atoms: C_9  and  C_13
REMARK                            x       y       z     vdW  Elec       q    Type
REMARK                         _______ _______ _______ _____ _____    ______ ____
ROOT
ATOM      1  C   UNL A   1     -25.683  -0.777  27.683  0.00  0.00    +0.027 C 
ENDROOT
BRANCH   1   4
ATOM      2  C   UNL A   1     -28.016  -0.814  28.878  0.00  0.00    -0.004 A 
ATOM      3  C   UNL A   1     -28.469  -0.785  29.829  0.00  0.00    -0.000 A 
ATOM      4  C   UNL A   1     -26.546  -0.876  28.850  0.00  0.00    -0.022 A 
ATOM      5  C   UNL A   1     -27.918  -1.003  31.188  0.00  0.00    -0.000 A 
ATOM      6  C   UNL A   1     -26.531  -1.079  31.246  0.00  0.00    -0.000 A 
ATOM      7  C   UNL A   1     -25.780  -1.046  30.090  0.00  0.00    -0.004 A 
ENDBRANCH   1   4
BRANCH   1   8
ATOM      8  C   UNL A   1     -25.232   0.579  27.329  0.00  0.00    +0.013 C 
BRANCH   8   9
ATOM      9  C   UNL A   1     -23.982   0.870  27.768  0.00  0.00    +0.044 C 
BRANCH   9  10
ATOM     10  C   UNL A   1     -23.187   0.288  28.722  0.00  0.00    -0.027 C 
ATOM     11  C   UNL A   1     -21.860   0.586  28.992  0.00  0.00    -0.030 C 
ATOM     12  C   UNL A   1     -21.215   1.517  28.176  0.00  0.00    +0.030 C 
ENDBRANCH   9  10
BRANCH   9  13
ATOM     13  C   UNL A   1     -23.247   1.881  26.892  0.00  0.00    -0.022 C 
ATOM     14  C   UNL A   1     -23.955   2.552  25.903  0.00  0.00    -0.005 C 
ENDBRANCH   9  13
ENDBRANCH   8   9
ENDBRANCH   1   8
TORSDOF 5
