REMARK  Name = No_4460-gen_results/8p0m/2024-11-26-14-13-15/
REMARK  3 active torsions:
REMARK  status: ('A' for Active; 'I' for Inactive)
REMARK    1  A    between atoms: C_2  and  C_6
REMARK    2  A    between atoms: N_3  and  C_4
REMARK    3  A    between atoms: C_4  and  C_5
REMARK                            x       y       z     vdW  Elec       q    Type
REMARK                         _______ _______ _______ _____ _____    ______ ____
ROOT
ATOM      1  O   UNL A   1     -28.123  -1.335  28.487  0.00  0.00    -0.273 OA
ATOM      2  C   UNL A   1     -27.481  -0.404  28.709  0.00  0.00    +0.241 C 
ATOM      3  N   UNL A   1     -26.460  -0.110  28.005  0.00  0.00    -0.205 NA
ENDROOT
BRANCH   2   4
ATOM      4  C   UNL A   1     -27.689   0.289  29.999  0.00  0.00    +0.087 C 
ATOM      5  C   UNL A   1     -26.783   1.399  30.150  0.00  0.00    +0.010 C 
ENDBRANCH   2   4
BRANCH   3   6
ATOM      6  C   UNL A   1     -25.810   0.660  28.079  0.00  0.00    +0.115 C 
BRANCH   6   7
ATOM      7  C   UNL A   1     -25.803   1.617  29.134  0.00  0.00    +0.023 C 
ATOM      8  C   UNL A   1     -24.857   2.715  29.296  0.00  0.00    +0.002 C 
ENDBRANCH   6   7
ENDBRANCH   3   6
TORSDOF 3
