MODEL 4460
MODEL 1
REMARK VINA RESULT:    -3.852      0.000      0.000
REMARK INTER + INTRA:          -4.653
REMARK INTER:                  -4.527
REMARK INTRA:                  -0.126
REMARK UNBOUND:                -0.126
REMARK  Name = No_4460-gen_results/8p0m/2024-11-26-14-13-15/
REMARK  3 active torsions:
REMARK  status: ('A' for Active; 'I' for Inactive)
REMARK    1  A    between atoms: C_2  and  C_6
REMARK    2  A    between atoms: N_3  and  C_4
REMARK    3  A    between atoms: C_4  and  C_5
REMARK                            x       y       z     vdW  Elec       q    Type
REMARK                         _______ _______ _______ _____ _____    ______ ____
ROOT
ATOM      1  O   UNL A   1     -12.044 -20.985  23.580  0.00  0.00    -0.273 OA
ATOM      2  C   UNL A   1     -11.768 -21.014  22.461  0.00  0.00    +0.241 C 
ATOM      3  N   UNL A   1     -12.659 -20.987  21.550  0.00  0.00    -0.205 NA
ENDROOT
BRANCH   2   4
ATOM      4  C   UNL A   1     -10.380 -21.374  22.100  0.00  0.00    +0.087 C 
ATOM      5  C   UNL A   1      -9.630 -21.796  23.255  0.00  0.00    +0.010 C 
ENDBRANCH   2   4
BRANCH   3   6
ATOM      6  C   UNL A   1     -12.570 -21.008  20.543  0.00  0.00    +0.115 C 
BRANCH   6   7
ATOM      7  C   UNL A   1     -13.589 -20.610  19.631  0.00  0.00    +0.023 C 
ATOM      8  C   UNL A   1     -13.442 -19.657  18.537  0.00  0.00    +0.002 C 
ENDBRANCH   6   7
ENDBRANCH   3   6
TORSDOF 3
ENDMDL
ENDMDL
