REMARK  Name = No_4461-gen_results/8p0m/2024-11-26-14-13-15/
REMARK  6 active torsions:
REMARK  status: ('A' for Active; 'I' for Inactive)
REMARK    1  A    between atoms: C_4  and  C_5
REMARK    2  A    between atoms: C_5  and  N_8
REMARK    3  A    between atoms: C_6  and  O_11
REMARK    4  A    between atoms: O_11  and  C_12
REMARK    5  A    between atoms: C_12  and  C_13
REMARK    6  A    between atoms: C_15  and  C_16
REMARK                            x       y       z     vdW  Elec       q    Type
REMARK                         _______ _______ _______ _____ _____    ______ ____
ROOT
ATOM      1  C   UNL A   1     -30.232  -4.642  30.218  0.00  0.00    +0.089 C 
ATOM      2  C   UNL A   1     -30.947  -4.255  29.176  0.00  0.00    +0.025 C 
ATOM      3  C   UNL A   1     -32.354  -4.454  29.409  0.00  0.00    +0.072 C 
ATOM      4  N   UNL A   1     -32.445  -4.896  30.727  0.00  0.00    -0.246 NA
ATOM      5  C   UNL A   1     -31.137  -4.955  31.269  0.00  0.00    +0.185 C 
ATOM      6  C   UNL A   1     -33.579  -5.244  31.460  0.00  0.00    +0.101 C 
ATOM      7  C   UNL A   1     -33.448  -5.431  32.617  0.00  0.00    -0.010 A 
ATOM      8  C   UNL A   1     -33.838  -5.447  33.592  0.00  0.00    -0.003 A 
ATOM      9  C   UNL A   1     -33.428  -5.836  34.979  0.00  0.00    -0.000 A 
ATOM     10  C   UNL A   1     -32.115  -6.274  35.029  0.00  0.00    -0.000 A 
ATOM     11  C   UNL A   1     -31.364  -6.330  33.890  0.00  0.00    -0.004 A 
ATOM     12  C   UNL A   1     -31.873  -5.924  32.696  0.00  0.00    -0.025 A 
ATOM     13  C   UNL A   1     -31.715  -7.452  32.043  0.00  0.00    +0.030 C 
ATOM     14  F   UNL A   1     -31.097  -4.164  32.526  0.00  0.00    -0.223 F 
ATOM     15  C   UNL A   1     -30.828  -6.368  31.288  0.00  0.00    +0.053 C 
ENDROOT
BRANCH   3  16
ATOM     16  C   UNL A   1     -33.240  -3.512  28.940  0.00  0.00    +0.084 C 
ATOM     17 BR   UNL A   1     -33.574  -3.078  27.771  0.00  0.00    -0.079 Br
ENDBRANCH   3  16
BRANCH   1  18
ATOM     18  C   UNL A   1     -28.935  -3.939  30.504  0.00  0.00    +0.209 C 
BRANCH  18  19
ATOM     19  O   UNL A   1     -29.026  -2.609  30.197  0.00  0.00    -0.475 OA
BRANCH  19  24
ATOM     20  C   UNL A   1     -28.016  -0.814  28.878  0.00  0.00    +0.037 A 
ATOM     21  C   UNL A   1     -27.064  -0.119  28.608  0.00  0.00    +0.003 A 
ATOM     22  C   UNL A   1     -25.765  -0.390  29.036  0.00  0.00    -0.003 A 
ATOM     23  C   UNL A   1     -25.530  -1.530  29.901  0.00  0.00    -0.003 A 
ATOM     24  C   UNL A   1     -27.927  -1.923  29.790  0.00  0.00    +0.138 A 
ATOM     25  C   UNL A   1     -26.691  -2.281  30.295  0.00  0.00    +0.034 A 
BRANCH  23  26
ATOM     26  C   UNL A   1     -24.324  -1.908  30.432  0.00  0.00    +0.099 C 
BRANCH  26  27
ATOM     27  N   UNL A   1     -23.219  -1.135  30.467  0.00  0.00    -0.267 NA
ATOM     28  C   UNL A   1     -23.148  -0.063  31.350  0.00  0.00    +0.090 C 
ATOM     29  C   UNL A   1     -22.353  -1.001  29.326  0.00  0.00    +0.090 C 
ENDBRANCH  26  27
ENDBRANCH  23  26
ENDBRANCH  19  24
ENDBRANCH  18  19
ENDBRANCH   1  18
TORSDOF 6
