MODEL 4461
MODEL 1
REMARK VINA RESULT:    -7.240      0.000      0.000
REMARK INTER + INTRA:         -11.370
REMARK INTER:                  -9.779
REMARK INTRA:                  -1.591
REMARK UNBOUND:                -1.591
REMARK  Name = No_4461-gen_results/8p0m/2024-11-26-14-13-15/
REMARK  6 active torsions:
REMARK  status: ('A' for Active; 'I' for Inactive)
REMARK    1  A    between atoms: C_4  and  C_5
REMARK    2  A    between atoms: C_5  and  N_8
REMARK    3  A    between atoms: C_6  and  O_11
REMARK    4  A    between atoms: O_11  and  C_12
REMARK    5  A    between atoms: C_12  and  C_13
REMARK    6  A    between atoms: C_15  and  C_16
REMARK                            x       y       z     vdW  Elec       q    Type
REMARK                         _______ _______ _______ _____ _____    ______ ____
ROOT
ATOM      1  C   UNL A   1     -25.467   1.200  29.127  0.00  0.00    +0.089 C 
ATOM      2  C   UNL A   1     -24.324   1.830  28.919  0.00  0.00    +0.025 C 
ATOM      3  C   UNL A   1     -23.212   0.917  28.967  0.00  0.00    +0.072 C 
ATOM      4  N   UNL A   1     -23.783  -0.345  29.115  0.00  0.00    -0.246 NA
ATOM      5  C   UNL A   1     -25.192  -0.195  29.149  0.00  0.00    +0.185 C 
ATOM      6  C   UNL A   1     -23.156  -1.585  29.223  0.00  0.00    +0.101 C 
ATOM      7  C   UNL A   1     -23.834  -2.549  29.171  0.00  0.00    -0.010 A 
ATOM      8  C   UNL A   1     -23.961  -3.569  28.955  0.00  0.00    -0.003 A 
ATOM      9  C   UNL A   1     -25.003  -4.639  29.072  0.00  0.00    -0.000 A 
ATOM     10  C   UNL A   1     -26.195  -4.150  29.579  0.00  0.00    -0.000 A 
ATOM     11  C   UNL A   1     -26.309  -2.834  29.924  0.00  0.00    -0.004 A 
ATOM     12  C   UNL A   1     -25.272  -1.972  29.744  0.00  0.00    -0.025 A 
ATOM     13  C   UNL A   1     -25.161  -1.672  31.382  0.00  0.00    +0.030 C 
ATOM     14  F   UNL A   1     -25.798  -1.075  28.117  0.00  0.00    -0.223 F 
ATOM     15  C   UNL A   1     -25.530  -0.370  30.544  0.00  0.00    +0.053 C 
ENDROOT
BRANCH   3  16
ATOM     16  C   UNL A   1     -22.171   1.098  28.086  0.00  0.00    +0.084 C 
ATOM     17 BR   UNL A   1     -21.998   1.793  27.011  0.00  0.00    -0.079 Br
ENDBRANCH   3  16
BRANCH   1  18
ATOM     18  C   UNL A   1     -26.712   1.727  28.470  0.00  0.00    +0.209 C 
BRANCH  18  19
ATOM     19  O   UNL A   1     -26.435   2.205  27.219  0.00  0.00    -0.475 OA
BRANCH  19  24
ATOM     20  C   UNL A   1     -25.311   0.863  25.511  0.00  0.00    +0.037 A 
ATOM     21  C   UNL A   1     -25.355   0.031  24.634  0.00  0.00    +0.003 A 
ATOM     22  C   UNL A   1     -26.540  -0.414  24.051  0.00  0.00    -0.003 A 
ATOM     23  C   UNL A   1     -27.805   0.092  24.548  0.00  0.00    -0.003 A 
ATOM     24  C   UNL A   1     -26.496   1.380  26.142  0.00  0.00    +0.138 A 
ATOM     25  C   UNL A   1     -27.735   1.000  25.661  0.00  0.00    +0.034 A 
BRANCH  23  26
ATOM     26  C   UNL A   1     -29.051  -0.271  24.107  0.00  0.00    +0.099 C 
BRANCH  26  27
ATOM     27  N   UNL A   1     -30.153   0.504  24.181  0.00  0.00    -0.267 NA
ATOM     28  C   UNL A   1     -31.248   0.086  24.929  0.00  0.00    +0.090 C 
ATOM     29  C   UNL A   1     -30.486   1.446  23.146  0.00  0.00    +0.090 C 
ENDBRANCH  26  27
ENDBRANCH  23  26
ENDBRANCH  19  24
ENDBRANCH  18  19
ENDBRANCH   1  18
TORSDOF 6
ENDMDL
ENDMDL
