REMARK  Name = No_4462-gen_results/8p0m/2024-11-26-14-13-15/
REMARK  3 active torsions:
REMARK  status: ('A' for Active; 'I' for Inactive)
REMARK    1  A    between atoms: C_4  and  C_8
REMARK    2  A    between atoms: C_6  and  C_14
REMARK    3  A    between atoms: C_19  and  C_20
REMARK                            x       y       z     vdW  Elec       q    Type
REMARK                         _______ _______ _______ _____ _____    ______ ____
ROOT
ATOM      1  C   UNL A   1     -26.698   2.824  30.329  0.00  0.00    -0.022 A 
ATOM      2  C   UNL A   1     -27.285   3.649  29.638  0.00  0.00    -0.004 A 
ATOM      3  C   UNL A   1     -27.411   4.848  30.050  0.00  0.00    +0.004 A 
ATOM      4  C   UNL A   1     -26.194   3.068  31.635  0.00  0.00    -0.004 A 
ATOM      5  C   UNL A   1     -26.353   4.353  32.217  0.00  0.00    +0.004 A 
ATOM      6  C   UNL A   1     -27.001   5.324  31.383  0.00  0.00    +0.054 A 
ENDROOT
BRANCH   6   7
ATOM      7  C   UNL A   1     -27.188   6.672  31.908  0.00  0.00    +0.249 C 
ATOM      8  N   UNL A   1     -27.281   6.968  32.943  0.00  0.00    -0.276 N 
ATOM      9  O   UNL A   1     -26.860   7.627  31.058  0.00  0.00    -0.270 OA
ATOM     10  C   UNL A   1     -27.552   6.076  34.076  0.00  0.00    +0.094 C 
ATOM     11  C   UNL A   1     -27.940   8.303  33.285  0.00  0.00    +0.094 C 
ATOM     12  C   UNL A   1     -28.390   8.445  34.368  0.00  0.00    +0.022 C 
ATOM     13  C   UNL A   1     -27.994   6.507  35.358  0.00  0.00    +0.022 C 
ATOM     14  C   UNL A   1     -28.447   7.738  35.486  0.00  0.00    +0.004 C 
ENDBRANCH   6   7
BRANCH   1  20
ATOM     15  O   UNL A   1     -28.123  -1.335  28.487  0.00  0.00    -0.296 OA
ATOM     16  C   UNL A   1     -27.064  -0.824  28.869  0.00  0.00    +0.151 C 
ATOM     17  C   UNL A   1     -25.946  -1.040  28.849  0.00  0.00    +0.069 C 
ATOM     18  C   UNL A   1     -24.760  -0.156  29.164  0.00  0.00    +0.032 C 
ATOM     19  C   UNL A   1     -25.092   1.079  29.649  0.00  0.00    +0.010 C 
ATOM     20  C   UNL A   1     -26.409   1.438  29.707  0.00  0.00    +0.030 C 
ATOM     21  C   UNL A   1     -27.369   0.659  29.415  0.00  0.00    +0.069 C 
BRANCH  18  22
ATOM     22  C   UNL A   1     -23.356  -0.564  29.121  0.00  0.00    -0.003 A 
ATOM     23  C   UNL A   1     -22.432   0.242  28.455  0.00  0.00    -0.001 A 
ATOM     24  C   UNL A   1     -21.048   0.085  28.556  0.00  0.00    +0.020 A 
ATOM     25  C   UNL A   1     -20.672  -1.230  28.999  0.00  0.00    +0.099 A 
ATOM     26  C   UNL A   1     -22.908  -1.729  29.709  0.00  0.00    +0.095 A 
ATOM     27  N   UNL A   1     -21.514  -1.969  29.661  0.00  0.00    -0.243 NA
ENDBRANCH  18  22
ENDBRANCH   1  20
TORSDOF 3
