MODEL 4463
MODEL 1
REMARK VINA RESULT:    -7.425      0.000      0.000
REMARK INTER + INTRA:         -10.775
REMARK INTER:                  -9.162
REMARK INTRA:                  -1.614
REMARK UNBOUND:                -1.614
REMARK  Name = No_4463-gen_results/8p0m/2024-11-26-14-13-15/
REMARK  4 active torsions:
REMARK  status: ('A' for Active; 'I' for Inactive)
REMARK    1  A    between atoms: C_3  and  C_7
REMARK    2  A    between atoms: C_8  and  C_9
REMARK    3  A    between atoms: C_9  and  C_10
REMARK    4  A    between atoms: C_14  and  C_16
REMARK                            x       y       z     vdW  Elec       q    Type
REMARK                         _______ _______ _______ _____ _____    ______ ____
ROOT
ATOM      1  C   UNL A   1     -23.824  -1.658  28.733  0.00  0.00    +0.044 C 
ATOM      2  C   UNL A   1     -24.815  -0.692  28.066  0.00  0.00    +0.009 C 
ENDROOT
BRANCH   1   3
ATOM      3  C   UNL A   1     -24.211  -2.719  28.849  0.00  0.00    -0.018 A 
ATOM      4  C   UNL A   1     -24.025  -3.812  28.793  0.00  0.00    -0.004 A 
ATOM      5  C   UNL A   1     -24.818  -4.995  29.156  0.00  0.00    -0.000 A 
ATOM      6  C   UNL A   1     -26.059  -4.732  29.670  0.00  0.00    +0.007 A 
ATOM      7  C   UNL A   1     -26.425  -3.413  29.839  0.00  0.00    +0.080 A 
ATOM      8  C   UNL A   1     -25.664  -2.526  29.565  0.00  0.00    +0.003 A 
BRANCH   7   9
ATOM      9  C   UNL A   1     -27.758  -3.144  30.464  0.00  0.00    +0.388 C 
ATOM     10  O   UNL A   1     -28.384  -2.289  30.129  0.00  0.00    -0.241 OA
ATOM     11  O   UNL A   1     -28.332  -4.139  31.182  0.00  0.00    -0.241 OA
ENDBRANCH   7   9
ENDBRANCH   1   3
BRANCH   1  13
ATOM     12  C   UNL A   1     -22.282  -0.379  30.070  0.00  0.00    -0.002 C 
ATOM     13  C   UNL A   1     -22.572  -1.023  28.906  0.00  0.00    -0.022 C 
BRANCH  12  16
ATOM     14  C   UNL A   1     -25.023   0.853  32.193  0.00  0.00    +0.030 A 
ATOM     15  C   UNL A   1     -24.225   0.789  31.287  0.00  0.00    +0.140 A 
ATOM     16  C   UNL A   1     -23.283  -0.231  31.160  0.00  0.00    +0.027 A 
ATOM     17  C   UNL A   1     -23.200  -1.248  32.189  0.00  0.00    +0.002 A 
ATOM     18  C   UNL A   1     -24.157  -1.104  33.220  0.00  0.00    +0.000 A 
ATOM     19  C   UNL A   1     -25.001  -0.105  33.258  0.00  0.00    +0.002 A 
ATOM     20  F   UNL A   1     -24.251   1.657  30.247  0.00  0.00    -0.204 F 
ENDBRANCH  12  16
ENDBRANCH   1  13
TORSDOF 4
ENDMDL
ENDMDL
