REMARK  Name = No_4463-gen_results/8p0m/2024-11-26-14-13-15/
REMARK  4 active torsions:
REMARK  status: ('A' for Active; 'I' for Inactive)
REMARK    1  A    between atoms: C_3  and  C_7
REMARK    2  A    between atoms: C_8  and  C_9
REMARK    3  A    between atoms: C_9  and  C_10
REMARK    4  A    between atoms: C_14  and  C_16
REMARK                            x       y       z     vdW  Elec       q    Type
REMARK                         _______ _______ _______ _____ _____    ______ ____
ROOT
ATOM      1  C   UNL A   1     -24.827   1.718  30.737  0.00  0.00    +0.044 C 
ATOM      2  C   UNL A   1     -24.605   0.658  31.827  0.00  0.00    +0.009 C 
ENDROOT
BRANCH   1   3
ATOM      3  C   UNL A   1     -25.413   2.627  31.081  0.00  0.00    -0.018 A 
ATOM      4  C   UNL A   1     -25.914   3.183  31.902  0.00  0.00    -0.004 A 
ATOM      5  C   UNL A   1     -26.534   4.512  31.994  0.00  0.00    -0.000 A 
ATOM      6  C   UNL A   1     -26.515   5.248  30.841  0.00  0.00    +0.007 A 
ATOM      7  C   UNL A   1     -25.891   4.707  29.736  0.00  0.00    +0.080 A 
ATOM      8  C   UNL A   1     -25.359   3.632  29.798  0.00  0.00    +0.003 A 
BRANCH   7   9
ATOM      9  C   UNL A   1     -25.821   5.551  28.503  0.00  0.00    +0.388 C 
ATOM     10  O   UNL A   1     -26.623   5.509  27.735  0.00  0.00    -0.241 OA
ATOM     11  O   UNL A   1     -24.964   6.601  28.503  0.00  0.00    -0.241 OA
ENDBRANCH   7   9
ENDBRANCH   1   3
BRANCH   1  13
ATOM     12  C   UNL A   1     -24.549   0.410  28.734  0.00  0.00    -0.002 C 
ATOM     13  C   UNL A   1     -24.093   1.378  29.576  0.00  0.00    -0.022 C 
BRANCH  12  16
ATOM     14  C   UNL A   1     -28.016  -0.814  28.878  0.00  0.00    +0.030 A 
ATOM     15  C   UNL A   1     -27.064  -0.119  28.608  0.00  0.00    +0.140 A 
ATOM     16  C   UNL A   1     -25.765  -0.390  29.036  0.00  0.00    +0.027 A 
ATOM     17  C   UNL A   1     -25.530  -1.530  29.901  0.00  0.00    +0.002 A 
ATOM     18  C   UNL A   1     -26.689  -2.289  30.181  0.00  0.00    +0.000 A 
ATOM     19  C   UNL A   1     -27.873  -1.951  29.737  0.00  0.00    +0.002 A 
ATOM     20  F   UNL A   1     -27.164   0.937  27.765  0.00  0.00    -0.204 F 
ENDBRANCH  12  16
ENDBRANCH   1  13
TORSDOF 4
