REMARK  Name = No_4464-gen_results/8p0m/2024-11-26-14-13-15/
REMARK  6 active torsions:
REMARK  status: ('A' for Active; 'I' for Inactive)
REMARK    1  A    between atoms: C_4  and  C_16
REMARK    2  A    between atoms: C_5  and  C_11
REMARK    3  A    between atoms: C_10  and  O_23
REMARK    4  A    between atoms: N_12  and  C_14
REMARK    5  A    between atoms: O_23  and  C_24
REMARK    6  A    between atoms: C_24  and  C_25
REMARK                            x       y       z     vdW  Elec       q    Type
REMARK                         _______ _______ _______ _____ _____    ______ ____
ROOT
ATOM      1  C   UNL A   1     -28.016  -0.814  28.878  0.00  0.00    -0.006 C 
ATOM      2  C   UNL A   1     -27.064  -0.119  28.608  0.00  0.00    -0.010 C 
ATOM      3  C   UNL A   1     -26.876   1.133  28.913  0.00  0.00    +0.213 C 
ATOM      4  C   UNL A   1     -25.688   1.952  28.567  0.00  0.00    +0.261 C 
ATOM      5  C   UNL A   1     -24.639   1.283  27.875  0.00  0.00    +0.120 C 
ATOM      6  C   UNL A   1     -24.807  -0.051  27.604  0.00  0.00    +0.017 C 
ATOM      7  C   UNL A   1     -25.902  -0.767  27.951  0.00  0.00    +0.025 C 
ATOM      8  C   UNL A   1     -28.645  -0.528  30.243  0.00  0.00    -0.003 C 
ATOM      9  C   UNL A   1     -28.912   0.796  30.435  0.00  0.00    +0.006 C 
ATOM     10  C   UNL A   1     -27.675   1.649  30.099  0.00  0.00    +0.174 C 
ATOM     11  F   UNL A   1     -26.086   2.313  27.553  0.00  0.00    -0.228 F 
ATOM     12  F   UNL A   1     -27.858   1.737  27.961  0.00  0.00    -0.230 F 
ENDROOT
BRANCH   4  13
ATOM     13  C   UNL A   1     -25.604   3.372  28.909  0.00  0.00    +0.428 C 
ATOM     14  F   UNL A   1     -24.641   3.916  28.345  0.00  0.00    -0.167 F 
ATOM     15  F   UNL A   1     -25.434   3.429  30.259  0.00  0.00    -0.167 F 
ATOM     16  F   UNL A   1     -26.792   3.895  28.623  0.00  0.00    -0.167 F 
ENDBRANCH   4  13
BRANCH   5  17
ATOM     17  C   UNL A   1     -23.471   1.973  27.367  0.00  0.00    +0.245 C 
ATOM     18  N   UNL A   1     -22.258   1.627  27.688  0.00  0.00    -0.190 NA
ATOM     19  O   UNL A   1     -23.651   3.020  26.662  0.00  0.00    -0.273 OA
BRANCH  18  20
ATOM     20  C   UNL A   1     -21.850   0.703  28.666  0.00  0.00    +0.174 C 
ATOM     21  C   UNL A   1     -22.668   0.194  29.607  0.00  0.00    +0.042 C 
ATOM     22 CL   UNL A   1     -20.229   0.177  28.545  0.00  0.00    -0.091 Cl
ENDBRANCH  18  20
ENDBRANCH   5  17
BRANCH  10  23
ATOM     23  O   UNL A   1     -27.986   3.017  30.358  0.00  0.00    -0.344 OA
BRANCH  23  24
ATOM     24  C   UNL A   1     -28.221   3.279  31.701  0.00  0.00    +0.169 C 
BRANCH  24  25
ATOM     25  C   UNL A   1     -29.131   4.144  31.869  0.00  0.00    +0.007 A 
ATOM     26  C   UNL A   1     -29.459   4.425  33.231  0.00  0.00    -0.002 A 
ATOM     27  C   UNL A   1     -30.382   5.366  33.652  0.00  0.00    -0.000 A 
ATOM     28  C   UNL A   1     -31.066   6.052  32.597  0.00  0.00    -0.000 A 
ATOM     29  C   UNL A   1     -30.772   5.821  31.274  0.00  0.00    -0.000 A 
ATOM     30  C   UNL A   1     -29.809   4.880  30.919  0.00  0.00    -0.002 A 
ENDBRANCH  24  25
ENDBRANCH  23  24
ENDBRANCH  10  23
TORSDOF 6
