MODEL 4464
MODEL 1
REMARK VINA RESULT:    -6.670      0.000      0.000
REMARK INTER + INTRA:          -8.687
REMARK INTER:                  -9.009
REMARK INTRA:                   0.322
REMARK UNBOUND:                 0.322
REMARK  Name = No_4464-gen_results/8p0m/2024-11-26-14-13-15/
REMARK  6 active torsions:
REMARK  status: ('A' for Active; 'I' for Inactive)
REMARK    1  A    between atoms: C_4  and  C_16
REMARK    2  A    between atoms: C_5  and  C_11
REMARK    3  A    between atoms: C_10  and  O_23
REMARK    4  A    between atoms: N_12  and  C_14
REMARK    5  A    between atoms: O_23  and  C_24
REMARK    6  A    between atoms: C_24  and  C_25
REMARK                            x       y       z     vdW  Elec       q    Type
REMARK                         _______ _______ _______ _____ _____    ______ ____
ROOT
ATOM      1  C   UNL A   1     -22.655   2.205  26.132  0.00  0.00    -0.006 C 
ATOM      2  C   UNL A   1     -23.837   2.078  26.355  0.00  0.00    -0.010 C 
ATOM      3  C   UNL A   1     -24.415   1.207  27.132  0.00  0.00    +0.213 C 
ATOM      4  C   UNL A   1     -25.873   1.087  27.385  0.00  0.00    +0.261 C 
ATOM      5  C   UNL A   1     -26.706   2.050  26.748  0.00  0.00    +0.120 C 
ATOM      6  C   UNL A   1     -26.096   3.006  25.976  0.00  0.00    +0.017 C 
ATOM      7  C   UNL A   1     -24.759   3.090  25.783  0.00  0.00    +0.025 C 
ATOM      8  C   UNL A   1     -21.748   1.917  27.330  0.00  0.00    -0.003 C 
ATOM      9  C   UNL A   1     -22.027   0.724  27.930  0.00  0.00    +0.006 C 
ATOM     10  C   UNL A   1     -23.535   0.603  28.215  0.00  0.00    +0.174 C 
ATOM     11  F   UNL A   1     -26.084   0.372  26.513  0.00  0.00    -0.228 F 
ATOM     12  F   UNL A   1     -24.229  -0.004  26.275  0.00  0.00    -0.230 F 
ENDROOT
BRANCH   4  13
ATOM     13  C   UNL A   1     -26.424   0.030  28.233  0.00  0.00    +0.428 C 
ATOM     14  F   UNL A   1     -25.746  -1.007  28.160  0.00  0.00    -0.167 F 
ATOM     15  F   UNL A   1     -27.681  -0.212  27.771  0.00  0.00    -0.167 F 
ATOM     16  F   UNL A   1     -26.529   0.549  29.453  0.00  0.00    -0.167 F 
ENDBRANCH   4  13
BRANCH   5  17
ATOM     17  C   UNL A   1     -28.152   1.993  26.803  0.00  0.00    +0.245 C 
ATOM     18  N   UNL A   1     -28.871   1.497  25.837  0.00  0.00    -0.190 NA
ATOM     19  O   UNL A   1     -28.738   2.544  27.792  0.00  0.00    -0.273 OA
BRANCH  18  20
ATOM     20  C   UNL A   1     -28.449   1.111  24.553  0.00  0.00    +0.174 C 
ATOM     21  C   UNL A   1     -28.183  -0.161  24.199  0.00  0.00    +0.042 C 
ATOM     22 CL   UNL A   1     -28.369   2.369  23.400  0.00  0.00    -0.091 Cl
ENDBRANCH  18  20
ENDBRANCH   5  17
BRANCH  10  23
ATOM     23  O   UNL A   1     -23.771  -0.636  28.881  0.00  0.00    -0.344 OA
BRANCH  23  24
ATOM     24  C   UNL A   1     -23.157  -0.713  30.124  0.00  0.00    +0.169 C 
BRANCH  24  25
ATOM     25  C   UNL A   1     -23.907  -0.296  31.056  0.00  0.00    +0.007 A 
ATOM     26  C   UNL A   1     -23.952   1.124  31.211  0.00  0.00    -0.002 A 
ATOM     27  C   UNL A   1     -24.737   1.803  32.126  0.00  0.00    -0.000 A 
ATOM     28  C   UNL A   1     -25.513   0.966  32.991  0.00  0.00    -0.000 A 
ATOM     29  C   UNL A   1     -25.509  -0.404  32.868  0.00  0.00    -0.000 A 
ATOM     30  C   UNL A   1     -24.717  -1.023  31.904  0.00  0.00    -0.002 A 
ENDBRANCH  24  25
ENDBRANCH  23  24
ENDBRANCH  10  23
TORSDOF 6
ENDMDL
ENDMDL
