MODEL 4465
MODEL 1
REMARK VINA RESULT:    -4.531      0.000      0.000
REMARK INTER + INTRA:          -4.531
REMARK INTER:                  -4.531
REMARK INTRA:                   0.000
REMARK UNBOUND:                 0.000
REMARK  Name = No_4465-gen_results/8p0m/2024-11-26-14-13-15/
REMARK  0 active torsions:
REMARK  status: ('A' for Active; 'I' for Inactive)
REMARK                            x       y       z     vdW  Elec       q    Type
REMARK                         _______ _______ _______ _____ _____    ______ ____
ROOT
ATOM      1  C   UNL A   1      -8.195  -9.843  19.823  0.00  0.00    +0.058 A 
ATOM      2  C   UNL A   1      -9.244  -9.268  20.001  0.00  0.00    +0.011 A 
ATOM      3  C   UNL A   1     -10.297  -9.305  19.109  0.00  0.00    +0.001 A 
ATOM      4  C   UNL A   1     -10.150 -10.096  17.936  0.00  0.00    +0.000 A 
ATOM      5  C   UNL A   1      -9.030 -10.853  17.865  0.00  0.00    +0.001 A 
ATOM      6  C   UNL A   1      -8.090 -10.784  18.788  0.00  0.00    +0.011 A 
ATOM      7 CL   UNL A   1      -6.930  -9.767  21.012  0.00  0.00    -0.082 Cl
ENDROOT
TORSDOF 0
ENDMDL
ENDMDL
