MODEL 4466
MODEL 1
REMARK VINA RESULT:    -6.499      0.000      0.000
REMARK INTER + INTRA:          -7.768
REMARK INTER:                  -7.259
REMARK INTRA:                  -0.509
REMARK UNBOUND:                -0.509
REMARK  Name = No_4466-gen_results/8p0m/2024-11-26-14-13-15/
REMARK  2 active torsions:
REMARK  status: ('A' for Active; 'I' for Inactive)
REMARK    1  A    between atoms: C_4  and  C_7
REMARK    2  A    between atoms: C_7  and  C_8
REMARK                            x       y       z     vdW  Elec       q    Type
REMARK                         _______ _______ _______ _____ _____    ______ ____
ROOT
ATOM      1  C   UNL A   1     -26.439  -3.966  29.847  0.00  0.00    +0.029 A 
ATOM      2  C   UNL A   1     -25.917  -4.753  29.378  0.00  0.00    +0.002 A 
ATOM      3  C   UNL A   1     -25.683  -2.727  30.089  0.00  0.00    +0.137 A 
ATOM      4  C   UNL A   1     -24.361  -2.572  29.579  0.00  0.00    +0.010 A 
ATOM      5  C   UNL A   1     -23.834  -3.663  28.935  0.00  0.00    -0.002 A 
ATOM      6  C   UNL A   1     -24.563  -4.786  28.764  0.00  0.00    -0.000 A 
ATOM      7  F   UNL A   1     -26.172  -1.659  30.734  0.00  0.00    -0.204 F 
ENDROOT
BRANCH   4   8
ATOM      8  C   UNL A   1     -23.617  -1.346  29.798  0.00  0.00    +0.055 C 
BRANCH   8   9
ATOM      9  C   UNL A   1     -23.510  -0.470  28.696  0.00  0.00    -0.018 A 
ATOM     10  C   UNL A   1     -24.500  -0.394  27.706  0.00  0.00    -0.004 A 
ATOM     11  C   UNL A   1     -24.484   0.567  26.737  0.00  0.00    -0.000 A 
ATOM     12  C   UNL A   1     -22.352   0.340  28.473  0.00  0.00    -0.004 A 
ATOM     13  C   UNL A   1     -22.335   1.417  27.598  0.00  0.00    -0.000 A 
ATOM     14  C   UNL A   1     -23.422   1.522  26.650  0.00  0.00    -0.000 A 
ENDBRANCH   8   9
ENDBRANCH   4   8
TORSDOF 2
ENDMDL
ENDMDL
