MODEL 4467
MODEL 1
REMARK VINA RESULT:    -4.298      0.000      0.000
REMARK INTER + INTRA:          -4.298
REMARK INTER:                  -4.298
REMARK INTRA:                   0.000
REMARK UNBOUND:                 0.000
REMARK  Name = No_4467-gen_results/8p0m/2024-11-26-14-13-15/
REMARK  0 active torsions:
REMARK  status: ('A' for Active; 'I' for Inactive)
REMARK                            x       y       z     vdW  Elec       q    Type
REMARK                         _______ _______ _______ _____ _____    ______ ____
ROOT
ATOM      1  C   UNL A   1     -24.901  -5.396  28.949  0.00  0.00    +0.000 A 
ATOM      2  C   UNL A   1     -24.151  -4.699  28.700  0.00  0.00    +0.000 A 
ATOM      3  C   UNL A   1     -26.073  -4.793  29.584  0.00  0.00    +0.000 A 
ATOM      4  C   UNL A   1     -26.169  -3.442  29.805  0.00  0.00    +0.000 A 
ATOM      5  C   UNL A   1     -23.984  -3.249  28.807  0.00  0.00    +0.000 A 
ATOM      6  C   UNL A   1     -25.113  -2.657  29.421  0.00  0.00    +0.000 A 
ENDROOT
TORSDOF 0
ENDMDL
ENDMDL
