REMARK  Name = No_4468-gen_results/8p0m/2024-11-26-14-13-15/
REMARK  4 active torsions:
REMARK  status: ('A' for Active; 'I' for Inactive)
REMARK    1  A    between atoms: C_2  and  C_8
REMARK    2  A    between atoms: C_3  and  N_11
REMARK    3  A    between atoms: N_11  and  C_12
REMARK    4  A    between atoms: C_12  and  C_13
REMARK                            x       y       z     vdW  Elec       q    Type
REMARK                         _______ _______ _______ _____ _____    ______ ____
ROOT
ATOM      1  C   UNL A   1     -28.016  -0.814  28.878  0.00  0.00    +0.024 A 
ATOM      2  C   UNL A   1     -28.469  -0.785  29.829  0.00  0.00    +0.081 A 
ATOM      3  C   UNL A   1     -26.504  -0.778  28.877  0.00  0.00    +0.076 A 
ATOM      4  C   UNL A   1     -25.810  -0.853  30.103  0.00  0.00    +0.072 A 
ATOM      5  C   UNL A   1     -27.991  -0.892  31.226  0.00  0.00    +0.007 A 
ATOM      6  C   UNL A   1     -26.604  -0.868  31.265  0.00  0.00    +0.013 A 
ATOM      7 CL   UNL A   1     -24.165  -0.791  30.172  0.00  0.00    -0.081 Cl
ENDROOT
BRANCH   2   8
ATOM      8  C   UNL A   1     -30.098  -0.877  30.044  0.00  0.00    +0.388 C 
ATOM      9  O   UNL A   1     -30.687  -1.827  30.227  0.00  0.00    -0.241 OA
ATOM     10  O   UNL A   1     -30.716   0.253  29.729  0.00  0.00    -0.241 OA
ENDBRANCH   2   8
BRANCH   3  11
ATOM     11  N   UNL A   1     -25.897  -0.645  27.643  0.00  0.00    -0.237 NA
BRANCH  11  12
ATOM     12  C   UNL A   1     -24.668   0.036  27.641  0.00  0.00    +0.112 C 
BRANCH  12  13
ATOM     13  C   UNL A   1     -24.086   0.646  28.458  0.00  0.00    +0.023 C 
ATOM     14  C   UNL A   1     -23.050   1.728  27.982  0.00  0.00    +0.002 C 
ENDBRANCH  12  13
ENDBRANCH  11  12
ENDBRANCH   3  11
TORSDOF 4
