MODEL 4468
MODEL 1
REMARK VINA RESULT:    -5.395      0.000      0.000
REMARK INTER + INTRA:          -7.022
REMARK INTER:                  -6.657
REMARK INTRA:                  -0.365
REMARK UNBOUND:                -0.365
REMARK  Name = No_4468-gen_results/8p0m/2024-11-26-14-13-15/
REMARK  4 active torsions:
REMARK  status: ('A' for Active; 'I' for Inactive)
REMARK    1  A    between atoms: C_2  and  C_8
REMARK    2  A    between atoms: C_3  and  N_11
REMARK    3  A    between atoms: N_11  and  C_12
REMARK    4  A    between atoms: C_12  and  C_13
REMARK                            x       y       z     vdW  Elec       q    Type
REMARK                         _______ _______ _______ _____ _____    ______ ____
ROOT
ATOM      1  C   UNL A   1     -11.205 -21.148  18.128  0.00  0.00    +0.024 A 
ATOM      2  C   UNL A   1     -11.415 -20.363  17.457  0.00  0.00    +0.081 A 
ATOM      3  C   UNL A   1     -12.206 -21.332  19.247  0.00  0.00    +0.076 A 
ATOM      4  C   UNL A   1     -13.393 -20.569  19.245  0.00  0.00    +0.072 A 
ATOM      5  C   UNL A   1     -12.567 -19.466  17.215  0.00  0.00    +0.007 A 
ATOM      6  C   UNL A   1     -13.512 -19.611  18.221  0.00  0.00    +0.013 A 
ATOM      7 CL   UNL A   1     -14.510 -20.703  20.449  0.00  0.00    -0.081 Cl
ENDROOT
BRANCH   2   8
ATOM      8  C   UNL A   1     -10.482 -20.042  16.140  0.00  0.00    +0.388 C 
ATOM      9  O   UNL A   1     -10.099 -20.808  15.399  0.00  0.00    -0.241 OA
ATOM     10  O   UNL A   1      -9.992 -18.810  16.154  0.00  0.00    -0.241 OA
ENDBRANCH   2   8
BRANCH   3  11
ATOM     11  N   UNL A   1     -11.863 -22.240  20.230  0.00  0.00    -0.237 NA
BRANCH  11  12
ATOM     12  C   UNL A   1     -10.839 -21.834  21.101  0.00  0.00    +0.112 C 
BRANCH  12  13
ATOM     13  C   UNL A   1     -10.838 -21.359  22.175  0.00  0.00    +0.023 C 
ATOM     14  C   UNL A   1      -9.695 -21.771  23.171  0.00  0.00    +0.002 C 
ENDBRANCH  12  13
ENDBRANCH  11  12
ENDBRANCH   3  11
TORSDOF 4
ENDMDL
ENDMDL
