REMARK  Name = No_4469-gen_results/8p0m/2024-11-26-14-13-15/
REMARK  1 active torsions:
REMARK  status: ('A' for Active; 'I' for Inactive)
REMARK    1  A    between atoms: C_9  and  C_10
REMARK                            x       y       z     vdW  Elec       q    Type
REMARK                         _______ _______ _______ _____ _____    ______ ____
ROOT
ATOM      1  C   UNL A   1     -28.016  -0.814  28.878  0.00  0.00    -0.005 A 
ATOM      2  C   UNL A   1     -28.469  -0.785  29.829  0.00  0.00    -0.000 A 
ATOM      3  C   UNL A   1     -26.546  -0.876  28.850  0.00  0.00    -0.025 A 
ATOM      4  C   UNL A   1     -25.804  -1.032  30.057  0.00  0.00    -0.022 A 
ATOM      5  C   UNL A   1     -26.537  -1.039  31.217  0.00  0.00    -0.004 A 
ATOM      6  C   UNL A   1     -27.884  -0.953  31.186  0.00  0.00    -0.000 A 
ATOM      7  C   UNL A   1     -24.366  -1.113  30.048  0.00  0.00    +0.048 C 
ATOM      8  C   UNL A   1     -23.692   0.119  29.919  0.00  0.00    -0.040 C 
ATOM      9  C   UNL A   1     -22.394   0.182  29.348  0.00  0.00    -0.034 C 
ATOM     10  C   UNL A   1     -23.837   1.199  30.962  0.00  0.00    +0.048 C 
ATOM     11  C   UNL A   1     -25.068   1.230  31.715  0.00  0.00    -0.018 A 
ATOM     12  C   UNL A   1     -25.360   2.544  32.330  0.00  0.00    -0.004 A 
ATOM     13  C   UNL A   1     -26.491   2.632  33.207  0.00  0.00    -0.000 A 
ATOM     14  C   UNL A   1     -27.169   1.471  33.460  0.00  0.00    -0.000 A 
ATOM     15  C   UNL A   1     -26.738   0.269  33.077  0.00  0.00    -0.000 A 
ATOM     16  C   UNL A   1     -25.655   0.169  32.280  0.00  0.00    -0.004 A 
ATOM     17  C   UNL A   1     -25.771  -0.816  27.581  0.00  0.00    +0.031 C 
ENDROOT
BRANCH   9  18
ATOM     18  C   UNL A   1     -21.768   1.387  29.059  0.00  0.00    +0.025 C 
ATOM     19  C   UNL A   1     -20.919   1.329  27.868  0.00  0.00    +0.005 C 
ENDBRANCH   9  18
TORSDOF 1
