MODEL 4469
MODEL 1
REMARK VINA RESULT:    -6.573      0.000      0.000
REMARK INTER + INTRA:          -7.087
REMARK INTER:                  -6.957
REMARK INTRA:                  -0.130
REMARK UNBOUND:                -0.130
REMARK  Name = No_4469-gen_results/8p0m/2024-11-26-14-13-15/
REMARK  1 active torsions:
REMARK  status: ('A' for Active; 'I' for Inactive)
REMARK    1  A    between atoms: C_9  and  C_10
REMARK                            x       y       z     vdW  Elec       q    Type
REMARK                         _______ _______ _______ _____ _____    ______ ____
ROOT
ATOM      1  C   UNL A   1     -25.148   1.761  32.010  0.00  0.00    -0.005 A 
ATOM      2  C   UNL A   1     -24.660   2.463  31.393  0.00  0.00    -0.000 A 
ATOM      3  C   UNL A   1     -24.809   0.346  31.794  0.00  0.00    -0.025 A 
ATOM      4  C   UNL A   1     -23.770  -0.021  30.890  0.00  0.00    -0.022 A 
ATOM      5  C   UNL A   1     -23.182   1.009  30.200  0.00  0.00    -0.004 A 
ATOM      6  C   UNL A   1     -23.549   2.289  30.420  0.00  0.00    -0.000 A 
ATOM      7  C   UNL A   1     -23.412  -1.400  30.679  0.00  0.00    +0.048 C 
ATOM      8  C   UNL A   1     -24.267  -2.121  29.819  0.00  0.00    -0.040 C 
ATOM      9  C   UNL A   1     -24.403  -3.529  29.942  0.00  0.00    -0.034 C 
ATOM     10  C   UNL A   1     -24.436  -1.722  28.375  0.00  0.00    +0.048 C 
ATOM     11  C   UNL A   1     -24.240  -0.330  28.046  0.00  0.00    -0.018 A 
ATOM     12  C   UNL A   1     -24.886   0.082  26.780  0.00  0.00    -0.004 A 
ATOM     13  C   UNL A   1     -24.633   1.411  26.305  0.00  0.00    -0.000 A 
ATOM     14  C   UNL A   1     -23.753   2.168  27.028  0.00  0.00    -0.000 A 
ATOM     15  C   UNL A   1     -23.013   1.685  28.026  0.00  0.00    -0.000 A 
ATOM     16  C   UNL A   1     -23.217   0.425  28.461  0.00  0.00    -0.004 A 
ATOM     17  C   UNL A   1     -25.497  -0.757  32.519  0.00  0.00    +0.031 C 
ENDROOT
BRANCH   9  18
ATOM     18  C   UNL A   1     -25.350  -4.248  29.225  0.00  0.00    +0.025 C 
ATOM     19  C   UNL A   1     -24.897  -5.588  28.848  0.00  0.00    +0.005 C 
ENDBRANCH   9  18
TORSDOF 1
ENDMDL
ENDMDL
