MODEL 446
MODEL 1
REMARK VINA RESULT:    -5.873      0.000      0.000
REMARK INTER + INTRA:          -8.473
REMARK INTER:                  -7.590
REMARK INTRA:                  -0.883
REMARK UNBOUND:                -0.883
REMARK  Name = No_446-gen_results/8p0m/2024-11-26-14-13-15/
REMARK  5 active torsions:
REMARK  status: ('A' for Active; 'I' for Inactive)
REMARK    1  A    between atoms: C_3  and  C_4
REMARK    2  A    between atoms: C_4  and  C_8
REMARK    3  A    between atoms: C_8  and  C_9
REMARK    4  A    between atoms: C_9  and  C_10
REMARK    5  A    between atoms: C_9  and  C_13
REMARK                            x       y       z     vdW  Elec       q    Type
REMARK                         _______ _______ _______ _____ _____    ______ ____
ROOT
ATOM      1  C   UNL A   1     -23.480  -2.089  28.919  0.00  0.00    +0.027 C 
ENDROOT
BRANCH   1   4
ATOM      2  C   UNL A   1     -24.303  -4.578  28.967  0.00  0.00    -0.004 A 
ATOM      3  C   UNL A   1     -25.159  -5.172  29.119  0.00  0.00    -0.000 A 
ATOM      4  C   UNL A   1     -24.455  -3.132  29.198  0.00  0.00    -0.022 A 
ATOM      5  C   UNL A   1     -26.475  -4.865  29.730  0.00  0.00    -0.000 A 
ATOM      6  C   UNL A   1     -26.694  -3.516  29.985  0.00  0.00    -0.000 A 
ATOM      7  C   UNL A   1     -25.698  -2.590  29.760  0.00  0.00    -0.004 A 
ENDBRANCH   1   4
BRANCH   1   8
ATOM      8  C   UNL A   1     -24.026  -0.809  28.439  0.00  0.00    +0.013 C 
BRANCH   8   9
ATOM      9  C   UNL A   1     -23.342   0.276  28.881  0.00  0.00    +0.044 C 
BRANCH   9  10
ATOM     10  C   UNL A   1     -22.783   1.339  28.219  0.00  0.00    -0.027 C 
ATOM     11  C   UNL A   1     -21.473   1.448  27.780  0.00  0.00    -0.030 C 
ATOM     12  C   UNL A   1     -20.585   0.417  28.094  0.00  0.00    +0.030 C 
ENDBRANCH   9  10
BRANCH   9  13
ATOM     13  C   UNL A   1     -23.399   0.459  30.395  0.00  0.00    -0.022 C 
ATOM     14  C   UNL A   1     -23.808   1.683  30.909  0.00  0.00    -0.005 C 
ENDBRANCH   9  13
ENDBRANCH   8   9
ENDBRANCH   1   8
TORSDOF 5
ENDMDL
ENDMDL
