REMARK  Name = No_447-gen_results/8p0m/2024-11-26-14-13-15/
REMARK  1 active torsions:
REMARK  status: ('A' for Active; 'I' for Inactive)
REMARK    1  A    between atoms: C_2  and  C_4
REMARK                            x       y       z     vdW  Elec       q    Type
REMARK                         _______ _______ _______ _____ _____    ______ ____
ROOT
ATOM      1 CL   UNL A   1     -28.149  -0.820  28.908  0.00  0.00    -0.071 Cl
ATOM      2  C   UNL A   1     -28.532  -0.047  29.773  0.00  0.00    +0.306 C 
ATOM      3  F   UNL A   1     -29.668  -0.100  30.189  0.00  0.00    -0.213 F 
ENDROOT
BRANCH   2   4
ATOM      4  C   UNL A   1     -27.672   0.980  30.331  0.00  0.00    +0.366 C 
ATOM      5  F   UNL A   1     -26.589   1.062  29.749  0.00  0.00    -0.194 F 
ATOM      6  F   UNL A   1     -27.338   0.744  31.639  0.00  0.00    -0.194 F 
ENDBRANCH   2   4
TORSDOF 1
