MODEL 4470
MODEL 1
REMARK VINA RESULT:    -5.403      0.000      0.000
REMARK INTER + INTRA:          -7.356
REMARK INTER:                  -6.983
REMARK INTRA:                  -0.373
REMARK UNBOUND:                -0.373
REMARK  Name = No_4470-gen_results/8p0m/2024-11-26-14-13-15/
REMARK  5 active torsions:
REMARK  status: ('A' for Active; 'I' for Inactive)
REMARK    1  A    between atoms: C_1  and  C_2
REMARK    2  A    between atoms: C_1  and  N_8
REMARK    3  A    between atoms: N_8  and  C_9
REMARK    4  A    between atoms: C_10  and  C_11
REMARK    5  A    between atoms: C_11  and  C_12
REMARK                            x       y       z     vdW  Elec       q    Type
REMARK                         _______ _______ _______ _____ _____    ______ ____
ROOT
ATOM      1  C   UNL A   1     -23.080   0.966  29.224  0.00  0.00    +0.139 C 
ENDROOT
BRANCH   1   2
ATOM      2  C   UNL A   1     -23.201   1.498  28.144  0.00  0.00    -0.001 A 
ATOM      3  C   UNL A   1     -24.354   1.436  27.387  0.00  0.00    -0.003 A 
ATOM      4  C   UNL A   1     -24.307   1.545  25.999  0.00  0.00    -0.000 A 
ATOM      5  C   UNL A   1     -23.101   1.958  25.295  0.00  0.00    -0.000 A 
ATOM      6  C   UNL A   1     -21.949   2.078  26.089  0.00  0.00    -0.000 A 
ATOM      7  C   UNL A   1     -22.023   1.786  27.417  0.00  0.00    -0.003 A 
ENDBRANCH   1   2
BRANCH   1   8
ATOM      8  N   UNL A   1     -22.335  -0.191  29.240  0.00  0.00    -0.232 NA
BRANCH   8   9
ATOM      9  C   UNL A   1     -22.728  -1.234  29.221  0.00  0.00    +0.076 C 
ATOM     10  C   UNL A   1     -23.444  -2.023  28.957  0.00  0.00    -0.004 C 
BRANCH  10  11
ATOM     11  C   UNL A   1     -24.152  -3.223  29.057  0.00  0.00    +0.053 C 
BRANCH  11  12
ATOM     12  C   UNL A   1     -24.515  -4.313  28.994  0.00  0.00    -0.021 C 
ATOM     13  C   UNL A   1     -24.836  -5.494  29.015  0.00  0.00    -0.005 C 
ENDBRANCH  11  12
ENDBRANCH  10  11
ENDBRANCH   8   9
ENDBRANCH   1   8
TORSDOF 5
ENDMDL
ENDMDL
