REMARK  Name = No_4470-gen_results/8p0m/2024-11-26-14-13-15/
REMARK  5 active torsions:
REMARK  status: ('A' for Active; 'I' for Inactive)
REMARK    1  A    between atoms: C_1  and  C_2
REMARK    2  A    between atoms: C_1  and  N_8
REMARK    3  A    between atoms: N_8  and  C_9
REMARK    4  A    between atoms: C_10  and  C_11
REMARK    5  A    between atoms: C_11  and  C_12
REMARK                            x       y       z     vdW  Elec       q    Type
REMARK                         _______ _______ _______ _____ _____    ______ ____
ROOT
ATOM      1  C   UNL A   1     -28.016  -0.814  28.878  0.00  0.00    +0.139 C 
ENDROOT
BRANCH   1   2
ATOM      2  C   UNL A   1     -27.064  -0.119  28.608  0.00  0.00    -0.001 A 
ATOM      3  C   UNL A   1     -27.001   0.691  27.491  0.00  0.00    -0.003 A 
ATOM      4  C   UNL A   1     -25.777   1.021  26.913  0.00  0.00    -0.000 A 
ATOM      5  C   UNL A   1     -24.509   0.736  27.569  0.00  0.00    -0.000 A 
ATOM      6  C   UNL A   1     -24.593  -0.036  28.739  0.00  0.00    -0.000 A 
ATOM      7  C   UNL A   1     -25.811  -0.477  29.158  0.00  0.00    -0.003 A 
ENDBRANCH   1   2
BRANCH   1   8
ATOM      8  N   UNL A   1     -28.657  -0.518  30.059  0.00  0.00    -0.232 NA
BRANCH   8   9
ATOM      9  C   UNL A   1     -28.599   0.441  30.625  0.00  0.00    +0.076 C 
ATOM     10  C   UNL A   1     -28.786   1.106  31.478  0.00  0.00    -0.004 C 
BRANCH  10  11
ATOM     11  C   UNL A   1     -28.985   2.298  32.179  0.00  0.00    +0.053 C 
BRANCH  11  12
ATOM     12  C   UNL A   1     -28.902   3.350  32.636  0.00  0.00    -0.021 C 
ATOM     13  C   UNL A   1     -28.709   4.473  33.084  0.00  0.00    -0.005 C 
ENDBRANCH  11  12
ENDBRANCH  10  11
ENDBRANCH   8   9
ENDBRANCH   1   8
TORSDOF 5
