MODEL 4471
MODEL 1
REMARK VINA RESULT:    -6.793      0.000      0.000
REMARK INTER + INTRA:          -7.213
REMARK INTER:                  -7.587
REMARK INTRA:                   0.375
REMARK UNBOUND:                 0.375
REMARK  Name = No_4471-gen_results/8p0m/2024-11-26-14-13-15/
REMARK  2 active torsions:
REMARK  status: ('A' for Active; 'I' for Inactive)
REMARK    1  A    between atoms: C_2  and  C_7
REMARK    2  A    between atoms: C_4  and  C_15
REMARK                            x       y       z     vdW  Elec       q    Type
REMARK                         _______ _______ _______ _____ _____    ______ ____
ROOT
ATOM      1  C   UNL A   1     -23.517  -0.892  29.423  0.00  0.00    +0.004 A 
ATOM      2  C   UNL A   1     -24.401  -0.850  28.851  0.00  0.00    +0.054 A 
ATOM      3  C   UNL A   1     -22.375  -0.105  28.929  0.00  0.00    +0.004 A 
ATOM      4  C   UNL A   1     -22.526   0.771  27.815  0.00  0.00    +0.071 A 
ATOM      5  C   UNL A   1     -24.830   0.006  27.712  0.00  0.00    +0.004 A 
ATOM      6  C   UNL A   1     -23.795   0.744  27.220  0.00  0.00    +0.004 A 
ENDROOT
BRANCH   2   7
ATOM      7  C   UNL A   1     -25.667  -1.673  29.363  0.00  0.00    +0.249 C 
ATOM      8  O   UNL A   1     -26.580  -1.243  29.837  0.00  0.00    -0.270 OA
ATOM      9  N   UNL A   1     -25.443  -3.045  29.273  0.00  0.00    -0.276 N 
ATOM     10  C   UNL A   1     -26.415  -3.930  29.820  0.00  0.00    +0.094 C 
ATOM     11  C   UNL A   1     -26.240  -5.040  29.651  0.00  0.00    +0.022 C 
ATOM     12  C   UNL A   1     -25.017  -5.600  29.021  0.00  0.00    +0.004 C 
ATOM     13  C   UNL A   1     -24.040  -4.687  28.565  0.00  0.00    +0.022 C 
ATOM     14  C   UNL A   1     -24.256  -3.440  28.630  0.00  0.00    +0.094 C 
ENDBRANCH   2   7
BRANCH   4  15
ATOM     15  C   UNL A   1     -21.462   1.631  27.358  0.00  0.00    +0.419 C 
ATOM     16  F   UNL A   1     -21.316   2.657  28.008  0.00  0.00    -0.166 F 
ATOM     17  F   UNL A   1     -20.243   0.924  27.500  0.00  0.00    -0.166 F 
ATOM     18  F   UNL A   1     -21.489   1.866  25.995  0.00  0.00    -0.166 F 
ENDBRANCH   4  15
TORSDOF 2
ENDMDL
ENDMDL
