REMARK  Name = No_4471-gen_results/8p0m/2024-11-26-14-13-15/
REMARK  2 active torsions:
REMARK  status: ('A' for Active; 'I' for Inactive)
REMARK    1  A    between atoms: C_2  and  C_7
REMARK    2  A    between atoms: C_4  and  C_15
REMARK                            x       y       z     vdW  Elec       q    Type
REMARK                         _______ _______ _______ _____ _____    ______ ____
ROOT
ATOM      1  C   UNL A   1     -28.016  -0.814  28.878  0.00  0.00    +0.004 A 
ATOM      2  C   UNL A   1     -28.469  -0.785  29.829  0.00  0.00    +0.054 A 
ATOM      3  C   UNL A   1     -26.546  -0.876  28.850  0.00  0.00    +0.004 A 
ATOM      4  C   UNL A   1     -25.804  -1.032  30.057  0.00  0.00    +0.071 A 
ATOM      5  C   UNL A   1     -27.944  -0.987  31.207  0.00  0.00    +0.004 A 
ATOM      6  C   UNL A   1     -26.582  -1.039  31.223  0.00  0.00    +0.004 A 
ENDROOT
BRANCH   2   7
ATOM      7  C   UNL A   1     -30.061  -0.737  29.902  0.00  0.00    +0.249 C 
ATOM      8  O   UNL A   1     -30.725  -1.554  30.270  0.00  0.00    -0.270 OA
ATOM      9  N   UNL A   1     -30.556   0.424  29.312  0.00  0.00    -0.276 N 
ATOM     10  C   UNL A   1     -31.965   0.564  29.163  0.00  0.00    +0.094 C 
ATOM     11  C   UNL A   1     -32.334   1.559  28.757  0.00  0.00    +0.022 C 
ATOM     12  C   UNL A   1     -31.438   2.638  28.268  0.00  0.00    +0.004 C 
ATOM     13  C   UNL A   1     -30.045   2.423  28.360  0.00  0.00    +0.022 C 
ATOM     14  C   UNL A   1     -29.599   1.375  28.916  0.00  0.00    +0.094 C 
ENDBRANCH   2   7
BRANCH   4  15
ATOM     15  C   UNL A   1     -24.371  -1.193  30.068  0.00  0.00    +0.419 C 
ATOM     16  F   UNL A   1     -23.938  -1.994  29.251  0.00  0.00    -0.166 F 
ATOM     17  F   UNL A   1     -23.792   0.050  29.712  0.00  0.00    -0.166 F 
ATOM     18  F   UNL A   1     -23.846  -1.391  31.333  0.00  0.00    -0.166 F 
ENDBRANCH   4  15
TORSDOF 2
