REMARK  Name = No_4472-gen_results/8p0m/2024-11-26-14-13-15/
REMARK  4 active torsions:
REMARK  status: ('A' for Active; 'I' for Inactive)
REMARK    1  A    between atoms: C_2  and  C_8
REMARK    2  A    between atoms: N_9  and  C_11
REMARK    3  A    between atoms: C_11  and  C_13
REMARK    4  A    between atoms: C_13  and  C_15
REMARK                            x       y       z     vdW  Elec       q    Type
REMARK                         _______ _______ _______ _____ _____    ______ ____
ROOT
ATOM      1  C   UNL A   1     -29.474  -1.998  30.238  0.00  0.00    +0.269 C 
ATOM      2  N   UNL A   1     -30.523  -1.812  29.991  0.00  0.00    -0.178 NA
ATOM      3  O   UNL A   1     -28.944  -3.097  30.671  0.00  0.00    -0.268 OA
ENDROOT
BRANCH   1   5
ATOM      4  C   UNL A   1     -28.016  -0.814  28.878  0.00  0.00    +0.016 A 
ATOM      5  C   UNL A   1     -28.469  -0.785  29.829  0.00  0.00    +0.056 A 
ATOM      6  C   UNL A   1     -27.087   0.290  28.638  0.00  0.00    +0.058 A 
ATOM      7  C   UNL A   1     -26.832   1.249  29.587  0.00  0.00    +0.011 A 
ATOM      8  C   UNL A   1     -28.391   0.080  31.006  0.00  0.00    +0.005 A 
ATOM      9  C   UNL A   1     -27.494   1.152  30.784  0.00  0.00    +0.001 A 
ATOM     10 CL   UNL A   1     -26.209   0.394  27.165  0.00  0.00    -0.082 Cl
ENDBRANCH   1   5
BRANCH   2  11
ATOM     11  C   UNL A   1     -31.576  -2.709  30.140  0.00  0.00    +0.074 C 
ATOM     12  C   UNL A   1     -32.725  -2.306  30.250  0.00  0.00    +0.015 C 
BRANCH  11  13
ATOM     13  C   UNL A   1     -31.461  -3.851  29.134  0.00  0.00    +0.196 C 
ATOM     14  N   UNL A   1     -30.863  -4.851  29.443  0.00  0.00    -0.121 NA
BRANCH  13  15
ATOM     15  C   UNL A   1     -32.108  -3.767  27.896  0.00  0.00    +0.341 C 
ATOM     16  F   UNL A   1     -32.005  -4.841  27.256  0.00  0.00    -0.196 F 
ATOM     17  F   UNL A   1     -33.329  -3.423  27.916  0.00  0.00    -0.196 F 
ENDBRANCH  13  15
ENDBRANCH  11  13
ENDBRANCH   2  11
TORSDOF 4
