MODEL 4472
MODEL 1
REMARK VINA RESULT:    -6.272      0.000      0.000
REMARK INTER + INTRA:          -8.282
REMARK INTER:                  -7.738
REMARK INTRA:                  -0.543
REMARK UNBOUND:                -0.543
REMARK  Name = No_4472-gen_results/8p0m/2024-11-26-14-13-15/
REMARK  4 active torsions:
REMARK  status: ('A' for Active; 'I' for Inactive)
REMARK    1  A    between atoms: C_2  and  C_8
REMARK    2  A    between atoms: N_9  and  C_11
REMARK    3  A    between atoms: C_11  and  C_13
REMARK    4  A    between atoms: C_13  and  C_15
REMARK                            x       y       z     vdW  Elec       q    Type
REMARK                         _______ _______ _______ _____ _____    ______ ____
ROOT
ATOM      1  C   UNL A   1     -23.143  -0.489  29.462  0.00  0.00    +0.269 C 
ATOM      2  N   UNL A   1     -23.057  -0.036  28.470  0.00  0.00    -0.178 NA
ATOM      3  O   UNL A   1     -22.700  -0.026  30.586  0.00  0.00    -0.268 OA
ENDROOT
BRANCH   1   5
ATOM      4  C   UNL A   1     -23.738  -2.700  29.098  0.00  0.00    +0.016 A 
ATOM      5  C   UNL A   1     -24.103  -1.802  29.511  0.00  0.00    +0.056 A 
ATOM      6  C   UNL A   1     -24.702  -3.799  29.141  0.00  0.00    +0.058 A 
ATOM      7  C   UNL A   1     -25.965  -3.643  29.658  0.00  0.00    +0.011 A 
ATOM      8  C   UNL A   1     -25.360  -1.354  30.110  0.00  0.00    +0.005 A 
ATOM      9  C   UNL A   1     -26.301  -2.410  30.156  0.00  0.00    +0.001 A 
ATOM     10 CL   UNL A   1     -24.316  -5.333  28.472  0.00  0.00    -0.082 Cl
ENDBRANCH   1   5
BRANCH   2  11
ATOM     11  C   UNL A   1     -22.385   1.142  28.158  0.00  0.00    +0.074 C 
ATOM     12  C   UNL A   1     -21.223   1.113  27.779  0.00  0.00    +0.015 C 
BRANCH  11  13
ATOM     13  C   UNL A   1     -23.252   2.046  27.286  0.00  0.00    +0.196 C 
ATOM     14  N   UNL A   1     -24.017   2.815  27.812  0.00  0.00    -0.121 NA
BRANCH  13  15
ATOM     15  C   UNL A   1     -23.104   2.035  25.895  0.00  0.00    +0.341 C 
ATOM     16  F   UNL A   1     -23.936   1.266  25.356  0.00  0.00    -0.196 F 
ATOM     17  F   UNL A   1     -23.153   3.159  25.310  0.00  0.00    -0.196 F 
ENDBRANCH  13  15
ENDBRANCH  11  13
ENDBRANCH   2  11
TORSDOF 4
ENDMDL
ENDMDL
