REMARK  Name = No_4473-gen_results/8p0m/2024-11-26-14-13-15/
REMARK  14 active torsions:
REMARK  status: ('A' for Active; 'I' for Inactive)
REMARK    1  A    between atoms: C_2  and  C_4
REMARK    2  A    between atoms: C_4  and  O_5
REMARK    3  A    between atoms: O_5  and  C_8
REMARK    4  A    between atoms: C_8  and  C_9
REMARK    5  A    between atoms: C_8  and  C_12
REMARK    6  A    between atoms: C_9  and  O_10
REMARK    7  A    between atoms: O_10  and  C_11
REMARK    8  A    between atoms: N_14  and  C_15
REMARK    9  A    between atoms: N_14  and  C_23
REMARK   10  A    between atoms: C_15  and  C_16
REMARK   11  A    between atoms: C_16  and  C_17
REMARK   12  A    between atoms: C_26  and  N_30
REMARK   13  A    between atoms: N_30  and  C_31
REMARK   14  A    between atoms: C_32  and  C_33
REMARK                            x       y       z     vdW  Elec       q    Type
REMARK                         _______ _______ _______ _____ _____    ______ ____
ROOT
ATOM      1  C   UNL A   1     -26.027   3.335  31.160  0.00  0.00    +0.262 C 
ATOM      2  O   UNL A   1     -26.233   4.414  31.265  0.00  0.00    -0.272 OA
ATOM      3  N   UNL A   1     -26.126   2.499  32.381  0.00  0.00    -0.256 N 
ENDROOT
BRANCH   3   4
ATOM      4  C   UNL A   1     -26.282   3.392  33.572  0.00  0.00    +0.054 A 
ATOM      5  C   UNL A   1     -27.520   4.109  33.622  0.00  0.00    +0.016 A 
ATOM      6  C   UNL A   1     -27.542   5.171  33.984  0.00  0.00    +0.018 A 
ATOM      7  C   UNL A   1     -26.488   5.709  34.989  0.00  0.00    +0.071 A 
ATOM      8  C   UNL A   1     -25.277   5.212  34.798  0.00  0.00    +0.018 A 
ATOM      9  C   UNL A   1     -25.185   3.949  34.119  0.00  0.00    +0.016 A 
BRANCH   7  10
ATOM     10  N   UNL A   1     -26.476   7.215  35.108  0.00  0.00    -0.211 NA
BRANCH  10  11
ATOM     11  C   UNL A   1     -26.340   8.033  34.187  0.00  0.00    +0.086 C 
ATOM     12  C   UNL A   1     -26.273   7.758  33.005  0.00  0.00    +0.018 C 
BRANCH  12  13
ATOM     13  C   UNL A   1     -25.951   8.753  31.938  0.00  0.00    -0.003 C 
ATOM     14  C   UNL A   1     -25.860   8.385  30.567  0.00  0.00    -0.026 C 
ATOM     15  C   UNL A   1     -26.069   7.023  30.291  0.00  0.00    +0.031 C 
ENDBRANCH  12  13
ENDBRANCH  10  11
ENDBRANCH   7  10
ENDBRANCH   3   4
BRANCH   1  16
ATOM     16  C   UNL A   1     -26.119   2.437  29.844  0.00  0.00    +0.255 C 
BRANCH  16  17
ATOM     17  C   UNL A   1     -24.825   2.430  29.243  0.00  0.00    +0.307 C 
ATOM     18  O   UNL A   1     -23.684   2.840  30.030  0.00  0.00    -0.186 OA
BRANCH  17  19
ATOM     19  O   UNL A   1     -24.670   2.946  28.051  0.00  0.00    -0.299 OA
BRANCH  19  20
ATOM     20  C   UNL A   1     -23.945   2.254  27.032  0.00  0.00    +0.271 C 
ATOM     21  C   UNL A   1     -24.365   1.081  26.669  0.00  0.00    +0.070 C 
ATOM     22  O   UNL A   1     -23.958   3.178  25.877  0.00  0.00    -0.190 OA
ENDBRANCH  19  20
ENDBRANCH  17  19
ENDBRANCH  16  17
BRANCH  16  23
ATOM     23  O   UNL A   1     -26.642   1.097  30.091  0.00  0.00    -0.287 OA
BRANCH  23  24
ATOM     24  C   UNL A   1     -27.373   0.684  29.531  0.00  0.00    +0.455 C 
ATOM     25  F   UNL A   1     -28.480   0.463  30.362  0.00  0.00    -0.166 F 
ATOM     26  F   UNL A   1     -27.907   1.473  28.554  0.00  0.00    -0.166 F 
BRANCH  24  28
ATOM     27  F   UNL A   1     -28.073  -1.254  28.532  0.00  0.00    -0.163 F 
ATOM     28  C   UNL A   1     -27.061  -0.629  28.872  0.00  0.00    +0.483 C 
ATOM     29  F   UNL A   1     -26.472  -0.547  28.009  0.00  0.00    -0.163 F 
ATOM     30  F   UNL A   1     -26.469  -1.377  29.854  0.00  0.00    -0.163 F 
ENDBRANCH  24  28
ENDBRANCH  23  24
ENDBRANCH  16  23
ENDBRANCH   1  16
BRANCH   3  31
ATOM     31  C   UNL A   1     -25.985   1.123  32.557  0.00  0.00    +0.110 C 
BRANCH  31  32
ATOM     32  C   UNL A   1     -26.978   0.558  33.501  0.00  0.00    +0.136 C 
BRANCH  32  33
ATOM     33  C   UNL A   1     -27.140  -0.784  33.382  0.00  0.00    +0.367 C 
ATOM     34  O   UNL A   1     -26.547  -1.373  32.472  0.00  0.00    -0.246 OA
ATOM     35  O   UNL A   1     -28.045  -1.458  33.993  0.00  0.00    -0.246 OA
ENDBRANCH  32  33
ENDBRANCH  31  32
ENDBRANCH   3  31
TORSDOF 14
