MODEL 4473
MODEL 1
REMARK VINA RESULT:    -6.384      0.000      0.000
REMARK INTER + INTRA:         -14.000
REMARK INTER:                 -11.609
REMARK INTRA:                  -2.391
REMARK UNBOUND:                -2.391
REMARK  Name = No_4473-gen_results/8p0m/2024-11-26-14-13-15/
REMARK  14 active torsions:
REMARK  status: ('A' for Active; 'I' for Inactive)
REMARK    1  A    between atoms: C_2  and  C_4
REMARK    2  A    between atoms: C_4  and  O_5
REMARK    3  A    between atoms: O_5  and  C_8
REMARK    4  A    between atoms: C_8  and  C_9
REMARK    5  A    between atoms: C_8  and  C_12
REMARK    6  A    between atoms: C_9  and  O_10
REMARK    7  A    between atoms: O_10  and  C_11
REMARK    8  A    between atoms: N_14  and  C_15
REMARK    9  A    between atoms: N_14  and  C_23
REMARK   10  A    between atoms: C_15  and  C_16
REMARK   11  A    between atoms: C_16  and  C_17
REMARK   12  A    between atoms: C_26  and  N_30
REMARK   13  A    between atoms: N_30  and  C_31
REMARK   14  A    between atoms: C_32  and  C_33
REMARK                            x       y       z     vdW  Elec       q    Type
REMARK                         _______ _______ _______ _____ _____    ______ ____
ROOT
ATOM      1  C   UNL A   1      -9.279   1.742  34.391  0.00  0.00    +0.262 C 
ATOM      2  O   UNL A   1      -8.600   2.178  33.638  0.00  0.00    -0.272 OA
ATOM      3  N   UNL A   1      -8.749   0.641  35.231  0.00  0.00    -0.256 N 
ENDROOT
BRANCH   3   4
ATOM      4  C   UNL A   1      -7.420   0.213  34.693  0.00  0.00    +0.054 A 
ATOM      5  C   UNL A   1      -7.348  -1.164  34.306  0.00  0.00    +0.016 A 
ATOM      6  C   UNL A   1      -6.418  -1.758  34.507  0.00  0.00    +0.018 A 
ATOM      7  C   UNL A   1      -5.024  -1.080  34.598  0.00  0.00    +0.071 A 
ATOM      8  C   UNL A   1      -5.056   0.113  35.169  0.00  0.00    +0.018 A 
ATOM      9  C   UNL A   1      -6.306   0.820  35.143  0.00  0.00    +0.016 A 
BRANCH   7  10
ATOM     10  N   UNL A   1      -3.955  -1.969  35.188  0.00  0.00    -0.211 NA
BRANCH  10  11
ATOM     11  C   UNL A   1      -2.854  -2.241  34.688  0.00  0.00    +0.086 C 
ATOM     12  C   UNL A   1      -2.604  -2.254  33.499  0.00  0.00    +0.018 C 
BRANCH  12  13
ATOM     13  C   UNL A   1      -1.312  -2.739  32.927  0.00  0.00    -0.003 C 
ATOM     14  C   UNL A   1      -0.693  -2.100  31.817  0.00  0.00    -0.026 C 
ATOM     15  C   UNL A   1      -1.390  -1.003  31.284  0.00  0.00    +0.031 C 
ENDBRANCH  12  13
ENDBRANCH  10  11
ENDBRANCH   7  10
ENDBRANCH   3   4
BRANCH   1  16
ATOM     16  C   UNL A   1     -10.562   2.408  35.065  0.00  0.00    +0.255 C 
BRANCH  16  17
ATOM     17  C   UNL A   1     -10.144   3.642  35.648  0.00  0.00    +0.307 C 
ATOM     18  O   UNL A   1     -10.175   3.783  37.086  0.00  0.00    -0.186 OA
BRANCH  17  19
ATOM     19  O   UNL A   1     -10.581   4.768  35.146  0.00  0.00    -0.299 OA
BRANCH  19  20
ATOM     20  C   UNL A   1      -9.699   5.675  34.481  0.00  0.00    +0.271 C 
ATOM     21  C   UNL A   1      -8.422   5.535  34.666  0.00  0.00    +0.070 C 
ATOM     22  O   UNL A   1     -10.024   5.522  33.046  0.00  0.00    -0.190 OA
ENDBRANCH  19  20
ENDBRANCH  17  19
ENDBRANCH  16  17
BRANCH  16  23
ATOM     23  O   UNL A   1     -11.687   2.562  34.147  0.00  0.00    -0.287 OA
BRANCH  23  24
ATOM     24  C   UNL A   1     -12.541   2.032  34.236  0.00  0.00    +0.455 C 
ATOM     25  F   UNL A   1     -12.351   1.074  35.241  0.00  0.00    -0.166 F 
ATOM     26  F   UNL A   1     -13.630   2.713  34.698  0.00  0.00    -0.166 F 
BRANCH  24  28
ATOM     27  F   UNL A   1     -13.743   1.969  32.288  0.00  0.00    -0.163 F 
ATOM     28  C   UNL A   1     -13.009   1.291  33.017  0.00  0.00    +0.483 C 
ATOM     29  F   UNL A   1     -12.234   0.946  32.401  0.00  0.00    -0.163 F 
ATOM     30  F   UNL A   1     -13.793   0.281  33.506  0.00  0.00    -0.163 F 
ENDBRANCH  24  28
ENDBRANCH  23  24
ENDBRANCH  16  23
ENDBRANCH   1  16
BRANCH   3  31
ATOM     31  C   UNL A   1      -9.331  -0.061  36.287  0.00  0.00    +0.110 C 
BRANCH  31  32
ATOM     32  C   UNL A   1      -8.938   0.467  37.615  0.00  0.00    +0.136 C 
BRANCH  32  33
ATOM     33  C   UNL A   1      -9.933   0.416  38.536  0.00  0.00    +0.367 C 
ATOM     34  O   UNL A   1      -9.691  -0.079  39.642  0.00  0.00    -0.246 OA
ATOM     35  O   UNL A   1     -11.172   0.626  38.273  0.00  0.00    -0.246 OA
ENDBRANCH  32  33
ENDBRANCH  31  32
ENDBRANCH   3  31
TORSDOF 14
ENDMDL
ENDMDL
