MODEL 4474
MODEL 1
REMARK VINA RESULT:    -6.578      0.000      0.000
REMARK INTER + INTRA:         -12.780
REMARK INTER:                  -8.885
REMARK INTRA:                  -3.895
REMARK UNBOUND:                -3.895
REMARK  Name = No_4474-gen_results/8p0m/2024-11-26-14-13-15/
REMARK  6 active torsions:
REMARK  status: ('A' for Active; 'I' for Inactive)
REMARK    1  A    between atoms: C_2  and  C_7
REMARK    2  A    between atoms: C_4  and  C_18
REMARK    3  A    between atoms: C_7  and  C_9
REMARK    4  A    between atoms: C_10  and  C_11
REMARK    5  A    between atoms: C_11  and  C_12
REMARK    6  A    between atoms: C_18  and  C_19
REMARK                            x       y       z     vdW  Elec       q    Type
REMARK                         _______ _______ _______ _____ _____    ______ ____
ROOT
ATOM      1  C   UNL A   1     -10.907   3.027  34.943  0.00  0.00    -0.004 A 
ATOM      2  C   UNL A   1     -11.644   2.070  34.894  0.00  0.00    -0.019 A 
ATOM      3  C   UNL A   1     -11.410   0.898  35.538  0.00  0.00    -0.008 A 
ATOM      4  C   UNL A   1     -10.239   0.783  36.311  0.00  0.00    -0.018 A 
ATOM      5  C   UNL A   1      -9.742   3.013  35.790  0.00  0.00    -0.001 A 
ATOM      6  C   UNL A   1      -9.446   1.850  36.435  0.00  0.00    -0.004 A 
ENDROOT
BRANCH   2   7
ATOM      7  C   UNL A   1     -12.950   2.077  34.110  0.00  0.00    +0.044 C 
ATOM      8  C   UNL A   1     -13.096   1.217  33.016  0.00  0.00    +0.009 C 
BRANCH   7   9
ATOM      9  C   UNL A   1     -14.137   2.703  34.593  0.00  0.00    -0.026 C 
ATOM     10  C   UNL A   1     -14.291   3.290  35.848  0.00  0.00    -0.026 C 
BRANCH  10  11
ATOM     11  C   UNL A   1     -14.157   2.996  36.884  0.00  0.00    +0.052 C 
BRANCH  11  12
ATOM     12  C   UNL A   1     -13.324   3.076  37.839  0.00  0.00    -0.018 A 
ATOM     13  C   UNL A   1     -12.632   4.302  37.933  0.00  0.00    -0.004 A 
ATOM     14  C   UNL A   1     -11.438   4.491  38.766  0.00  0.00    -0.000 A 
ATOM     15  C   UNL A   1     -11.040   3.359  39.568  0.00  0.00    -0.000 A 
ATOM     16  C   UNL A   1     -11.763   2.201  39.489  0.00  0.00    -0.000 A 
ATOM     17  C   UNL A   1     -12.853   2.029  38.669  0.00  0.00    -0.004 A 
ENDBRANCH  11  12
ENDBRANCH  10  11
ENDBRANCH   7   9
ENDBRANCH   2   7
BRANCH   4  18
ATOM     18  C   UNL A   1      -9.893  -0.541  37.015  0.00  0.00    +0.053 C 
BRANCH  18  19
ATOM     19  C   UNL A   1     -10.572  -1.051  38.119  0.00  0.00    -0.018 A 
ATOM     20  C   UNL A   1     -10.095  -0.820  39.385  0.00  0.00    -0.004 A 
ATOM     21  C   UNL A   1     -10.746  -1.529  40.451  0.00  0.00    -0.000 A 
ATOM     22  C   UNL A   1     -11.795  -2.402  40.191  0.00  0.00    -0.000 A 
ATOM     23  C   UNL A   1     -12.237  -2.648  38.899  0.00  0.00    -0.000 A 
ATOM     24  C   UNL A   1     -11.610  -2.047  37.829  0.00  0.00    -0.004 A 
ENDBRANCH  18  19
ENDBRANCH   4  18
TORSDOF 6
ENDMDL
ENDMDL
