MODEL 4475
MODEL 1
REMARK VINA RESULT:    -7.341      0.000      0.000
REMARK INTER + INTRA:          -8.373
REMARK INTER:                  -8.199
REMARK INTRA:                  -0.173
REMARK UNBOUND:                -0.173
REMARK  Name = No_4475-gen_results/8p0m/2024-11-26-14-13-15/
REMARK  2 active torsions:
REMARK  status: ('A' for Active; 'I' for Inactive)
REMARK    1  A    between atoms: C_7  and  C_22
REMARK    2  A    between atoms: CA_16  and  C_19
REMARK                            x       y       z     vdW  Elec       q    Type
REMARK                         _______ _______ _______ _____ _____    ______ ____
ROOT
ATOM      1  N   UNL A   1     -25.287  -2.337  29.039  0.00  0.00    -0.185 NA
ATOM      2  C   UNL A   1     -24.414  -1.494  28.825  0.00  0.00    +0.175 C 
ATOM      3  C   UNL A   1     -24.539  -0.604  27.798  0.00  0.00    +0.012 A 
ATOM      4  C   UNL A   1     -23.537   0.412  27.492  0.00  0.00    +0.018 A 
ATOM      5  C   UNL A   1     -23.594   1.258  26.389  0.00  0.00    +0.135 A 
ATOM      6  C   UNL A   1     -24.761   1.202  25.576  0.00  0.00    +0.040 A 
ATOM      7  C   UNL A   1     -25.722   0.307  25.881  0.00  0.00    +0.045 A 
ATOM      8  C   UNL A   1     -25.654  -0.579  26.927  0.00  0.00    +0.002 A 
ATOM      9  N   UNL A   1     -23.562  -1.121  29.851  0.00  0.00    -0.273 N 
ATOM     10  C   UNL A   1     -22.305  -0.685  29.744  0.00  0.00    +0.062 C 
ATOM     11  C   UNL A   1     -21.767   0.344  28.980  0.00  0.00    -0.002 C 
ATOM     12  C   UNL A   1     -22.243   0.742  28.143  0.00  0.00    +0.092 C 
ATOM     13  C   UNL A   1     -24.096  -1.224  31.205  0.00  0.00    +0.032 C 
ATOM     14  C   UNL A   1     -23.185  -1.223  32.224  0.00  0.00    +0.011 C 
ATOM     15  C   UNL A   1     -25.442  -1.446  31.483  0.00  0.00    +0.070 C 
ATOM     16  CA  UNL A   1     -26.346  -1.775  30.497  0.00  0.00    +0.183 C 
ATOM     17  C   UNL A   1     -21.695   1.875  27.278  0.00  0.00    +0.214 C 
ATOM     18  O   UNL A   1     -22.596   2.135  26.295  0.00  0.00    -0.475 OA
ENDROOT
BRANCH  16  19
ATOM     19  C   UNL A   1     -27.625  -2.210  30.408  0.00  0.00    +0.381 C 
ATOM     20  O   UNL A   1     -28.386  -1.560  29.768  0.00  0.00    -0.244 OA
ATOM     21  OXT UNL A   1     -27.815  -3.313  30.799  0.00  0.00    -0.244 OA
ENDBRANCH  16  19
BRANCH   7  22
ATOM     22  C   UNL A   1     -26.979   0.219  25.006  0.00  0.00    +0.234 C 
ATOM     23  O   UNL A   1     -27.269   0.862  24.139  0.00  0.00    -0.283 OA
ENDBRANCH   7  22
TORSDOF 2
ENDMDL
ENDMDL
