REMARK  Name = No_4476-gen_results/8p0m/2024-11-26-14-13-15/
REMARK  0 active torsions:
REMARK  status: ('A' for Active; 'I' for Inactive)
REMARK                            x       y       z     vdW  Elec       q    Type
REMARK                         _______ _______ _______ _____ _____    ______ ____
ROOT
ATOM      1  C   UNL A   1     -28.016  -0.814  28.878  0.00  0.00    +0.019 A 
ATOM      2  C   UNL A   1     -27.064  -0.119  28.608  0.00  0.00    +0.081 A 
ATOM      3  C   UNL A   1     -26.929   1.171  29.008  0.00  0.00    +0.014 A 
ATOM      4  C   UNL A   1     -25.770   2.034  28.688  0.00  0.00    -0.019 A 
ATOM      5  C   UNL A   1     -24.714   1.443  27.919  0.00  0.00    +0.014 A 
ATOM      6  C   UNL A   1     -23.557   2.167  27.593  0.00  0.00    +0.001 A 
ATOM      7  C   UNL A   1     -29.091  -0.275  29.732  0.00  0.00    +0.002 A 
ATOM      8  C   UNL A   1     -29.050   0.987  30.143  0.00  0.00    +0.000 A 
ATOM      9  C   UNL A   1     -27.950   1.766  29.812  0.00  0.00    +0.001 A 
ATOM     10  C   UNL A   1     -26.125   3.369  27.996  0.00  0.00    +0.031 C 
ATOM     11  C   UNL A   1     -22.432   1.452  27.109  0.00  0.00    +0.000 A 
ATOM     12  C   UNL A   1     -22.277   0.182  27.638  0.00  0.00    +0.002 A 
ATOM     13  C   UNL A   1     -23.326  -0.514  28.299  0.00  0.00    +0.019 A 
ATOM     14  C   UNL A   1     -24.489   0.065  28.412  0.00  0.00    +0.081 A 
ATOM     15  N   UNL A   1     -25.790  -0.715  28.216  0.00  0.00    -0.245 NA
ENDROOT
TORSDOF 0
