REMARK  Name = No_4477-gen_results/8p0m/2024-11-26-14-13-15/
REMARK  0 active torsions:
REMARK  status: ('A' for Active; 'I' for Inactive)
REMARK                            x       y       z     vdW  Elec       q    Type
REMARK                         _______ _______ _______ _____ _____    ______ ____
ROOT
ATOM      1  C   UNL A   1     -28.016  -0.814  28.878  0.00  0.00    +0.138 C 
ATOM      2  C   UNL A   1     -27.064  -0.119  28.608  0.00  0.00    -0.005 A 
ATOM      3  C   UNL A   1     -26.929   1.171  29.008  0.00  0.00    -0.025 A 
ATOM      4  C   UNL A   1     -25.770   2.034  28.688  0.00  0.00    -0.026 A 
ATOM      5  C   UNL A   1     -24.714   1.443  27.919  0.00  0.00    -0.005 A 
ATOM      6  C   UNL A   1     -24.859   0.078  27.584  0.00  0.00    -0.001 A 
ATOM      7  C   UNL A   1     -25.965  -0.661  27.916  0.00  0.00    -0.003 A 
ATOM      8  N   UNL A   1     -29.178  -0.305  28.964  0.00  0.00    -0.233 NA
ATOM      9  C   UNL A   1     -29.743   0.364  28.067  0.00  0.00    +0.062 A 
ATOM     10  C   UNL A   1     -30.751   0.356  27.599  0.00  0.00    +0.016 A 
ATOM     11  C   UNL A   1     -31.281   1.139  26.477  0.00  0.00    +0.001 A 
ATOM     12  C   UNL A   1     -30.381   2.118  25.981  0.00  0.00    -0.000 A 
ATOM     13  C   UNL A   1     -29.111   2.200  26.467  0.00  0.00    -0.003 A 
ATOM     14  C   UNL A   1     -28.723   1.380  27.448  0.00  0.00    -0.004 A 
ATOM     15  C   UNL A   1     -27.429   1.672  28.033  0.00  0.00    +0.045 C 
ATOM     16  C   UNL A   1     -26.732   2.633  26.991  0.00  0.00    +0.009 C 
ATOM     17  C   UNL A   1     -24.825   2.073  30.014  0.00  0.00    +0.031 C 
ENDROOT
TORSDOF 0
