MODEL 4477
MODEL 1
REMARK VINA RESULT:    -7.564      0.000      0.000
REMARK INTER + INTRA:          -7.564
REMARK INTER:                  -7.564
REMARK INTRA:                   0.000
REMARK UNBOUND:                 0.000
REMARK  Name = No_4477-gen_results/8p0m/2024-11-26-14-13-15/
REMARK  0 active torsions:
REMARK  status: ('A' for Active; 'I' for Inactive)
REMARK                            x       y       z     vdW  Elec       q    Type
REMARK                         _______ _______ _______ _____ _____    ______ ____
ROOT
ATOM      1  C   UNL A   1     -22.351  -0.740  30.196  0.00  0.00    +0.138 C 
ATOM      2  C   UNL A   1     -23.409  -1.310  30.070  0.00  0.00    -0.005 A 
ATOM      3  C   UNL A   1     -23.706  -2.137  29.036  0.00  0.00    -0.025 A 
ATOM      4  C   UNL A   1     -24.996  -2.845  28.868  0.00  0.00    -0.026 A 
ATOM      5  C   UNL A   1     -25.981  -2.648  29.891  0.00  0.00    -0.005 A 
ATOM      6  C   UNL A   1     -25.607  -1.838  30.987  0.00  0.00    -0.001 A 
ATOM      7  C   UNL A   1     -24.390  -1.213  31.074  0.00  0.00    -0.003 A 
ATOM      8  N   UNL A   1     -21.715  -0.334  29.172  0.00  0.00    -0.233 NA
ATOM      9  C   UNL A   1     -22.177   0.423  28.286  0.00  0.00    +0.062 A 
ATOM     10  C   UNL A   1     -21.818   1.340  27.772  0.00  0.00    +0.016 A 
ATOM     11  C   UNL A   1     -22.493   2.207  26.799  0.00  0.00    +0.001 A 
ATOM     12  C   UNL A   1     -23.770   1.736  26.396  0.00  0.00    -0.000 A 
ATOM     13  C   UNL A   1     -24.317   0.633  26.980  0.00  0.00    -0.003 A 
ATOM     14  C   UNL A   1     -23.628  -0.035  27.909  0.00  0.00    -0.004 A 
ATOM     15  C   UNL A   1     -24.202  -1.300  28.325  0.00  0.00    +0.045 C 
ATOM     16  C   UNL A   1     -25.697  -1.240  27.821  0.00  0.00    +0.009 C 
ATOM     17  C   UNL A   1     -24.760  -4.384  29.346  0.00  0.00    +0.031 C 
ENDROOT
TORSDOF 0
ENDMDL
ENDMDL
