MODEL 4478
MODEL 1
REMARK VINA RESULT:    -7.843      0.000      0.000
REMARK INTER + INTRA:         -10.592
REMARK INTER:                  -9.677
REMARK INTRA:                  -0.916
REMARK UNBOUND:                -0.916
REMARK  Name = No_4478-gen_results/8p0m/2024-11-26-14-13-15/
REMARK  4 active torsions:
REMARK  status: ('A' for Active; 'I' for Inactive)
REMARK    1  A    between atoms: C_2  and  N_7
REMARK    2  A    between atoms: C_5  and  C_19
REMARK    3  A    between atoms: N_7  and  C_8
REMARK    4  A    between atoms: N_7  and  C_14
REMARK                            x       y       z     vdW  Elec       q    Type
REMARK                         _______ _______ _______ _____ _____    ______ ____
ROOT
ATOM      1  N   UNL A   1     -24.162  -1.160  29.795  0.00  0.00    -0.269 N 
ENDROOT
BRANCH   1   3
ATOM      2  C   UNL A   1     -23.676   0.401  28.345  0.00  0.00    +0.022 A 
ATOM      3  C   UNL A   1     -23.171  -0.442  29.048  0.00  0.00    +0.056 A 
ATOM      4  C   UNL A   1     -21.904  -0.702  29.201  0.00  0.00    +0.015 A 
ATOM      5  C   UNL A   1     -20.965   0.074  28.455  0.00  0.00    +0.002 A 
ATOM      6  C   UNL A   1     -22.782   1.305  27.645  0.00  0.00    +0.081 A 
ATOM      7  C   UNL A   1     -21.468   1.097  27.732  0.00  0.00    +0.007 A 
BRANCH   6   8
ATOM      8  C   UNL A   1     -23.323   2.432  26.795  0.00  0.00    +0.388 C 
ATOM      9  O   UNL A   1     -22.997   2.403  25.620  0.00  0.00    -0.241 OA
ATOM     10  O   UNL A   1     -23.976   3.313  27.345  0.00  0.00    -0.241 OA
ENDBRANCH   6   8
ENDBRANCH   1   3
BRANCH   1  11
ATOM     11  C   UNL A   1     -24.533  -0.794  31.142  0.00  0.00    +0.055 A 
ATOM     12  C   UNL A   1     -25.584  -0.357  31.614  0.00  0.00    +0.015 A 
ATOM     13  C   UNL A   1     -25.786  -0.182  32.976  0.00  0.00    +0.001 A 
ATOM     14  C   UNL A   1     -23.625  -1.439  32.103  0.00  0.00    +0.015 A 
ATOM     15  C   UNL A   1     -23.695  -1.155  33.409  0.00  0.00    +0.001 A 
ATOM     16  C   UNL A   1     -24.879  -0.630  33.872  0.00  0.00    +0.000 A 
ENDBRANCH   1  11
BRANCH   1  17
ATOM     17  C   UNL A   1     -24.330  -2.571  29.516  0.00  0.00    +0.037 C 
ATOM     18  C   UNL A   1     -23.795  -3.283  28.800  0.00  0.00    +0.011 C 
ATOM     19  C   UNL A   1     -24.179  -4.629  28.581  0.00  0.00    -0.003 C 
ATOM     20  C   UNL A   1     -25.450  -4.825  29.173  0.00  0.00    -0.020 C 
ATOM     21  C   UNL A   1     -25.525  -3.429  29.768  0.00  0.00    +0.068 C 
ENDBRANCH   1  17
TORSDOF 4
ENDMDL
ENDMDL
