REMARK  Name = No_4478-gen_results/8p0m/2024-11-26-14-13-15/
REMARK  4 active torsions:
REMARK  status: ('A' for Active; 'I' for Inactive)
REMARK    1  A    between atoms: C_2  and  N_7
REMARK    2  A    between atoms: C_5  and  C_19
REMARK    3  A    between atoms: N_7  and  C_8
REMARK    4  A    between atoms: N_7  and  C_14
REMARK                            x       y       z     vdW  Elec       q    Type
REMARK                         _______ _______ _______ _____ _____    ______ ____
ROOT
ATOM      1  N   UNL A   1     -26.058  -0.863  27.908  0.00  0.00    -0.269 N 
ENDROOT
BRANCH   1   3
ATOM      2  C   UNL A   1     -28.016  -0.814  28.878  0.00  0.00    +0.022 A 
ATOM      3  C   UNL A   1     -27.064  -0.119  28.608  0.00  0.00    +0.056 A 
ATOM      4  C   UNL A   1     -26.876   1.133  28.913  0.00  0.00    +0.015 A 
ATOM      5  C   UNL A   1     -27.901   1.807  29.644  0.00  0.00    +0.002 A 
ATOM      6  C   UNL A   1     -29.046  -0.232  29.718  0.00  0.00    +0.081 A 
ATOM      7  C   UNL A   1     -28.940   1.052  30.060  0.00  0.00    +0.007 A 
BRANCH   6   8
ATOM      8  C   UNL A   1     -30.240  -1.046  30.162  0.00  0.00    +0.388 C 
ATOM      9  O   UNL A   1     -30.918  -0.540  31.041  0.00  0.00    -0.241 OA
ATOM     10  O   UNL A   1     -30.400  -2.159  29.673  0.00  0.00    -0.241 OA
ENDBRANCH   6   8
ENDBRANCH   1   3
BRANCH   1  11
ATOM     11  C   UNL A   1     -24.948  -1.492  28.584  0.00  0.00    +0.055 A 
ATOM     12  C   UNL A   1     -23.845  -1.062  28.926  0.00  0.00    +0.015 A 
ATOM     13  C   UNL A   1     -22.949  -1.799  29.689  0.00  0.00    +0.001 A 
ATOM     14  C   UNL A   1     -25.413  -2.690  29.301  0.00  0.00    +0.015 A 
ATOM     15  C   UNL A   1     -24.542  -3.508  29.904  0.00  0.00    +0.001 A 
ATOM     16  C   UNL A   1     -23.311  -2.985  30.225  0.00  0.00    +0.000 A 
ENDBRANCH   1  11
BRANCH   1  17
ATOM     17  C   UNL A   1     -25.756  -0.477  26.545  0.00  0.00    +0.037 C 
ATOM     18  C   UNL A   1     -25.693   0.541  26.030  0.00  0.00    +0.011 C 
ATOM     19  C   UNL A   1     -25.491   0.718  24.639  0.00  0.00    -0.003 C 
ATOM     20  C   UNL A   1     -25.656  -0.538  24.008  0.00  0.00    -0.020 C 
ATOM     21  C   UNL A   1     -25.850  -1.304  25.306  0.00  0.00    +0.068 C 
ENDBRANCH   1  17
TORSDOF 4
