MODEL 4479
MODEL 1
REMARK VINA RESULT:    -4.368      0.000      0.000
REMARK INTER + INTRA:          -4.368
REMARK INTER:                  -4.368
REMARK INTRA:                   0.000
REMARK UNBOUND:                 0.000
REMARK  Name = No_4479-gen_results/8p0m/2024-11-26-14-13-15/
REMARK  0 active torsions:
REMARK  status: ('A' for Active; 'I' for Inactive)
REMARK                            x       y       z     vdW  Elec       q    Type
REMARK                         _______ _______ _______ _____ _____    ______ ____
ROOT
ATOM      1  C   UNL A   1     -24.882  -5.461  28.975  0.00  0.00    +0.000 A 
ATOM      2  C   UNL A   1     -24.152  -4.786  28.626  0.00  0.00    +0.000 A 
ATOM      3  C   UNL A   1     -26.063  -4.801  29.545  0.00  0.00    +0.000 A 
ATOM      4  C   UNL A   1     -26.114  -3.487  29.764  0.00  0.00    +0.000 A 
ATOM      5  C   UNL A   1     -23.978  -3.361  28.764  0.00  0.00    +0.000 A 
ATOM      6  C   UNL A   1     -25.075  -2.769  29.319  0.00  0.00    +0.000 A 
ENDROOT
TORSDOF 0
ENDMDL
ENDMDL
