MODEL 447
MODEL 1
REMARK VINA RESULT:    -3.964      0.000      0.000
REMARK INTER + INTRA:          -4.195
REMARK INTER:                  -4.195
REMARK INTRA:                   0.000
REMARK UNBOUND:                 0.000
REMARK  Name = No_447-gen_results/8p0m/2024-11-26-14-13-15/
REMARK  1 active torsions:
REMARK  status: ('A' for Active; 'I' for Inactive)
REMARK    1  A    between atoms: C_2  and  C_4
REMARK                            x       y       z     vdW  Elec       q    Type
REMARK                         _______ _______ _______ _____ _____    ______ ____
ROOT
ATOM      1 CL   UNL A   1      -9.874  -9.624  18.751  0.00  0.00    -0.071 Cl
ATOM      2  C   UNL A   1      -9.349  -9.315  19.810  0.00  0.00    +0.306 C 
ATOM      3  F   UNL A   1     -10.025  -9.002  20.765  0.00  0.00    -0.213 F 
ENDROOT
BRANCH   2   4
ATOM      4  C   UNL A   1      -7.909  -9.281  19.980  0.00  0.00    +0.366 C 
ATOM      5  F   UNL A   1      -7.541  -9.819  21.026  0.00  0.00    -0.194 F 
ATOM      6  F   UNL A   1      -7.410  -8.007  20.060  0.00  0.00    -0.194 F 
ENDBRANCH   2   4
TORSDOF 1
ENDMDL
ENDMDL
