REMARK  Name = No_448-gen_results/8p0m/2024-11-26-14-13-15/
REMARK  6 active torsions:
REMARK  status: ('A' for Active; 'I' for Inactive)
REMARK    1  A    between atoms: C_2  and  O_7
REMARK    2  A    between atoms: C_4  and  C_15
REMARK    3  A    between atoms: C_5  and  C_21
REMARK    4  A    between atoms: O_7  and  C_8
REMARK    5  A    between atoms: C_12  and  C_14
REMARK    6  A    between atoms: C_16  and  C_24
REMARK                            x       y       z     vdW  Elec       q    Type
REMARK                         _______ _______ _______ _____ _____    ______ ____
ROOT
ATOM      1  C   UNL A   1     -28.016  -0.814  28.878  0.00  0.00    +0.044 A 
ATOM      2  C   UNL A   1     -27.064  -0.119  28.608  0.00  0.00    +0.145 A 
ATOM      3  C   UNL A   1     -26.929   1.171  29.008  0.00  0.00    +0.037 A 
ATOM      4  C   UNL A   1     -27.956   1.741  29.784  0.00  0.00    +0.003 A 
ATOM      5  C   UNL A   1     -29.057  -0.327  29.747  0.00  0.00    +0.083 A 
ATOM      6  C   UNL A   1     -28.983   0.972  30.152  0.00  0.00    +0.007 A 
ENDROOT
BRANCH   4   7
ATOM      7  C   UNL A   1     -27.796   3.183  30.211  0.00  0.00    +0.004 A 
ATOM      8  C   UNL A   1     -27.684   4.181  29.782  0.00  0.00    +0.071 A 
ATOM      9  C   UNL A   1     -27.395   5.480  30.361  0.00  0.00    +0.004 A 
ATOM     10  C   UNL A   1     -27.317   5.498  31.744  0.00  0.00    -0.000 A 
ATOM     11  C   UNL A   1     -27.395   4.307  32.456  0.00  0.00    -0.000 A 
ATOM     12  C   UNL A   1     -27.558   3.091  31.822  0.00  0.00    -0.000 A 
BRANCH   8  13
ATOM     13  C   UNL A   1     -27.779   4.340  28.235  0.00  0.00    +0.419 C 
ATOM     14  F   UNL A   1     -26.995   5.143  27.689  0.00  0.00    -0.166 F 
ATOM     15  F   UNL A   1     -29.118   4.691  27.979  0.00  0.00    -0.166 F 
ATOM     16  F   UNL A   1     -27.548   3.176  27.529  0.00  0.00    -0.166 F 
ENDBRANCH   8  13
ENDBRANCH   4   7
BRANCH   5  17
ATOM     17  C   UNL A   1     -30.210  -1.153  30.057  0.00  0.00    +0.388 C 
ATOM     18  O   UNL A   1     -30.994  -0.727  31.098  0.00  0.00    -0.241 OA
ATOM     19  O   UNL A   1     -30.453  -2.183  29.509  0.00  0.00    -0.241 OA
ENDBRANCH   5  17
BRANCH   2  20
ATOM     20  O   UNL A   1     -26.045  -0.768  27.942  0.00  0.00    -0.454 OA
BRANCH  20  21
ATOM     21  C   UNL A   1     -24.942  -0.040  27.456  0.00  0.00    +0.145 A 
ATOM     22  C   UNL A   1     -23.765  -0.075  27.950  0.00  0.00    +0.042 A 
ATOM     23  C   UNL A   1     -25.218   0.810  26.361  0.00  0.00    +0.037 A 
ATOM     24  C   UNL A   1     -24.235   1.535  25.811  0.00  0.00    +0.003 A 
ATOM     25  C   UNL A   1     -22.676   0.811  27.535  0.00  0.00    +0.062 A 
ATOM     26  C   UNL A   1     -22.957   1.669  26.413  0.00  0.00    +0.005 A 
BRANCH  25  27
ATOM     27  C   UNL A   1     -21.388   0.884  28.176  0.00  0.00    +0.297 C 
ATOM     28  N   UNL A   1     -21.000  -0.027  29.048  0.00  0.00    -0.102 NA
ATOM     29  O   UNL A   1     -20.508   1.734  27.726  0.00  0.00    -0.264 OA
ENDBRANCH  25  27
ENDBRANCH  20  21
ENDBRANCH   2  20
TORSDOF 6
