REMARK  Name = No_4480-gen_results/8p0m/2024-11-26-14-13-15/
REMARK  6 active torsions:
REMARK  status: ('A' for Active; 'I' for Inactive)
REMARK    1  A    between atoms: C_2  and  C_3
REMARK    2  A    between atoms: N_4  and  C_10
REMARK    3  A    between atoms: N_4  and  C_11
REMARK    4  A    between atoms: C_9  and  C_20
REMARK    5  A    between atoms: C_15  and  C_17
REMARK    6  A    between atoms: C_26  and  C_27
REMARK                            x       y       z     vdW  Elec       q    Type
REMARK                         _______ _______ _______ _____ _____    ______ ____
ROOT
ATOM      1  O   UNL A   1     -28.123  -1.335  28.487  0.00  0.00    -0.269 OA
ATOM      2  C   UNL A   1     -27.481  -0.404  28.709  0.00  0.00    +0.257 C 
ATOM      3  N   UNL A   1     -27.666   0.447  29.899  0.00  0.00    -0.233 N 
ENDROOT
BRANCH   2   4
ATOM      4  C   UNL A   1     -26.380  -0.087  27.939  0.00  0.00    +0.054 A 
ATOM      5  C   UNL A   1     -25.177  -0.439  28.395  0.00  0.00    +0.004 A 
ATOM      6  C   UNL A   1     -23.928  -0.247  27.668  0.00  0.00    +0.000 A 
ATOM      7  C   UNL A   1     -24.012   0.768  26.685  0.00  0.00    +0.000 A 
ATOM      8  C   UNL A   1     -25.244   1.234  26.244  0.00  0.00    +0.000 A 
ATOM      9  C   UNL A   1     -26.395   0.871  26.869  0.00  0.00    +0.004 A 
BRANCH   9  10
ATOM     10  C   UNL A   1     -27.651   1.381  26.326  0.00  0.00    +0.000 A 
ATOM     11  C   UNL A   1     -28.238   0.680  25.243  0.00  0.00    +0.000 A 
ATOM     12  C   UNL A   1     -29.505   0.932  24.828  0.00  0.00    +0.000 A 
ATOM     13  C   UNL A   1     -30.303   0.958  25.491  0.00  0.00    +0.000 A 
ATOM     14  C   UNL A   1     -30.139   1.621  26.856  0.00  0.00    +0.000 A 
ATOM     15  C   UNL A   1     -28.764   1.678  27.312  0.00  0.00    +0.000 A 
ENDBRANCH   9  10
ENDBRANCH   2   4
BRANCH   3  16
ATOM     16  C   UNL A   1     -26.857   1.524  30.207  0.00  0.00    +0.059 A 
ATOM     17  C   UNL A   1     -26.337   1.649  31.116  0.00  0.00    +0.015 A 
ATOM     18  C   UNL A   1     -25.395   2.809  31.326  0.00  0.00    +0.002 A 
ATOM     19  C   UNL A   1     -25.133   3.630  30.242  0.00  0.00    +0.007 A 
ATOM     20  C   UNL A   1     -25.778   3.362  29.039  0.00  0.00    +0.081 A 
ATOM     21  C   UNL A   1     -26.868   2.484  29.137  0.00  0.00    +0.022 A 
BRANCH  20  22
ATOM     22  C   UNL A   1     -25.569   4.418  28.003  0.00  0.00    +0.388 C 
ATOM     23  O   UNL A   1     -24.663   4.485  27.445  0.00  0.00    -0.241 OA
ATOM     24  O   UNL A   1     -26.655   5.129  27.679  0.00  0.00    -0.241 OA
ENDBRANCH  20  22
ENDBRANCH   3  16
BRANCH   3  25
ATOM     25  C   UNL A   1     -28.766   0.119  30.769  0.00  0.00    +0.069 C 
ATOM     26  C   UNL A   1     -28.570  -0.507  31.750  0.00  0.00    +0.011 C 
BRANCH  26  27
ATOM     27  C   UNL A   1     -27.560  -0.944  32.252  0.00  0.00    +0.137 C 
ATOM     28  N   UNL A   1     -26.348  -0.787  31.649  0.00  0.00    -0.126 NA
ENDBRANCH  26  27
ENDBRANCH   3  25
TORSDOF 6
