REMARK  Name = No_4481-gen_results/8p0m/2024-11-26-14-13-15/
REMARK  2 active torsions:
REMARK  status: ('A' for Active; 'I' for Inactive)
REMARK    1  A    between atoms: C_1  and  C_2
REMARK    2  A    between atoms: C_5  and  C_6
REMARK                            x       y       z     vdW  Elec       q    Type
REMARK                         _______ _______ _______ _____ _____    ______ ____
ROOT
ATOM      1  C   UNL A   1     -28.469  -0.785  29.829  0.00  0.00    +0.045 C 
ATOM      2  C   UNL A   1     -28.371   0.072  31.022  0.00  0.00    -0.017 C 
ENDROOT
BRANCH   1   3
ATOM      3  C   UNL A   1     -28.016  -0.814  28.878  0.00  0.00    -0.064 C 
ATOM      4  C   UNL A   1     -27.087   0.290  28.638  0.00  0.00    -0.085 C 
ATOM      5  C   UNL A   1     -26.269   0.398  27.423  0.00  0.00    +0.090 C 
ENDBRANCH   1   3
BRANCH   2   6
ATOM      6  C   UNL A   1     -27.473   1.139  30.803  0.00  0.00    +0.027 C 
ATOM      7  C   UNL A   1     -26.784   1.218  29.635  0.00  0.00    +0.005 C 
ENDBRANCH   2   6
TORSDOF 2
