MODEL 4481
MODEL 1
REMARK VINA RESULT:    -3.948      0.000      0.000
REMARK INTER + INTRA:          -4.597
REMARK INTER:                  -4.410
REMARK INTRA:                  -0.187
REMARK UNBOUND:                -0.187
REMARK  Name = No_4481-gen_results/8p0m/2024-11-26-14-13-15/
REMARK  2 active torsions:
REMARK  status: ('A' for Active; 'I' for Inactive)
REMARK    1  A    between atoms: C_1  and  C_2
REMARK    2  A    between atoms: C_5  and  C_6
REMARK                            x       y       z     vdW  Elec       q    Type
REMARK                         _______ _______ _______ _____ _____    ______ ____
ROOT
ATOM      1  C   UNL A   1     -23.816  -2.328  29.048  0.00  0.00    +0.045 C 
ATOM      2  C   UNL A   1     -23.267  -1.242  29.876  0.00  0.00    -0.017 C 
ENDROOT
BRANCH   1   3
ATOM      3  C   UNL A   1     -24.536  -3.087  29.175  0.00  0.00    -0.064 C 
ATOM      4  C   UNL A   1     -24.082  -4.404  28.728  0.00  0.00    -0.085 C 
ATOM      5  C   UNL A   1     -24.879  -5.626  28.900  0.00  0.00    +0.090 C 
ENDBRANCH   1   3
BRANCH   2   6
ATOM      6  C   UNL A   1     -23.824  -1.266  31.173  0.00  0.00    +0.027 C 
ATOM      7  C   UNL A   1     -23.023  -1.121  32.260  0.00  0.00    +0.005 C 
ENDBRANCH   2   6
TORSDOF 2
ENDMDL
ENDMDL
