MODEL 4482
MODEL 1
REMARK VINA RESULT:    -6.280      0.000      0.000
REMARK INTER + INTRA:          -6.770
REMARK INTER:                  -6.647
REMARK INTRA:                  -0.123
REMARK UNBOUND:                -0.123
REMARK  Name = No_4482-gen_results/8p0m/2024-11-26-14-13-15/
REMARK  1 active torsions:
REMARK  status: ('A' for Active; 'I' for Inactive)
REMARK    1  A    between atoms: C_12  and  C_15
REMARK                            x       y       z     vdW  Elec       q    Type
REMARK                         _______ _______ _______ _____ _____    ______ ____
ROOT
ATOM      1  C   UNL A   1     -21.573   0.948  28.046  0.00  0.00    +0.011 C 
ATOM      2  C   UNL A   1     -22.168   0.140  28.369  0.00  0.00    +0.044 C 
ATOM      3  C   UNL A   1     -22.217   1.865  27.031  0.00  0.00    +0.067 C 
ATOM      4  C   UNL A   1     -23.478   2.366  27.314  0.00  0.00    +0.184 C 
ATOM      5  C   UNL A   1     -23.563   0.392  29.045  0.00  0.00    +0.171 C 
ATOM      6  C   UNL A   1     -24.347   1.295  28.123  0.00  0.00    +0.245 C 
ATOM      7  O   UNL A   1     -23.443   1.068  30.269  0.00  0.00    -0.456 OA
ATOM      8  O   UNL A   1     -24.901   0.524  27.037  0.00  0.00    -0.211 OA
ATOM      9  O   UNL A   1     -23.881   3.585  27.183  0.00  0.00    -0.293 OA
ATOM     10  C   UNL A   1     -24.536  -0.752  29.275  0.00  0.00    +0.055 C 
ATOM     11  C   UNL A   1     -24.189   0.774  31.345  0.00  0.00    +0.318 C 
ATOM     12  C   UNL A   1     -23.875  -1.830  29.866  0.00  0.00    +0.115 C 
ATOM     13  C   UNL A   1     -24.111  -1.885  31.316  0.00  0.00    +0.086 C 
ATOM     14  C   UNL A   1     -24.351  -0.293  31.973  0.00  0.00    +0.236 C 
ATOM     15  O   UNL A   1     -24.592  -0.405  33.264  0.00  0.00    -0.285 OA
ATOM     16  F   UNL A   1     -25.409   1.373  31.003  0.00  0.00    -0.160 F 
ENDROOT
BRANCH  12  17
ATOM     17  C   UNL A   1     -24.259  -3.124  29.202  0.00  0.00    +0.365 C 
ATOM     18  O   UNL A   1     -23.524  -3.706  28.639  0.00  0.00    -0.246 OA
ATOM     19  O   UNL A   1     -25.407  -3.663  29.713  0.00  0.00    -0.246 OA
ENDBRANCH  12  17
TORSDOF 1
ENDMDL
ENDMDL
