REMARK  Name = No_4482-gen_results/8p0m/2024-11-26-14-13-15/
REMARK  1 active torsions:
REMARK  status: ('A' for Active; 'I' for Inactive)
REMARK    1  A    between atoms: C_12  and  C_15
REMARK                            x       y       z     vdW  Elec       q    Type
REMARK                         _______ _______ _______ _____ _____    ______ ____
ROOT
ATOM      1  C   UNL A   1     -28.016  -0.814  28.878  0.00  0.00    +0.011 C 
ATOM      2  C   UNL A   1     -28.469  -0.785  29.829  0.00  0.00    +0.044 C 
ATOM      3  C   UNL A   1     -26.504  -0.778  28.877  0.00  0.00    +0.067 C 
ATOM      4  C   UNL A   1     -25.831  -1.681  29.685  0.00  0.00    +0.184 C 
ATOM      5  C   UNL A   1     -28.149  -1.885  30.903  0.00  0.00    +0.171 C 
ATOM      6  C   UNL A   1     -26.646  -1.956  31.033  0.00  0.00    +0.245 C 
ATOM      7  O   UNL A   1     -28.582  -3.158  30.502  0.00  0.00    -0.456 OA
ATOM      8  O   UNL A   1     -26.174  -0.871  31.858  0.00  0.00    -0.211 OA
ATOM      9  O   UNL A   1     -24.815  -2.409  29.364  0.00  0.00    -0.293 OA
ATOM     10  C   UNL A   1     -28.586  -1.714  32.348  0.00  0.00    +0.055 C 
ATOM     11  C   UNL A   1     -29.144  -4.040  31.343  0.00  0.00    +0.318 C 
ATOM     12  C   UNL A   1     -29.927  -1.332  32.400  0.00  0.00    +0.115 C 
ATOM     13  C   UNL A   1     -30.807  -2.470  32.702  0.00  0.00    +0.086 C 
ATOM     14  C   UNL A   1     -30.145  -3.955  32.084  0.00  0.00    +0.236 C 
ATOM     15  O   UNL A   1     -30.954  -4.942  32.412  0.00  0.00    -0.285 OA
ATOM     16  F   UNL A   1     -28.019  -4.514  32.032  0.00  0.00    -0.160 F 
ENDROOT
BRANCH  12  17
ATOM     17  C   UNL A   1     -30.129  -0.212  33.384  0.00  0.00    +0.365 C 
ATOM     18  O   UNL A   1     -30.330   0.807  33.041  0.00  0.00    -0.246 OA
ATOM     19  O   UNL A   1     -30.449  -0.657  34.636  0.00  0.00    -0.246 OA
ENDBRANCH  12  17
TORSDOF 1
