MODEL 4483
MODEL 1
REMARK VINA RESULT:    -4.261      0.000      0.000
REMARK INTER + INTRA:          -4.261
REMARK INTER:                  -4.261
REMARK INTRA:                   0.000
REMARK UNBOUND:                 0.000
REMARK  Name = No_4483-gen_results/8p0m/2024-11-26-14-13-15/
REMARK  0 active torsions:
REMARK  status: ('A' for Active; 'I' for Inactive)
REMARK                            x       y       z     vdW  Elec       q    Type
REMARK                         _______ _______ _______ _____ _____    ______ ____
ROOT
ATOM      1  C   UNL A   1     -26.044  -4.879  29.635  0.00  0.00    +0.000 A 
ATOM      2  C   UNL A   1     -26.166  -3.676  29.669  0.00  0.00    +0.000 A 
ATOM      3  C   UNL A   1     -25.195  -2.796  29.232  0.00  0.00    +0.000 A 
ATOM      4  C   UNL A   1     -24.004  -3.341  28.675  0.00  0.00    +0.000 A 
ATOM      5  C   UNL A   1     -23.987  -4.683  28.502  0.00  0.00    +0.000 A 
ATOM      6  C   UNL A   1     -24.982  -5.445  28.915  0.00  0.00    +0.000 A 
ENDROOT
TORSDOF 0
ENDMDL
ENDMDL
