REMARK  Name = No_4484-gen_results/8p0m/2024-11-26-14-13-15/
REMARK  3 active torsions:
REMARK  status: ('A' for Active; 'I' for Inactive)
REMARK    1  A    between atoms: C_2  and  C_8
REMARK    2  A    between atoms: C_8  and  C_9
REMARK    3  A    between atoms: C_8  and  C_20
REMARK                            x       y       z     vdW  Elec       q    Type
REMARK                         _______ _______ _______ _____ _____    ______ ____
ROOT
ATOM      1  C   UNL A   1     -25.727  -0.194  29.407  0.00  0.00    +0.048 C 
ENDROOT
BRANCH   1   2
ATOM      2  C   UNL A   1     -25.215   1.035  30.001  0.00  0.00    +0.034 C 
ATOM      3  C   UNL A   1     -25.462   1.343  30.991  0.00  0.00    -0.025 C 
ATOM      4  C   UNL A   1     -25.820   2.226  31.557  0.00  0.00    -0.005 C 
ATOM      5  C   UNL A   1     -26.231   3.451  30.798  0.00  0.00    -0.001 C 
ATOM      6  C   UNL A   1     -26.833   4.558  31.317  0.00  0.00    -0.000 C 
ATOM      7  C   UNL A   1     -24.535   1.903  28.966  0.00  0.00    +0.027 C 
ATOM      8  C   UNL A   1     -25.046   3.166  28.595  0.00  0.00    -0.044 C 
ATOM      9  C   UNL A   1     -25.715   3.815  29.511  0.00  0.00    -0.008 C 
ATOM     10  C   UNL A   1     -27.185   5.485  30.508  0.00  0.00    -0.000 C 
ATOM     11  C   UNL A   1     -26.340   5.140  29.187  0.00  0.00    -0.001 C 
ATOM     12  C   UNL A   1     -24.587   3.731  27.353  0.00  0.00    +0.026 C 
ENDBRANCH   1   2
BRANCH   1  14
ATOM     13  C   UNL A   1     -28.016  -0.814  28.878  0.00  0.00    -0.002 A 
ATOM     14  C   UNL A   1     -27.064  -0.119  28.608  0.00  0.00    -0.018 A 
ATOM     15  C   UNL A   1     -27.001   0.691  27.491  0.00  0.00    -0.002 A 
ATOM     16  C   UNL A   1     -28.137   0.736  26.635  0.00  0.00    +0.029 A 
ATOM     17  C   UNL A   1     -29.236   0.076  27.069  0.00  0.00    +0.140 A 
ATOM     18  C   UNL A   1     -29.218  -0.643  28.175  0.00  0.00    +0.029 A 
ATOM     19  F   UNL A   1     -30.322   0.145  26.309  0.00  0.00    -0.204 F 
ENDBRANCH   1  14
BRANCH   1  20
ATOM     20  C   UNL A   1     -25.024  -1.411  29.409  0.00  0.00    -0.026 C 
ATOM     21  C   UNL A   1     -25.453  -2.565  29.219  0.00  0.00    -0.030 C 
ATOM     22  C   UNL A   1     -24.679  -3.772  29.237  0.00  0.00    +0.030 C 
ENDBRANCH   1  20
TORSDOF 3
