MODEL 4484
MODEL 1
REMARK VINA RESULT:    -8.314      0.000      0.000
REMARK INTER + INTRA:         -10.962
REMARK INTER:                  -9.772
REMARK INTRA:                  -1.190
REMARK UNBOUND:                -1.190
REMARK  Name = No_4484-gen_results/8p0m/2024-11-26-14-13-15/
REMARK  3 active torsions:
REMARK  status: ('A' for Active; 'I' for Inactive)
REMARK    1  A    between atoms: C_2  and  C_8
REMARK    2  A    between atoms: C_8  and  C_9
REMARK    3  A    between atoms: C_8  and  C_20
REMARK                            x       y       z     vdW  Elec       q    Type
REMARK                         _______ _______ _______ _____ _____    ______ ____
ROOT
ATOM      1  C   UNL A   1     -23.317  -0.815  29.403  0.00  0.00    +0.048 C 
ENDROOT
BRANCH   1   2
ATOM      2  C   UNL A   1     -23.083  -0.315  30.752  0.00  0.00    +0.034 C 
ATOM      3  C   UNL A   1     -22.657  -0.916  31.523  0.00  0.00    -0.025 C 
ATOM      4  C   UNL A   1     -22.822  -1.212  32.578  0.00  0.00    -0.005 C 
ATOM      5  C   UNL A   1     -24.083  -0.777  33.261  0.00  0.00    -0.001 C 
ATOM      6  C   UNL A   1     -24.513  -1.176  34.491  0.00  0.00    -0.000 C 
ATOM      7  C   UNL A   1     -23.750   1.025  30.965  0.00  0.00    +0.027 C 
ATOM      8  C   UNL A   1     -24.813   1.196  31.878  0.00  0.00    -0.044 C 
ATOM      9  C   UNL A   1     -24.824   0.400  32.915  0.00  0.00    -0.008 C 
ATOM     10  C   UNL A   1     -25.657  -0.761  34.890  0.00  0.00    -0.000 C 
ATOM     11  C   UNL A   1     -25.946   0.475  33.908  0.00  0.00    -0.001 C 
ATOM     12  C   UNL A   1     -25.637   2.368  31.730  0.00  0.00    +0.026 C 
ENDBRANCH   1   2
BRANCH   1  14
ATOM     13  C   UNL A   1     -24.177   0.282  27.413  0.00  0.00    -0.002 A 
ATOM     14  C   UNL A   1     -23.287   0.211  28.228  0.00  0.00    -0.018 A 
ATOM     15  C   UNL A   1     -22.098   0.907  28.126  0.00  0.00    -0.002 A 
ATOM     16  C   UNL A   1     -21.933   1.785  27.018  0.00  0.00    +0.029 A 
ATOM     17  C   UNL A   1     -23.019   1.959  26.229  0.00  0.00    +0.140 A 
ATOM     18  C   UNL A   1     -24.132   1.279  26.427  0.00  0.00    +0.029 A 
ATOM     19  F   UNL A   1     -22.901   2.811  25.218  0.00  0.00    -0.204 F 
ENDBRANCH   1  14
BRANCH   1  20
ATOM     20  C   UNL A   1     -23.443  -2.178  29.088  0.00  0.00    -0.026 C 
ATOM     21  C   UNL A   1     -24.444  -2.915  29.180  0.00  0.00    -0.030 C 
ATOM     22  C   UNL A   1     -24.506  -4.307  28.843  0.00  0.00    +0.030 C 
ENDBRANCH   1  20
TORSDOF 3
ENDMDL
ENDMDL
