MODEL 4486
MODEL 1
REMARK VINA RESULT:    -6.593      0.000      0.000
REMARK INTER + INTRA:          -7.142
REMARK INTER:                  -6.979
REMARK INTRA:                  -0.163
REMARK UNBOUND:                -0.163
REMARK  Name = No_4486-gen_results/8p0m/2024-11-26-14-13-15/
REMARK  1 active torsions:
REMARK  status: ('A' for Active; 'I' for Inactive)
REMARK    1  A    between atoms: C_10  and  C_11
REMARK                            x       y       z     vdW  Elec       q    Type
REMARK                         _______ _______ _______ _____ _____    ______ ____
ROOT
ATOM      1  C   UNL A   1     -26.564  -3.925  29.901  0.00  0.00    +0.037 A 
ATOM      2  C   UNL A   1     -26.210  -4.891  29.672  0.00  0.00    +0.003 A 
ATOM      3  C   UNL A   1     -25.624  -2.812  29.696  0.00  0.00    +0.142 A 
ATOM      4  C   UNL A   1     -24.355  -3.038  29.086  0.00  0.00    +0.017 A 
ATOM      5  C   UNL A   1     -24.056  -4.343  28.786  0.00  0.00    -0.001 A 
ATOM      6  C   UNL A   1     -24.964  -5.327  29.017  0.00  0.00    -0.000 A 
ATOM      7  O   UNL A   1     -25.887  -1.517  30.028  0.00  0.00    -0.451 OA
ATOM      8  C   UNL A   1     -24.795  -0.734  30.331  0.00  0.00    +0.179 C 
ATOM      9  C   UNL A   1     -23.384  -2.025  28.973  0.00  0.00    +0.063 C 
ATOM     10  C   UNL A   1     -23.653  -0.743  29.603  0.00  0.00    +0.091 C 
ENDROOT
BRANCH  10  11
ATOM     11  C   UNL A   1     -22.652   0.287  29.690  0.00  0.00    +0.418 C 
ATOM     12  F   UNL A   1     -22.504   0.768  28.444  0.00  0.00    -0.166 F 
ATOM     13  F   UNL A   1     -21.766  -0.379  30.194  0.00  0.00    -0.166 F 
ATOM     14  F   UNL A   1     -23.065   1.259  30.471  0.00  0.00    -0.166 F 
ENDBRANCH  10  11
TORSDOF 1
ENDMDL
ENDMDL
