REMARK  Name = No_4486-gen_results/8p0m/2024-11-26-14-13-15/
REMARK  1 active torsions:
REMARK  status: ('A' for Active; 'I' for Inactive)
REMARK    1  A    between atoms: C_10  and  C_11
REMARK                            x       y       z     vdW  Elec       q    Type
REMARK                         _______ _______ _______ _____ _____    ______ ____
ROOT
ATOM      1  C   UNL A   1     -28.016  -0.814  28.878  0.00  0.00    +0.037 A 
ATOM      2  C   UNL A   1     -28.469  -0.785  29.829  0.00  0.00    +0.003 A 
ATOM      3  C   UNL A   1     -26.546  -0.876  28.850  0.00  0.00    +0.142 A 
ATOM      4  C   UNL A   1     -25.804  -1.032  30.057  0.00  0.00    +0.017 A 
ATOM      5  C   UNL A   1     -26.537  -1.039  31.217  0.00  0.00    -0.001 A 
ATOM      6  C   UNL A   1     -27.893  -0.960  31.174  0.00  0.00    -0.000 A 
ATOM      7  O   UNL A   1     -25.800  -0.826  27.711  0.00  0.00    -0.451 OA
ATOM      8  C   UNL A   1     -24.526  -0.318  27.841  0.00  0.00    +0.179 C 
ATOM      9  C   UNL A   1     -24.397  -0.984  30.086  0.00  0.00    +0.063 C 
ATOM     10  C   UNL A   1     -23.696  -0.654  28.857  0.00  0.00    +0.091 C 
ENDROOT
BRANCH  10  11
ATOM     11  C   UNL A   1     -22.278  -0.411  28.831  0.00  0.00    +0.418 C 
ATOM     12  F   UNL A   1     -22.004   0.309  29.933  0.00  0.00    -0.166 F 
ATOM     13  F   UNL A   1     -22.215   0.112  27.733  0.00  0.00    -0.166 F 
ATOM     14  F   UNL A   1     -21.619  -1.545  28.893  0.00  0.00    -0.166 F 
ENDBRANCH  10  11
TORSDOF 1
