MODEL 4487
MODEL 1
REMARK VINA RESULT:    -6.842      0.000      0.000
REMARK INTER + INTRA:          -8.457
REMARK INTER:                  -8.042
REMARK INTRA:                  -0.415
REMARK UNBOUND:                -0.415
REMARK  Name = No_4487-gen_results/8p0m/2024-11-26-14-13-15/
REMARK  3 active torsions:
REMARK  status: ('A' for Active; 'I' for Inactive)
REMARK    1  A    between atoms: C_2  and  O_13
REMARK    2  A    between atoms: C_4  and  C_6
REMARK    3  A    between atoms: O_13  and  C_14
REMARK                            x       y       z     vdW  Elec       q    Type
REMARK                         _______ _______ _______ _____ _____    ______ ____
ROOT
ATOM      1  C   UNL A   1     -24.764   0.408  25.278  0.00  0.00    +0.037 A 
ATOM      2  C   UNL A   1     -24.806   1.319  25.806  0.00  0.00    +0.145 A 
ATOM      3  C   UNL A   1     -26.068  -0.044  24.659  0.00  0.00    +0.003 A 
ATOM      4  C   UNL A   1     -27.186   0.816  24.696  0.00  0.00    +0.000 A 
ATOM      5  C   UNL A   1     -25.806   2.399  25.964  0.00  0.00    +0.037 A 
ATOM      6  C   UNL A   1     -27.036   2.025  25.371  0.00  0.00    +0.003 A 
ENDROOT
BRANCH   4   7
ATOM      7  C   UNL A   1     -28.432   0.464  24.128  0.00  0.00    +0.000 A 
ATOM      8  C   UNL A   1     -29.274   1.151  23.874  0.00  0.00    +0.000 A 
ATOM      9  C   UNL A   1     -30.606   0.811  23.338  0.00  0.00    +0.000 A 
ATOM     10  C   UNL A   1     -30.812  -0.504  23.207  0.00  0.00    +0.000 A 
ATOM     11  C   UNL A   1     -28.709  -0.960  23.885  0.00  0.00    +0.000 A 
ATOM     12  C   UNL A   1     -29.866  -1.415  23.492  0.00  0.00    +0.000 A 
ENDBRANCH   4   7
BRANCH   2  13
ATOM     13  O   UNL A   1     -23.551   1.739  26.463  0.00  0.00    -0.454 OA
BRANCH  13  14
ATOM     14  C   UNL A   1     -23.078   1.007  27.392  0.00  0.00    +0.145 A 
ATOM     15  C   UNL A   1     -23.760   0.280  28.128  0.00  0.00    +0.037 A 
ATOM     16  C   UNL A   1     -23.236  -0.684  28.958  0.00  0.00    +0.003 A 
ATOM     17  C   UNL A   1     -21.649   1.076  27.591  0.00  0.00    +0.037 A 
ATOM     18  C   UNL A   1     -21.010   0.194  28.464  0.00  0.00    +0.003 A 
ATOM     19  C   UNL A   1     -21.844  -0.637  29.220  0.00  0.00    +0.000 A 
ENDBRANCH  13  14
ENDBRANCH   2  13
TORSDOF 3
ENDMDL
ENDMDL
