MODEL 4488
MODEL 1
REMARK VINA RESULT:    -7.511      0.000      0.000
REMARK INTER + INTRA:         -11.976
REMARK INTER:                 -10.146
REMARK INTRA:                  -1.831
REMARK UNBOUND:                -1.831
REMARK  Name = No_4488-gen_results/8p0m/2024-11-26-14-13-15/
REMARK  6 active torsions:
REMARK  status: ('A' for Active; 'I' for Inactive)
REMARK    1  A    between atoms: C_3  and  C_4
REMARK    2  A    between atoms: C_4  and  C_8
REMARK    3  A    between atoms: C_8  and  C_9
REMARK    4  A    between atoms: C_8  and  C_15
REMARK    5  A    between atoms: C_16  and  C_17
REMARK    6  A    between atoms: C_18  and  C_19
REMARK                            x       y       z     vdW  Elec       q    Type
REMARK                         _______ _______ _______ _____ _____    ______ ____
ROOT
ATOM      1  C   UNL A   1     -25.235  -1.085  28.962  0.00  0.00    +0.049 C 
ENDROOT
BRANCH   1   2
ATOM      2  C   UNL A   1     -25.081  -2.458  28.875  0.00  0.00    -0.018 A 
ATOM      3  C   UNL A   1     -24.052  -3.242  28.457  0.00  0.00    -0.004 A 
ATOM      4  C   UNL A   1     -23.993  -4.640  28.552  0.00  0.00    -0.000 A 
ATOM      5  C   UNL A   1     -25.084  -5.307  29.101  0.00  0.00    -0.000 A 
ATOM      6  C   UNL A   1     -26.113  -3.265  29.608  0.00  0.00    -0.004 A 
ATOM      7  C   UNL A   1     -26.117  -4.620  29.666  0.00  0.00    -0.000 A 
ENDBRANCH   1   2
BRANCH   1   8
ATOM      8  C   UNL A   1     -26.250  -0.371  28.415  0.00  0.00    -0.022 C 
ATOM      9  C   UNL A   1     -26.358   0.040  27.237  0.00  0.00    -0.005 C 
BRANCH   9  10
ATOM     10  C   UNL A   1     -25.444  -0.255  26.162  0.00  0.00    -0.005 C 
ATOM     11  C   UNL A   1     -25.732  -0.180  24.809  0.00  0.00    -0.026 C 
BRANCH  11  12
ATOM     12  C   UNL A   1     -27.168  -0.013  24.517  0.00  0.00    +0.026 C 
ATOM     13  C   UNL A   1     -27.682   1.124  24.024  0.00  0.00    +0.005 C 
ENDBRANCH  11  12
ENDBRANCH   9  10
ENDBRANCH   1   8
BRANCH   1  14
ATOM     14  C   UNL A   1     -24.199  -0.483  29.782  0.00  0.00    +0.035 C 
BRANCH  14  17
ATOM     15  C   UNL A   1     -23.263   1.499  28.318  0.00  0.00    -0.004 A 
ATOM     16  C   UNL A   1     -22.419   1.776  27.752  0.00  0.00    -0.000 A 
ATOM     17  C   UNL A   1     -23.145   0.187  29.062  0.00  0.00    -0.021 A 
ATOM     18  C   UNL A   1     -21.050   1.245  27.710  0.00  0.00    -0.000 A 
ATOM     19  C   UNL A   1     -20.856   0.062  28.389  0.00  0.00    -0.000 A 
ATOM     20  C   UNL A   1     -21.877  -0.497  29.113  0.00  0.00    -0.004 A 
ENDBRANCH  14  17
ENDBRANCH   1  14
TORSDOF 6
ENDMDL
ENDMDL
