REMARK  Name = No_4488-gen_results/8p0m/2024-11-26-14-13-15/
REMARK  6 active torsions:
REMARK  status: ('A' for Active; 'I' for Inactive)
REMARK    1  A    between atoms: C_3  and  C_4
REMARK    2  A    between atoms: C_4  and  C_8
REMARK    3  A    between atoms: C_8  and  C_9
REMARK    4  A    between atoms: C_8  and  C_15
REMARK    5  A    between atoms: C_16  and  C_17
REMARK    6  A    between atoms: C_18  and  C_19
REMARK                            x       y       z     vdW  Elec       q    Type
REMARK                         _______ _______ _______ _____ _____    ______ ____
ROOT
ATOM      1  C   UNL A   1     -25.220   0.687  27.394  0.00  0.00    +0.049 C 
ENDROOT
BRANCH   1   2
ATOM      2  C   UNL A   1     -23.901   0.898  27.760  0.00  0.00    -0.018 A 
ATOM      3  C   UNL A   1     -23.102   0.313  28.691  0.00  0.00    -0.004 A 
ATOM      4  C   UNL A   1     -21.729   0.546  28.859  0.00  0.00    -0.000 A 
ATOM      5  C   UNL A   1     -21.113   1.471  28.020  0.00  0.00    -0.000 A 
ATOM      6  C   UNL A   1     -23.098   1.732  26.805  0.00  0.00    -0.004 A 
ATOM      7  C   UNL A   1     -21.785   2.026  26.972  0.00  0.00    -0.000 A 
ENDBRANCH   1   2
BRANCH   1   8
ATOM      8  C   UNL A   1     -26.012   1.583  26.755  0.00  0.00    -0.022 C 
ATOM      9  C   UNL A   1     -26.586   1.457  25.649  0.00  0.00    -0.005 C 
BRANCH   9  10
ATOM     10  C   UNL A   1     -26.601   0.258  24.849  0.00  0.00    -0.005 C 
ATOM     11  C   UNL A   1     -27.522  -0.044  23.858  0.00  0.00    -0.026 C 
BRANCH  11  12
ATOM     12  C   UNL A   1     -28.686   0.861  23.836  0.00  0.00    +0.026 C 
ATOM     13  C   UNL A   1     -29.795   0.602  23.127  0.00  0.00    +0.005 C 
ENDBRANCH  11  12
ENDBRANCH   9  10
ENDBRANCH   1   8
BRANCH   1  14
ATOM     14  C   UNL A   1     -25.654  -0.660  27.719  0.00  0.00    +0.035 C 
BRANCH  14  17
ATOM     15  C   UNL A   1     -28.016  -0.814  28.878  0.00  0.00    -0.004 A 
ATOM     16  C   UNL A   1     -28.469  -0.785  29.829  0.00  0.00    -0.000 A 
ATOM     17  C   UNL A   1     -26.504  -0.778  28.877  0.00  0.00    -0.021 A 
ATOM     18  C   UNL A   1     -27.918  -0.937  31.182  0.00  0.00    -0.000 A 
ATOM     19  C   UNL A   1     -26.542  -0.940  31.261  0.00  0.00    -0.000 A 
ATOM     20  C   UNL A   1     -25.783  -0.893  30.120  0.00  0.00    -0.004 A 
ENDBRANCH  14  17
ENDBRANCH   1  14
TORSDOF 6
