REMARK  Name = No_4489-gen_results/8p0m/2024-11-26-14-13-15/
REMARK  6 active torsions:
REMARK  status: ('A' for Active; 'I' for Inactive)
REMARK    1  A    between atoms: C_1  and  O_15
REMARK    2  A    between atoms: C_3  and  C_7
REMARK    3  A    between atoms: O_15  and  C_16
REMARK    4  A    between atoms: C_16  and  C_17
REMARK    5  A    between atoms: C_18  and  C_19
REMARK    6  A    between atoms: C_20  and  C_21
REMARK                            x       y       z     vdW  Elec       q    Type
REMARK                         _______ _______ _______ _____ _____    ______ ____
ROOT
ATOM      1  C   UNL A   1     -28.016  -0.814  28.878  0.00  0.00    +0.166 A 
ATOM      2  C   UNL A   1     -27.064  -0.119  28.608  0.00  0.00    +0.039 A 
ATOM      3  C   UNL A   1     -25.765  -0.390  29.036  0.00  0.00    +0.003 A 
ATOM      4  C   UNL A   1     -25.530  -1.530  29.901  0.00  0.00    +0.003 A 
ATOM      5  C   UNL A   1     -26.689  -2.289  30.181  0.00  0.00    +0.033 A 
ATOM      6  C   UNL A   1     -27.873  -1.951  29.737  0.00  0.00    +0.174 A 
ATOM      7  F   UNL A   1     -28.930  -2.703  30.065  0.00  0.00    -0.201 F 
ENDROOT
BRANCH   3   8
ATOM      8  C   UNL A   1     -24.549   0.410  28.734  0.00  0.00    +0.002 A 
ATOM      9  C   UNL A   1     -24.479   1.187  27.684  0.00  0.00    +0.030 A 
ATOM     10  C   UNL A   1     -23.272   1.897  27.373  0.00  0.00    +0.140 A 
ATOM     11  C   UNL A   1     -22.106   1.703  28.041  0.00  0.00    +0.030 A 
ATOM     12  C   UNL A   1     -23.319   0.179  29.467  0.00  0.00    +0.000 A 
ATOM     13  C   UNL A   1     -22.116   0.840  29.101  0.00  0.00    +0.002 A 
ATOM     14  F   UNL A   1     -23.323   2.758  26.324  0.00  0.00    -0.204 F 
ENDBRANCH   3   8
BRANCH   1  15
ATOM     15  O   UNL A   1     -29.276  -0.521  28.492  0.00  0.00    -0.468 OA
BRANCH  15  16
ATOM     16  C   UNL A   1     -29.693   0.812  28.509  0.00  0.00    +0.232 C 
BRANCH  16  17
ATOM     17  C   UNL A   1     -29.770   1.417  29.647  0.00  0.00    +0.021 C 
ATOM     18  C   UNL A   1     -30.432   0.918  30.694  0.00  0.00    -0.001 C 
BRANCH  18  19
ATOM     19  C   UNL A   1     -30.480   1.243  31.672  0.00  0.00    -0.000 C 
ATOM     20  C   UNL A   1     -31.128   0.581  32.901  0.00  0.00    -0.000 C 
BRANCH  20  21
ATOM     21  C   UNL A   1     -31.787  -0.616  32.547  0.00  0.00    -0.000 C 
ATOM     22  C   UNL A   1     -31.737  -1.088  31.289  0.00  0.00    -0.000 C 
ENDBRANCH  20  21
ENDBRANCH  18  19
ENDBRANCH  16  17
ENDBRANCH  15  16
ENDBRANCH   1  15
TORSDOF 6
