MODEL 4489
MODEL 1
REMARK VINA RESULT:    -7.453      0.000      0.000
REMARK INTER + INTRA:         -10.951
REMARK INTER:                 -10.067
REMARK INTRA:                  -0.883
REMARK UNBOUND:                -0.883
REMARK  Name = No_4489-gen_results/8p0m/2024-11-26-14-13-15/
REMARK  6 active torsions:
REMARK  status: ('A' for Active; 'I' for Inactive)
REMARK    1  A    between atoms: C_1  and  O_15
REMARK    2  A    between atoms: C_3  and  C_7
REMARK    3  A    between atoms: O_15  and  C_16
REMARK    4  A    between atoms: C_16  and  C_17
REMARK    5  A    between atoms: C_18  and  C_19
REMARK    6  A    between atoms: C_20  and  C_21
REMARK                            x       y       z     vdW  Elec       q    Type
REMARK                         _______ _______ _______ _____ _____    ______ ____
ROOT
ATOM      1  C   UNL A   1     -23.946   0.846  27.735  0.00  0.00    +0.166 A 
ATOM      2  C   UNL A   1     -24.576  -0.144  28.025  0.00  0.00    +0.039 A 
ATOM      3  C   UNL A   1     -24.041  -1.219  28.735  0.00  0.00    +0.003 A 
ATOM      4  C   UNL A   1     -22.639  -1.193  29.104  0.00  0.00    +0.003 A 
ATOM      5  C   UNL A   1     -21.965  -0.010  28.724  0.00  0.00    +0.033 A 
ATOM      6  C   UNL A   1     -22.553   0.947  28.051  0.00  0.00    +0.174 A 
ATOM      7  F   UNL A   1     -21.844   2.027  27.702  0.00  0.00    -0.201 F 
ENDROOT
BRANCH   3   8
ATOM      8  C   UNL A   1     -24.756  -2.458  29.135  0.00  0.00    +0.002 A 
ATOM      9  C   UNL A   1     -24.365  -3.640  28.733  0.00  0.00    +0.030 A 
ATOM     10  C   UNL A   1     -25.110  -4.818  29.074  0.00  0.00    +0.140 A 
ATOM     11  C   UNL A   1     -26.317  -4.776  29.693  0.00  0.00    +0.030 A 
ATOM     12  C   UNL A   1     -26.045  -2.380  29.796  0.00  0.00    +0.000 A 
ATOM     13  C   UNL A   1     -26.800  -3.553  30.065  0.00  0.00    +0.002 A 
ATOM     14  F   UNL A   1     -24.574  -6.008  28.701  0.00  0.00    -0.204 F 
ENDBRANCH   3   8
BRANCH   1  15
ATOM     15  O   UNL A   1     -24.462   1.864  27.014  0.00  0.00    -0.468 OA
BRANCH  15  16
ATOM     16  C   UNL A   1     -25.836   1.883  26.763  0.00  0.00    +0.232 C 
BRANCH  16  17
ATOM     17  C   UNL A   1     -26.239   2.152  25.566  0.00  0.00    +0.021 C 
ATOM     18  C   UNL A   1     -27.207   1.467  24.953  0.00  0.00    -0.001 C 
BRANCH  18  19
ATOM     19  C   UNL A   1     -27.687   1.643  24.056  0.00  0.00    -0.000 C 
ATOM     20  C   UNL A   1     -28.765   0.816  23.335  0.00  0.00    -0.000 C 
BRANCH  20  21
ATOM     21  C   UNL A   1     -29.044  -0.379  24.034  0.00  0.00    -0.000 C 
ATOM     22  C   UNL A   1     -28.995  -1.571  23.414  0.00  0.00    -0.000 C 
ENDBRANCH  20  21
ENDBRANCH  18  19
ENDBRANCH  16  17
ENDBRANCH  15  16
ENDBRANCH   1  15
TORSDOF 6
ENDMDL
ENDMDL
