MODEL 448
MODEL 1
REMARK VINA RESULT:    -7.483      0.000      0.000
REMARK INTER + INTRA:         -11.866
REMARK INTER:                 -10.107
REMARK INTRA:                  -1.759
REMARK UNBOUND:                -1.759
REMARK  Name = No_448-gen_results/8p0m/2024-11-26-14-13-15/
REMARK  6 active torsions:
REMARK  status: ('A' for Active; 'I' for Inactive)
REMARK    1  A    between atoms: C_2  and  O_7
REMARK    2  A    between atoms: C_4  and  C_15
REMARK    3  A    between atoms: C_5  and  C_21
REMARK    4  A    between atoms: O_7  and  C_8
REMARK    5  A    between atoms: C_12  and  C_14
REMARK    6  A    between atoms: C_16  and  C_24
REMARK                            x       y       z     vdW  Elec       q    Type
REMARK                         _______ _______ _______ _____ _____    ______ ____
ROOT
ATOM      1  C   UNL A   1     -23.457   0.116  28.997  0.00  0.00    +0.044 A 
ATOM      2  C   UNL A   1     -24.644  -0.112  29.048  0.00  0.00    +0.145 A 
ATOM      3  C   UNL A   1     -25.530   0.267  28.093  0.00  0.00    +0.037 A 
ATOM      4  C   UNL A   1     -25.046   0.969  26.972  0.00  0.00    +0.003 A 
ATOM      5  C   UNL A   1     -22.880   0.744  27.836  0.00  0.00    +0.083 A 
ATOM      6  C   UNL A   1     -23.732   1.170  26.861  0.00  0.00    +0.007 A 
ENDROOT
BRANCH   4   7
ATOM      7  C   UNL A   1     -26.049   1.394  25.923  0.00  0.00    +0.004 A 
ATOM      8  C   UNL A   1     -26.673   2.249  25.652  0.00  0.00    +0.071 A 
ATOM      9  C   UNL A   1     -27.713   2.438  24.658  0.00  0.00    +0.004 A 
ATOM     10  C   UNL A   1     -27.922   1.356  23.818  0.00  0.00    -0.000 A 
ATOM     11  C   UNL A   1     -27.242   0.165  24.044  0.00  0.00    -0.000 A 
ATOM     12  C   UNL A   1     -26.347   0.026  25.087  0.00  0.00    -0.000 A 
BRANCH   8  13
ATOM     13  C   UNL A   1     -26.536   3.561  26.480  0.00  0.00    +0.419 C 
ATOM     14  F   UNL A   1     -26.646   3.475  27.720  0.00  0.00    -0.166 F 
ATOM     15  F   UNL A   1     -27.502   4.438  25.949  0.00  0.00    -0.166 F 
ATOM     16  F   UNL A   1     -25.321   4.200  26.335  0.00  0.00    -0.166 F 
ENDBRANCH   8  13
ENDBRANCH   4   7
BRANCH   5  17
ATOM     17  C   UNL A   1     -21.459   1.035  27.781  0.00  0.00    +0.388 C 
ATOM     18  O   UNL A   1     -20.630   0.102  28.349  0.00  0.00    -0.241 OA
ATOM     19  O   UNL A   1     -21.007   2.046  27.340  0.00  0.00    -0.241 OA
ENDBRANCH   5  17
BRANCH   2  20
ATOM     20  O   UNL A   1     -25.036  -0.896  30.113  0.00  0.00    -0.454 OA
BRANCH  20  21
ATOM     21  C   UNL A   1     -25.510  -2.204  29.890  0.00  0.00    +0.145 A 
ATOM     22  C   UNL A   1     -26.708  -2.595  30.098  0.00  0.00    +0.042 A 
ATOM     23  C   UNL A   1     -24.539  -3.127  29.441  0.00  0.00    +0.037 A 
ATOM     24  C   UNL A   1     -24.888  -4.394  29.183  0.00  0.00    +0.003 A 
ATOM     25  C   UNL A   1     -27.139  -3.992  30.018  0.00  0.00    +0.062 A 
ATOM     26  C   UNL A   1     -26.150  -4.928  29.551  0.00  0.00    +0.005 A 
BRANCH  25  27
ATOM     27  C   UNL A   1     -28.447  -4.469  30.386  0.00  0.00    +0.297 C 
ATOM     28  N   UNL A   1     -28.602  -5.517  31.173  0.00  0.00    -0.102 NA
ATOM     29  O   UNL A   1     -29.486  -3.727  30.121  0.00  0.00    -0.264 OA
ENDBRANCH  25  27
ENDBRANCH  20  21
ENDBRANCH   2  20
TORSDOF 6
ENDMDL
ENDMDL
