REMARK  Name = No_449-gen_results/8p0m/2024-11-26-14-13-15/
REMARK  2 active torsions:
REMARK  status: ('A' for Active; 'I' for Inactive)
REMARK    1  A    between atoms: C_3  and  C_7
REMARK    2  A    between atoms: C_8  and  C_13
REMARK                            x       y       z     vdW  Elec       q    Type
REMARK                         _______ _______ _______ _____ _____    ______ ____
ROOT
ATOM      1  C   UNL A   1     -24.544   0.413  28.738  0.00  0.00    +0.004 A 
ATOM      2  C   UNL A   1     -24.095   1.379  29.575  0.00  0.00    +0.071 A 
ATOM      3  C   UNL A   1     -22.978   2.145  29.257  0.00  0.00    +0.004 A 
ATOM      4  C   UNL A   1     -22.250   1.909  28.053  0.00  0.00    -0.000 A 
ATOM      5  C   UNL A   1     -23.784   0.275  27.546  0.00  0.00    -0.000 A 
ATOM      6  C   UNL A   1     -22.725   0.995  27.263  0.00  0.00    -0.000 A 
ENDROOT
BRANCH   1   9
ATOM      7  C   UNL A   1     -28.016  -0.814  28.878  0.00  0.00    -0.000 A 
ATOM      8  C   UNL A   1     -27.064  -0.119  28.608  0.00  0.00    -0.000 A 
ATOM      9  C   UNL A   1     -25.765  -0.390  29.036  0.00  0.00    -0.000 A 
ATOM     10  C   UNL A   1     -25.530  -1.530  29.901  0.00  0.00    -0.000 A 
ATOM     11  C   UNL A   1     -26.658  -2.292  30.203  0.00  0.00    -0.000 A 
ATOM     12  C   UNL A   1     -27.855  -1.956  29.763  0.00  0.00    -0.000 A 
ENDBRANCH   1   9
BRANCH   2  13
ATOM     13  C   UNL A   1     -24.771   1.622  30.907  0.00  0.00    +0.419 C 
ATOM     14  F   UNL A   1     -26.063   1.708  30.733  0.00  0.00    -0.166 F 
ATOM     15  F   UNL A   1     -24.370   2.819  31.459  0.00  0.00    -0.166 F 
ATOM     16  F   UNL A   1     -24.424   0.642  31.765  0.00  0.00    -0.166 F 
ENDBRANCH   2  13
TORSDOF 2
