MODEL 4490
MODEL 1
REMARK VINA RESULT:    -4.545      0.000      0.000
REMARK INTER + INTRA:          -4.545
REMARK INTER:                  -4.545
REMARK INTRA:                   0.000
REMARK UNBOUND:                 0.000
REMARK  Name = No_4490-gen_results/8p0m/2024-11-26-14-13-15/
REMARK  0 active torsions:
REMARK  status: ('A' for Active; 'I' for Inactive)
REMARK                            x       y       z     vdW  Elec       q    Type
REMARK                         _______ _______ _______ _____ _____    ______ ____
ROOT
ATOM      1  C   UNL A   1     -24.003  -4.283  28.608  0.00  0.00    +0.030 A 
ATOM      2  C   UNL A   1     -24.871  -5.073  28.900  0.00  0.00    +0.140 A 
ATOM      3  C   UNL A   1     -26.022  -4.663  29.565  0.00  0.00    +0.030 A 
ATOM      4  C   UNL A   1     -26.195  -3.292  29.968  0.00  0.00    +0.002 A 
ATOM      5  C   UNL A   1     -25.133  -2.451  29.611  0.00  0.00    +0.000 A 
ATOM      6  C   UNL A   1     -24.059  -2.891  28.997  0.00  0.00    +0.002 A 
ATOM      7  F   UNL A   1     -24.809  -6.381  28.642  0.00  0.00    -0.204 F 
ENDROOT
TORSDOF 0
ENDMDL
ENDMDL
