MODEL 4492
MODEL 1
REMARK VINA RESULT:    -6.835      0.000      0.000
REMARK INTER + INTRA:          -7.632
REMARK INTER:                  -7.235
REMARK INTRA:                  -0.398
REMARK UNBOUND:                -0.398
REMARK  Name = No_4492-gen_results/8p0m/2024-11-26-14-13-15/
REMARK  1 active torsions:
REMARK  status: ('A' for Active; 'I' for Inactive)
REMARK    1  A    between atoms: C_4  and  C_7
REMARK                            x       y       z     vdW  Elec       q    Type
REMARK                         _______ _______ _______ _____ _____    ______ ____
ROOT
ATOM      1  C   UNL A   1     -26.228  -4.506  29.725  0.00  0.00    +0.030 A 
ATOM      2  C   UNL A   1     -25.530  -5.219  29.386  0.00  0.00    +0.002 A 
ATOM      3  C   UNL A   1     -25.839  -3.092  29.598  0.00  0.00    +0.140 A 
ATOM      4  C   UNL A   1     -24.640  -2.728  28.919  0.00  0.00    +0.028 A 
ATOM      5  C   UNL A   1     -23.861  -3.767  28.476  0.00  0.00    +0.002 A 
ATOM      6  C   UNL A   1     -24.254  -5.048  28.642  0.00  0.00    +0.000 A 
ATOM      7  F   UNL A   1     -26.565  -2.118  30.083  0.00  0.00    -0.204 F 
ENDROOT
BRANCH   4   8
ATOM      8  C   UNL A   1     -24.253  -1.349  28.768  0.00  0.00    +0.004 A 
ATOM      9  C   UNL A   1     -24.698  -0.627  28.207  0.00  0.00    +0.000 A 
ATOM     10  C   UNL A   1     -24.162   0.323  27.391  0.00  0.00    +0.002 A 
ATOM     11  C   UNL A   1     -22.862   0.777  27.754  0.00  0.00    +0.030 A 
ATOM     12  C   UNL A   1     -22.176  -0.021  28.704  0.00  0.00    +0.140 A 
ATOM     13  C   UNL A   1     -22.821  -1.221  29.204  0.00  0.00    +0.030 A 
ATOM     14  F   UNL A   1     -20.961   0.283  29.002  0.00  0.00    -0.204 F 
ENDBRANCH   4   8
TORSDOF 1
ENDMDL
ENDMDL
