REMARK  Name = No_4493-gen_results/8p0m/2024-11-26-14-13-15/
REMARK  9 active torsions:
REMARK  status: ('A' for Active; 'I' for Inactive)
REMARK    1  A    between atoms: C_2  and  C_3
REMARK    2  A    between atoms: C_3  and  N_5
REMARK    3  A    between atoms: N_4  and  C_14
REMARK    4  A    between atoms: N_5  and  C_6
REMARK    5  A    between atoms: C_15  and  C_16
REMARK    6  A    between atoms: C_16  and  C_17
REMARK    7  A    between atoms: C_17  and  C_18
REMARK    8  A    between atoms: C_19  and  C_20
REMARK    9  A    between atoms: C_21  and  C_22
REMARK                            x       y       z     vdW  Elec       q    Type
REMARK                         _______ _______ _______ _____ _____    ______ ____
ROOT
ATOM      1  O   UNL A   1     -28.123  -1.335  28.487  0.00  0.00    -0.273 OA
ATOM      2  C   UNL A   1     -27.481  -0.404  28.709  0.00  0.00    +0.249 C 
ATOM      3  N   UNL A   1     -27.899   0.646  29.632  0.00  0.00    -0.255 N 
ATOM      4  C   UNL A   1     -29.003   0.391  30.531  0.00  0.00    +0.120 C 
ENDROOT
BRANCH   2   5
ATOM      5  C   UNL A   1     -26.380  -0.087  27.939  0.00  0.00    +0.169 C 
ATOM      6  C   UNL A   1     -26.570   0.537  26.624  0.00  0.00    +0.033 C 
BRANCH   5   7
ATOM      7  N   UNL A   1     -25.233  -0.588  28.250  0.00  0.00    -0.230 NA
BRANCH   7   8
ATOM      8  C   UNL A   1     -24.003   0.086  28.245  0.00  0.00    +0.066 A 
ATOM      9  C   UNL A   1     -22.923  -0.501  28.999  0.00  0.00    +0.016 A 
ATOM     10  C   UNL A   1     -23.772   1.238  27.519  0.00  0.00    +0.016 A 
ATOM     11  C   UNL A   1     -22.495   1.858  27.544  0.00  0.00    +0.001 A 
ATOM     12  C   UNL A   1     -21.642   0.107  28.951  0.00  0.00    +0.001 A 
ATOM     13  C   UNL A   1     -21.411   1.244  28.240  0.00  0.00    +0.000 A 
ENDBRANCH   7   8
ENDBRANCH   5   7
ENDBRANCH   2   5
BRANCH   3  14
ATOM     14  C   UNL A   1     -27.101   1.783  29.863  0.00  0.00    +0.063 C 
ATOM     15  C   UNL A   1     -27.670   2.778  30.658  0.00  0.00    -0.010 C 
BRANCH  15  16
ATOM     16  C   UNL A   1     -27.576   3.870  30.762  0.00  0.00    +0.032 C 
BRANCH  16  17
ATOM     17  C   UNL A   1     -26.640   4.585  29.775  0.00  0.00    +0.031 C 
BRANCH  17  18
ATOM     18  C   UNL A   1     -26.358   5.935  29.754  0.00  0.00    -0.026 C 
ATOM     19  C   UNL A   1     -25.405   6.374  28.779  0.00  0.00    -0.005 C 
BRANCH  19  20
ATOM     20  C   UNL A   1     -24.972   7.707  28.740  0.00  0.00    -0.000 C 
ATOM     21  C   UNL A   1     -24.035   8.136  27.774  0.00  0.00    -0.000 C 
BRANCH  21  22
ATOM     22  C   UNL A   1     -23.441   9.354  27.899  0.00  0.00    -0.005 C 
ATOM     23  C   UNL A   1     -23.796  10.200  29.029  0.00  0.00    -0.026 C 
ATOM     24  C   UNL A   1     -24.732   9.787  29.927  0.00  0.00    +0.031 C 
ENDBRANCH  21  22
ENDBRANCH  19  20
ENDBRANCH  17  18
ENDBRANCH  16  17
ENDBRANCH  15  16
ENDBRANCH   3  14
TORSDOF 9
