MODEL 4494
MODEL 1
REMARK VINA RESULT:    -7.434      0.000      0.000
REMARK INTER + INTRA:          -9.330
REMARK INTER:                  -8.738
REMARK INTRA:                  -0.591
REMARK UNBOUND:                -0.591
REMARK  Name = No_4494-gen_results/8p0m/2024-11-26-14-13-15/
REMARK  3 active torsions:
REMARK  status: ('A' for Active; 'I' for Inactive)
REMARK    1  A    between atoms: C_3  and  C_7
REMARK    2  A    between atoms: C_5  and  C_16
REMARK    3  A    between atoms: C_9  and  C_13
REMARK                            x       y       z     vdW  Elec       q    Type
REMARK                         _______ _______ _______ _____ _____    ______ ____
ROOT
ATOM      1  C   UNL A   1     -24.619  -4.952  28.912  0.00  0.00    +0.000 A 
ATOM      2  C   UNL A   1     -23.946  -3.954  28.800  0.00  0.00    +0.000 A 
ATOM      3  C   UNL A   1     -24.379  -2.666  29.069  0.00  0.00    +0.000 A 
ATOM      4  C   UNL A   1     -25.715  -2.517  29.545  0.00  0.00    +0.005 A 
ATOM      5  C   UNL A   1     -26.386  -3.649  29.811  0.00  0.00    +0.055 A 
ATOM      6  C   UNL A   1     -25.881  -4.824  29.567  0.00  0.00    +0.005 A 
ENDROOT
BRANCH   3   7
ATOM      7  C   UNL A   1     -23.547  -1.443  28.780  0.00  0.00    +0.000 A 
ATOM      8  C   UNL A   1     -24.198  -0.517  28.056  0.00  0.00    +0.007 A 
ATOM      9  C   UNL A   1     -23.444   0.642  27.563  0.00  0.00    +0.080 A 
ATOM     10  C   UNL A   1     -22.239   0.909  28.184  0.00  0.00    +0.007 A 
ATOM     11  C   UNL A   1     -22.295  -1.143  29.256  0.00  0.00    +0.000 A 
ATOM     12  C   UNL A   1     -21.597  -0.036  28.899  0.00  0.00    +0.000 A 
BRANCH   9  13
ATOM     13  C   UNL A   1     -24.150   1.689  26.774  0.00  0.00    +0.388 C 
ATOM     14  O   UNL A   1     -24.544   2.785  27.255  0.00  0.00    -0.241 OA
ATOM     15  O   UNL A   1     -24.510   1.367  25.539  0.00  0.00    -0.241 OA
ENDBRANCH   9  13
ENDBRANCH   3   7
BRANCH   5  16
ATOM     16  C   UNL A   1     -27.718  -3.724  30.423  0.00  0.00    +0.265 C 
ATOM     17  O   UNL A   1     -28.108  -2.834  31.111  0.00  0.00    -0.268 OA
ATOM     18  N   UNL A   1     -28.687  -4.509  29.893  0.00  0.00    -0.200 NA
ATOM     19  C   UNL A   1     -30.030  -4.473  30.374  0.00  0.00    +0.139 C 
ENDBRANCH   5  16
TORSDOF 3
ENDMDL
ENDMDL
