REMARK  Name = No_4494-gen_results/8p0m/2024-11-26-14-13-15/
REMARK  3 active torsions:
REMARK  status: ('A' for Active; 'I' for Inactive)
REMARK    1  A    between atoms: C_3  and  C_7
REMARK    2  A    between atoms: C_5  and  C_16
REMARK    3  A    between atoms: C_9  and  C_13
REMARK                            x       y       z     vdW  Elec       q    Type
REMARK                         _______ _______ _______ _____ _____    ______ ____
ROOT
ATOM      1  C   UNL A   1     -28.016  -0.814  28.878  0.00  0.00    +0.000 A 
ATOM      2  C   UNL A   1     -27.064  -0.119  28.608  0.00  0.00    +0.000 A 
ATOM      3  C   UNL A   1     -26.972   0.714  27.506  0.00  0.00    +0.000 A 
ATOM      4  C   UNL A   1     -28.105   0.774  26.642  0.00  0.00    +0.005 A 
ATOM      5  C   UNL A   1     -29.204   0.118  27.048  0.00  0.00    +0.055 A 
ATOM      6  C   UNL A   1     -29.213  -0.609  28.128  0.00  0.00    +0.005 A 
ENDROOT
BRANCH   3   7
ATOM      7  C   UNL A   1     -25.711   1.452  27.138  0.00  0.00    +0.000 A 
ATOM      8  C   UNL A   1     -24.605   0.925  27.690  0.00  0.00    +0.007 A 
ATOM      9  C   UNL A   1     -23.338   1.651  27.549  0.00  0.00    +0.080 A 
ATOM     10  C   UNL A   1     -23.276   2.604  26.550  0.00  0.00    +0.007 A 
ATOM     11  C   UNL A   1     -25.569   2.486  26.246  0.00  0.00    +0.000 A 
ATOM     12  C   UNL A   1     -24.397   3.128  26.014  0.00  0.00    +0.000 A 
BRANCH   9  13
ATOM     13  C   UNL A   1     -22.098   1.076  28.138  0.00  0.00    +0.388 C 
ATOM     14  O   UNL A   1     -22.079   0.057  28.880  0.00  0.00    -0.241 OA
ATOM     15  O   UNL A   1     -20.982   1.778  27.989  0.00  0.00    -0.241 OA
ENDBRANCH   9  13
ENDBRANCH   3   7
BRANCH   5  16
ATOM     16  C   UNL A   1     -30.510   0.151  26.379  0.00  0.00    +0.265 C 
ATOM     17  O   UNL A   1     -30.569   0.151  25.189  0.00  0.00    -0.268 OA
ATOM     18  N   UNL A   1     -31.630  -0.274  27.011  0.00  0.00    -0.200 NA
ATOM     19  C   UNL A   1     -32.876  -0.401  26.328  0.00  0.00    +0.139 C 
ENDBRANCH   5  16
TORSDOF 3
