MODEL 4495
MODEL 1
REMARK VINA RESULT:    -8.554      0.000      0.000
REMARK INTER + INTRA:         -12.176
REMARK INTER:                 -11.054
REMARK INTRA:                  -1.123
REMARK UNBOUND:                -1.123
REMARK  Name = No_4495-gen_results/8p0m/2024-11-26-14-13-15/
REMARK  5 active torsions:
REMARK  status: ('A' for Active; 'I' for Inactive)
REMARK    1  A    between atoms: C_3  and  C_7
REMARK    2  A    between atoms: C_6  and  C_13
REMARK    3  A    between atoms: N_15  and  C_16
REMARK    4  A    between atoms: C_18  and  C_23
REMARK    5  A    between atoms: C_27  and  C_30
REMARK                            x       y       z     vdW  Elec       q    Type
REMARK                         _______ _______ _______ _____ _____    ______ ____
ROOT
ATOM      1  C   UNL A   1     -26.080 -19.419   7.754  0.00  0.00    +0.269 C 
ATOM      2  O   UNL A   1     -26.833 -20.222   7.869  0.00  0.00    -0.268 OA
ATOM      3  N   UNL A   1     -26.418 -18.071   7.680  0.00  0.00    -0.175 NA
ENDROOT
BRANCH   1   9
ATOM      4  C   UNL A   1     -23.952 -20.607   8.588  0.00  0.00    +0.005 A 
ATOM      5  C   UNL A   1     -22.782 -20.874   8.437  0.00  0.00    +0.000 A 
ATOM      6  C   UNL A   1     -21.984 -20.310   7.443  0.00  0.00    +0.000 A 
ATOM      7  C   UNL A   1     -22.583 -19.395   6.491  0.00  0.00    +0.000 A 
ATOM      8  C   UNL A   1     -23.938 -19.131   6.689  0.00  0.00    +0.005 A 
ATOM      9  C   UNL A   1     -24.621 -19.719   7.651  0.00  0.00    +0.055 A 
BRANCH   6  10
ATOM     10  C   UNL A   1     -20.538 -20.583   7.201  0.00  0.00    +0.002 A 
ATOM     11  C   UNL A   1     -19.845 -21.368   7.972  0.00  0.00    +0.030 A 
ATOM     12  C   UNL A   1     -18.436 -21.557   7.773  0.00  0.00    +0.140 A 
ATOM     13  C   UNL A   1     -17.713 -20.855   6.871  0.00  0.00    +0.030 A 
ATOM     14  C   UNL A   1     -19.801 -19.790   6.205  0.00  0.00    +0.000 A 
ATOM     15  C   UNL A   1     -18.392 -19.961   6.068  0.00  0.00    +0.002 A 
ATOM     16  F   UNL A   1     -17.822 -22.462   8.580  0.00  0.00    -0.204 F 
ENDBRANCH   6  10
ENDBRANCH   1   9
BRANCH   3  17
ATOM     17  C   UNL A   1     -27.802 -17.626   7.860  0.00  0.00    +0.074 A 
ATOM     18  C   UNL A   1     -28.060 -16.802   8.879  0.00  0.00    +0.017 A 
ATOM     19  C   UNL A   1     -29.247 -16.138   8.880  0.00  0.00    +0.001 A 
ATOM     20  C   UNL A   1     -30.182 -16.311   7.809  0.00  0.00    +0.000 A 
ATOM     21  C   UNL A   1     -29.853 -17.180   6.753  0.00  0.00    +0.001 A 
ATOM     22  C   UNL A   1     -28.614 -17.791   6.714  0.00  0.00    +0.017 A 
BRANCH  19  23
ATOM     23  C   UNL A   1     -29.599 -15.237   9.987  0.00  0.00    +0.000 A 
ATOM     24  C   UNL A   1     -29.875 -15.773  11.164  0.00  0.00    +0.002 A 
ATOM     25  C   UNL A   1     -29.985 -14.950  12.281  0.00  0.00    +0.030 A 
ATOM     26  C   UNL A   1     -29.490 -13.860   9.849  0.00  0.00    +0.002 A 
ATOM     27  C   UNL A   1     -29.632 -12.983  10.916  0.00  0.00    +0.027 A 
ATOM     28  C   UNL A   1     -29.911 -13.581  12.153  0.00  0.00    +0.140 A 
ATOM     29  F   UNL A   1     -30.106 -12.767  13.177  0.00  0.00    -0.204 F 
BRANCH  27  30
ATOM     30  C   UNL A   1     -29.525 -11.542  10.767  0.00  0.00    -0.002 C 
ATOM     31  C   UNL A   1     -30.572 -10.989  10.356  0.00  0.00    -0.026 C 
ATOM     32  C   UNL A   1     -31.947 -11.533  10.521  0.00  0.00    +0.031 C 
ENDBRANCH  27  30
ENDBRANCH  19  23
ENDBRANCH   3  17
TORSDOF 5
ENDMDL
ENDMDL
