MODEL 4497
MODEL 1
REMARK VINA RESULT:    -5.753      0.000      0.000
REMARK INTER + INTRA:          -5.753
REMARK INTER:                  -5.753
REMARK INTRA:                   0.000
REMARK UNBOUND:                 0.000
REMARK  Name = No_4497-gen_results/8p0m/2024-11-26-14-13-15/
REMARK  0 active torsions:
REMARK  status: ('A' for Active; 'I' for Inactive)
REMARK                            x       y       z     vdW  Elec       q    Type
REMARK                         _______ _______ _______ _____ _____    ______ ____
ROOT
ATOM      1  C   UNL A   1     -25.030  -5.271  29.048  0.00  0.00    +0.000 A 
ATOM      2  C   UNL A   1     -24.160  -4.461  28.827  0.00  0.00    +0.000 A 
ATOM      3  C   UNL A   1     -24.260  -3.111  29.160  0.00  0.00    +0.001 A 
ATOM      4  C   UNL A   1     -25.490  -2.619  29.751  0.00  0.00    +0.000 A 
ATOM      5  C   UNL A   1     -26.464  -3.620  29.970  0.00  0.00    +0.000 A 
ATOM      6  C   UNL A   1     -26.280  -4.866  29.617  0.00  0.00    +0.000 A 
ATOM      7  C   UNL A   1     -23.230  -2.064  28.931  0.00  0.00    +0.011 A 
ATOM      8  C   UNL A   1     -23.323  -0.833  29.375  0.00  0.00    +0.058 A 
ATOM      9  C   UNL A   1     -24.558  -0.500  30.105  0.00  0.00    +0.011 A 
ATOM     10  C   UNL A   1     -25.591  -1.322  30.267  0.00  0.00    +0.001 A 
ATOM     11 CL   UNL A   1     -22.150   0.370  29.186  0.00  0.00    -0.082 Cl
ENDROOT
TORSDOF 0
ENDMDL
ENDMDL
