REMARK  Name = No_4498-gen_results/8p0m/2024-11-26-14-13-15/
REMARK  2 active torsions:
REMARK  status: ('A' for Active; 'I' for Inactive)
REMARK    1  A    between atoms: C_2  and  C_8
REMARK    2  A    between atoms: C_9  and  C_10
REMARK                            x       y       z     vdW  Elec       q    Type
REMARK                         _______ _______ _______ _____ _____    ______ ____
ROOT
ATOM      1  C   UNL A   1     -25.729  -0.204  29.399  0.00  0.00    +0.000 C 
ATOM      2  C   UNL A   1     -25.237   1.009  30.052  0.00  0.00    +0.000 C 
ENDROOT
BRANCH   1   4
ATOM      3  C   UNL A   1     -28.016  -0.814  28.878  0.00  0.00    +0.003 A 
ATOM      4  C   UNL A   1     -27.064  -0.119  28.608  0.00  0.00    +0.000 A 
ATOM      5  C   UNL A   1     -27.001   0.691  27.491  0.00  0.00    +0.003 A 
ATOM      6  C   UNL A   1     -28.137   0.736  26.635  0.00  0.00    +0.042 A 
ATOM      7  C   UNL A   1     -29.236   0.076  27.069  0.00  0.00    +0.196 A 
ATOM      8  C   UNL A   1     -29.218  -0.643  28.175  0.00  0.00    +0.042 A 
ATOM      9  O   UNL A   1     -30.342   0.162  26.279  0.00  0.00    -0.287 OA
ENDBRANCH   1   4
BRANCH   2  10
ATOM     10  C   UNL A   1     -25.881   2.100  30.115  0.00  0.00    +0.000 A 
ATOM     11  C   UNL A   1     -25.269   3.211  30.812  0.00  0.00    +0.000 A 
ATOM     12  C   UNL A   1     -25.929   4.473  30.910  0.00  0.00    +0.000 A 
ATOM     13  C   UNL A   1     -27.073   4.671  30.174  0.00  0.00    +0.000 A 
ATOM     14  C   UNL A   1     -27.581   3.659  29.422  0.00  0.00    +0.000 A 
ATOM     15  C   UNL A   1     -26.979   2.455  29.391  0.00  0.00    +0.000 A 
ENDBRANCH   2  10
TORSDOF 2
