MODEL 4498
MODEL 1
REMARK VINA RESULT:    -5.584      0.000      0.000
REMARK INTER + INTRA:          -6.968
REMARK INTER:                  -6.237
REMARK INTRA:                  -0.731
REMARK UNBOUND:                -0.731
REMARK  Name = No_4498-gen_results/8p0m/2024-11-26-14-13-15/
REMARK  2 active torsions:
REMARK  status: ('A' for Active; 'I' for Inactive)
REMARK    1  A    between atoms: C_2  and  C_8
REMARK    2  A    between atoms: C_9  and  C_10
REMARK                            x       y       z     vdW  Elec       q    Type
REMARK                         _______ _______ _______ _____ _____    ______ ____
ROOT
ATOM      1  C   UNL A   1     -22.518   2.245  27.040  0.00  0.00    +0.000 C 
ATOM      2  C   UNL A   1     -23.358   2.252  25.843  0.00  0.00    +0.000 C 
ENDROOT
BRANCH   1   4
ATOM      3  C   UNL A   1     -23.738   1.499  28.997  0.00  0.00    +0.003 A 
ATOM      4  C   UNL A   1     -22.879   1.255  28.182  0.00  0.00    +0.000 A 
ATOM      5  C   UNL A   1     -22.031   0.168  28.268  0.00  0.00    +0.003 A 
ATOM      6  C   UNL A   1     -22.207  -0.731  29.357  0.00  0.00    +0.042 A 
ATOM      7  C   UNL A   1     -23.286  -0.509  30.144  0.00  0.00    +0.196 A 
ATOM      8  C   UNL A   1     -24.070   0.537  29.962  0.00  0.00    +0.042 A 
ATOM      9  O   UNL A   1     -23.488  -1.399  31.154  0.00  0.00    -0.287 OA
ENDBRANCH   1   4
BRANCH   2  10
ATOM     10  C   UNL A   1     -24.430   1.586  25.716  0.00  0.00    +0.000 A 
ATOM     11  C   UNL A   1     -25.683   2.257  25.990  0.00  0.00    +0.000 A 
ATOM     12  C   UNL A   1     -26.930   1.574  25.854  0.00  0.00    +0.000 A 
ATOM     13  C   UNL A   1     -26.931   0.324  25.282  0.00  0.00    +0.000 A 
ATOM     14  C   UNL A   1     -25.758  -0.256  24.913  0.00  0.00    +0.000 A 
ATOM     15  C   UNL A   1     -24.586   0.378  25.107  0.00  0.00    +0.000 A 
ENDBRANCH   2  10
TORSDOF 2
ENDMDL
ENDMDL
