MODEL 4499
MODEL 1
REMARK VINA RESULT:    -4.824      0.000      0.000
REMARK INTER + INTRA:          -5.157
REMARK INTER:                  -5.106
REMARK INTRA:                  -0.051
REMARK UNBOUND:                -0.051
REMARK  Name = No_4499-gen_results/8p0m/2024-11-26-14-13-15/
REMARK  1 active torsions:
REMARK  status: ('A' for Active; 'I' for Inactive)
REMARK    1  A    between atoms: C_2  and  C_3
REMARK                            x       y       z     vdW  Elec       q    Type
REMARK                         _______ _______ _______ _____ _____    ______ ____
ROOT
ATOM      1  C   UNL A   1     -24.195  -2.814  29.029  0.00  0.00    +0.043 A 
ATOM      2  C   UNL A   1     -24.021  -4.138  28.790  0.00  0.00    +0.008 A 
ATOM      3  C   UNL A   1     -24.979  -5.206  29.031  0.00  0.00    +0.001 A 
ATOM      4  C   UNL A   1     -26.209  -4.818  29.612  0.00  0.00    +0.000 A 
ATOM      5  C   UNL A   1     -26.452  -3.483  29.925  0.00  0.00    +0.001 A 
ATOM      6  C   UNL A   1     -25.479  -2.575  29.683  0.00  0.00    +0.008 A 
ENDROOT
BRANCH   1   8
ATOM      7  C   UNL A   1     -22.592  -1.016  29.295  0.00  0.00    -0.009 C 
ATOM      8  C   UNL A   1     -23.400  -1.849  28.954  0.00  0.00    -0.051 C 
ENDBRANCH   1   8
TORSDOF 1
ENDMDL
ENDMDL
