REMARK  Name = No_4499-gen_results/8p0m/2024-11-26-14-13-15/
REMARK  1 active torsions:
REMARK  status: ('A' for Active; 'I' for Inactive)
REMARK    1  A    between atoms: C_2  and  C_3
REMARK                            x       y       z     vdW  Elec       q    Type
REMARK                         _______ _______ _______ _____ _____    ______ ____
ROOT
ATOM      1  C   UNL A   1     -26.407   0.883  28.242  0.00  0.00    +0.043 A 
ATOM      2  C   UNL A   1     -25.085   1.171  28.339  0.00  0.00    +0.008 A 
ATOM      3  C   UNL A   1     -24.391   2.313  27.764  0.00  0.00    +0.001 A 
ATOM      4  C   UNL A   1     -25.182   3.195  26.990  0.00  0.00    +0.000 A 
ATOM      5  C   UNL A   1     -26.540   2.949  26.807  0.00  0.00    +0.001 A 
ATOM      6  C   UNL A   1     -27.077   1.841  27.366  0.00  0.00    +0.008 A 
ENDROOT
BRANCH   1   8
ATOM      7  C   UNL A   1     -28.016  -0.814  28.878  0.00  0.00    -0.009 C 
ATOM      8  C   UNL A   1     -27.064  -0.119  28.608  0.00  0.00    -0.051 C 
ENDBRANCH   1   8
TORSDOF 1
