MODEL 449
MODEL 1
REMARK VINA RESULT:    -6.647      0.000      0.000
REMARK INTER + INTRA:          -7.696
REMARK INTER:                  -7.425
REMARK INTRA:                  -0.271
REMARK UNBOUND:                -0.271
REMARK  Name = No_449-gen_results/8p0m/2024-11-26-14-13-15/
REMARK  2 active torsions:
REMARK  status: ('A' for Active; 'I' for Inactive)
REMARK    1  A    between atoms: C_3  and  C_7
REMARK    2  A    between atoms: C_8  and  C_13
REMARK                            x       y       z     vdW  Elec       q    Type
REMARK                         _______ _______ _______ _____ _____    ______ ____
ROOT
ATOM      1  C   UNL A   1     -24.571  -2.545  28.957  0.00  0.00    +0.004 A 
ATOM      2  C   UNL A   1     -25.718  -2.576  29.677  0.00  0.00    +0.071 A 
ATOM      3  C   UNL A   1     -26.333  -3.782  30.001  0.00  0.00    +0.004 A 
ATOM      4  C   UNL A   1     -25.790  -5.022  29.549  0.00  0.00    -0.000 A 
ATOM      5  C   UNL A   1     -24.081  -3.825  28.585  0.00  0.00    -0.000 A 
ATOM      6  C   UNL A   1     -24.676  -4.955  28.885  0.00  0.00    -0.000 A 
ENDROOT
BRANCH   1   9
ATOM      7  C   UNL A   1     -23.695   0.744  27.545  0.00  0.00    -0.000 A 
ATOM      8  C   UNL A   1     -24.307  -0.277  27.759  0.00  0.00    -0.000 A 
ATOM      9  C   UNL A   1     -23.870  -1.268  28.637  0.00  0.00    -0.000 A 
ATOM     10  C   UNL A   1     -22.587  -1.113  29.295  0.00  0.00    -0.000 A 
ATOM     11  C   UNL A   1     -21.907   0.068  29.005  0.00  0.00    -0.000 A 
ATOM     12  C   UNL A   1     -22.390   0.950  28.151  0.00  0.00    -0.000 A 
ENDBRANCH   1   9
BRANCH   2  13
ATOM     13  C   UNL A   1     -26.391  -1.293  30.114  0.00  0.00    +0.419 C 
ATOM     14  F   UNL A   1     -25.522  -0.526  30.716  0.00  0.00    -0.166 F 
ATOM     15  F   UNL A   1     -27.394  -1.541  31.026  0.00  0.00    -0.166 F 
ATOM     16  F   UNL A   1     -26.954  -0.702  29.041  0.00  0.00    -0.166 F 
ENDBRANCH   2  13
TORSDOF 2
ENDMDL
ENDMDL
