MODEL 44
MODEL 1
REMARK VINA RESULT:    -7.773      0.000      0.000
REMARK INTER + INTRA:         -13.625
REMARK INTER:                 -10.954
REMARK INTRA:                  -2.672
REMARK UNBOUND:                -2.672
REMARK  Name = No_44-gen_results/8p0m/2024-11-26-14-13-15/
REMARK  7 active torsions:
REMARK  status: ('A' for Active; 'I' for Inactive)
REMARK    1  A    between atoms: C_2  and  C_7
REMARK    2  A    between atoms: C_4  and  C_31
REMARK    3  A    between atoms: C_5  and  C_16
REMARK    4  A    between atoms: C_7  and  C_8
REMARK    5  A    between atoms: C_8  and  C_9
REMARK    6  A    between atoms: C_13  and  C_20
REMARK    7  A    between atoms: C_14  and  C_15
REMARK                            x       y       z     vdW  Elec       q    Type
REMARK                         _______ _______ _______ _____ _____    ______ ____
ROOT
ATOM      1  C   UNL A   1     -23.175   1.640  28.159  0.00  0.00    +0.022 C 
ATOM      2  C   UNL A   1     -22.539   1.792  27.315  0.00  0.00    -0.044 C 
ATOM      3  C   UNL A   1     -22.835   2.131  25.916  0.00  0.00    -0.009 C 
ATOM      4  C   UNL A   1     -24.250   2.220  25.657  0.00  0.00    -0.007 C 
ATOM      5  C   UNL A   1     -25.157   1.962  26.607  0.00  0.00    -0.017 C 
ATOM      6  C   UNL A   1     -24.765   1.699  27.809  0.00  0.00    +0.024 C 
ATOM      7  C   UNL A   1     -20.977   1.594  27.452  0.00  0.00    +0.026 C 
ENDROOT
BRANCH   5   8
ATOM      8  C   UNL A   1     -26.585   2.148  26.204  0.00  0.00    +0.139 C 
ATOM      9  C   UNL A   1     -27.024   3.400  25.771  0.00  0.00    +0.060 C 
ATOM     10  C   UNL A   1     -28.062   3.353  24.824  0.00  0.00    -0.025 C 
ATOM     11  C   UNL A   1     -28.465   2.211  24.419  0.00  0.00    +0.005 C 
ATOM     12  C   UNL A   1     -29.631   2.227  23.532  0.00  0.00    -0.002 C 
ATOM     13  C   UNL A   1     -30.171   0.965  23.051  0.00  0.00    -0.001 C 
ATOM     14  C   UNL A   1     -29.563  -0.178  23.566  0.00  0.00    -0.002 C 
ATOM     15  C   UNL A   1     -28.496  -0.167  24.368  0.00  0.00    +0.007 C 
ATOM     16  C   UNL A   1     -27.959   1.064  24.790  0.00  0.00    +0.160 C 
ATOM     17  O   UNL A   1     -27.189   1.066  25.926  0.00  0.00    -0.345 OA
ENDBRANCH   5   8
BRANCH   6  18
ATOM     18  C   UNL A   1     -25.452   2.567  28.832  0.00  0.00    +0.004 C 
ATOM     19  C   UNL A   1     -26.710   1.802  29.348  0.00  0.00    +0.000 C 
ENDBRANCH   6  18
BRANCH   1  20
ATOM     20  C   UNL A   1     -23.114   1.349  29.429  0.00  0.00    +0.009 C 
BRANCH  20  21
ATOM     21  C   UNL A   1     -22.981  -0.037  29.940  0.00  0.00    +0.027 C 
BRANCH  21  23
ATOM     22  C   UNL A   1     -24.798  -0.513  31.432  0.00  0.00    +0.002 A 
ATOM     23  C   UNL A   1     -24.335  -0.694  30.329  0.00  0.00    -0.022 A 
ATOM     24  C   UNL A   1     -24.837  -1.401  29.358  0.00  0.00    -0.004 A 
ATOM     25  C   UNL A   1     -26.078  -2.070  29.585  0.00  0.00    -0.000 A 
ATOM     26  C   UNL A   1     -26.113  -1.066  31.699  0.00  0.00    +0.080 A 
ATOM     27  C   UNL A   1     -26.689  -1.820  30.763  0.00  0.00    +0.006 A 
BRANCH  26  28
ATOM     28  C   UNL A   1     -26.767  -0.708  33.006  0.00  0.00    +0.388 C 
ATOM     29  O   UNL A   1     -27.921  -0.794  33.037  0.00  0.00    -0.241 OA
ATOM     30  O   UNL A   1     -26.039  -0.072  33.860  0.00  0.00    -0.241 OA
ENDBRANCH  26  28
BRANCH  25  31
ATOM     31  C   UNL A   1     -25.752  -3.670  29.593  0.00  0.00    -0.005 C 
ATOM     32  C   UNL A   1     -24.818  -4.287  28.923  0.00  0.00    -0.026 C 
ATOM     33  C   UNL A   1     -24.668  -5.625  28.980  0.00  0.00    +0.031 C 
ENDBRANCH  25  31
ENDBRANCH  21  23
ENDBRANCH  20  21
ENDBRANCH   1  20
TORSDOF 7
ENDMDL
ENDMDL
