REMARK  Name = No_450-gen_results/8p0m/2024-11-26-14-13-15/
REMARK  1 active torsions:
REMARK  status: ('A' for Active; 'I' for Inactive)
REMARK    1  A    between atoms: C_1  and  C_8
REMARK                            x       y       z     vdW  Elec       q    Type
REMARK                         _______ _______ _______ _____ _____    ______ ____
ROOT
ATOM      1  C   UNL A   1     -28.016  -0.814  28.878  0.00  0.00    +0.029 C 
ATOM      2  C   UNL A   1     -27.064  -0.119  28.608  0.00  0.00    +0.041 C 
ATOM      3  C   UNL A   1     -26.972   0.714  27.506  0.00  0.00    +0.231 C 
ATOM      4  C   UNL A   1     -25.820   1.491  27.116  0.00  0.00    +0.224 C 
ATOM      5  C   UNL A   1     -24.656   1.424  27.918  0.00  0.00    +0.165 C 
ATOM      6  C   UNL A   1     -24.685   0.590  29.066  0.00  0.00    -0.009 A 
ATOM      7  C   UNL A   1     -25.810  -0.127  29.334  0.00  0.00    -0.000 A 
ATOM      8  C   UNL A   1     -23.492   2.241  27.620  0.00  0.00    +0.253 C 
ATOM      9  N   UNL A   1     -22.496   2.192  28.499  0.00  0.00    -0.200 NA
ATOM     10  O   UNL A   1     -23.399   2.898  26.578  0.00  0.00    -0.273 OA
ATOM     11  C   UNL A   1     -25.707  -1.016  30.544  0.00  0.00    -0.000 A 
ATOM     12  C   UNL A   1     -24.495  -1.310  30.937  0.00  0.00    -0.000 A 
ATOM     13  C   UNL A   1     -23.329  -0.465  30.619  0.00  0.00    -0.003 A 
ATOM     14  C   UNL A   1     -23.334   0.424  29.575  0.00  0.00    -0.004 A 
ATOM     15  C   UNL A   1     -22.301   1.281  29.331  0.00  0.00    +0.141 C 
ATOM     16  O   UNL A   1     -25.971   2.293  26.124  0.00  0.00    -0.287 OA
ATOM     17  O   UNL A   1     -28.044   0.863  26.747  0.00  0.00    -0.283 OA
ENDROOT
BRANCH   1  18
ATOM     18  C   UNL A   1     -29.218  -0.042  29.313  0.00  0.00    +0.262 C 
ATOM     19 CL   UNL A   1     -29.468   0.452  30.467  0.00  0.00    -0.072 Cl
ATOM     20  F   UNL A   1     -30.086  -0.071  28.268  0.00  0.00    -0.214 F 
ENDBRANCH   1  18
TORSDOF 1
