REMARK  Name = No_4500-gen_results/8p0m/2024-11-26-14-13-15/
REMARK  5 active torsions:
REMARK  status: ('A' for Active; 'I' for Inactive)
REMARK    1  A    between atoms: C_2  and  O_7
REMARK    2  A    between atoms: C_4  and  C_9
REMARK    3  A    between atoms: C_10  and  C_13
REMARK    4  A    between atoms: C_13  and  O_17
REMARK    5  A    between atoms: O_17  and  C_18
REMARK                            x       y       z     vdW  Elec       q    Type
REMARK                         _______ _______ _______ _____ _____    ______ ____
ROOT
ATOM      1  C   UNL A   1     -24.505   0.391  29.434  0.00  0.00    +0.006 A 
ATOM      2  C   UNL A   1     -24.081   1.769  29.581  0.00  0.00    +0.076 A 
ATOM      3  C   UNL A   1     -23.483  -0.505  29.135  0.00  0.00    +0.000 A 
ATOM      4  C   UNL A   1     -22.191  -0.104  28.804  0.00  0.00    +0.000 A 
ATOM      5  C   UNL A   1     -21.840   1.222  28.622  0.00  0.00    +0.000 A 
ATOM      6  C   UNL A   1     -22.789   2.196  29.123  0.00  0.00    +0.006 A 
ENDROOT
BRANCH   1  10
ATOM      7  C   UNL A   1     -28.016  -0.814  28.878  0.00  0.00    +0.037 A 
ATOM      8  C   UNL A   1     -28.469  -0.785  29.829  0.00  0.00    +0.139 A 
ATOM      9  C   UNL A   1     -26.504  -0.778  28.877  0.00  0.00    +0.003 A 
ATOM     10  C   UNL A   1     -25.950   0.116  29.405  0.00  0.00    +0.000 A 
ATOM     11  C   UNL A   1     -27.996   0.119  30.953  0.00  0.00    +0.037 A 
ATOM     12  C   UNL A   1     -26.604   0.465  30.803  0.00  0.00    +0.003 A 
BRANCH   8  13
ATOM     13  O   UNL A   1     -29.846  -1.011  30.048  0.00  0.00    -0.471 OA
ATOM     14  C   UNL A   1     -30.120  -2.228  30.572  0.00  0.00    +0.253 C 
ENDBRANCH   8  13
ENDBRANCH   1  10
BRANCH   2  15
ATOM     15  C   UNL A   1     -25.144   2.733  29.884  0.00  0.00    +0.341 C 
ATOM     16  O   UNL A   1     -24.782   3.896  29.889  0.00  0.00    -0.245 OA
BRANCH  15  17
ATOM     17  O   UNL A   1     -26.283   2.417  30.139  0.00  0.00    -0.445 OA
BRANCH  17  18
ATOM     18  C   UNL A   1     -27.158   3.613  30.113  0.00  0.00    +0.209 C 
ATOM     19  C   UNL A   1     -26.747   4.418  29.184  0.00  0.00    +0.051 C 
ENDBRANCH  17  18
ENDBRANCH  15  17
ENDBRANCH   2  15
TORSDOF 5
