MODEL 4501
MODEL 1
REMARK VINA RESULT:    -6.718      0.000      0.000
REMARK INTER + INTRA:         -13.215
REMARK INTER:                  -9.860
REMARK INTRA:                  -3.355
REMARK UNBOUND:                -3.355
REMARK  Name = No_4501-gen_results/8p0m/2024-11-26-14-13-15/
REMARK  8 active torsions:
REMARK  status: ('A' for Active; 'I' for Inactive)
REMARK    1  A    between atoms: C_2  and  C_11
REMARK    2  A    between atoms: C_3  and  C_7
REMARK    3  A    between atoms: C_14  and  C_15
REMARK    4  A    between atoms: C_15  and  C_17
REMARK    5  A    between atoms: C_22  and  C_24
REMARK    6  A    between atoms: C_28  and  N_29
REMARK    7  A    between atoms: N_29  and  C_31
REMARK    8  A    between atoms: C_32  and  C_33
REMARK                            x       y       z     vdW  Elec       q    Type
REMARK                         _______ _______ _______ _____ _____    ______ ____
ROOT
ATOM      1  C   UNL A   1     -22.332 -18.616   5.078  0.00  0.00    -0.011 A 
ATOM      2  C   UNL A   1     -22.726 -17.640   4.355  0.00  0.00    -0.004 A 
ATOM      3  C   UNL A   1     -24.043 -16.940   4.618  0.00  0.00    +0.002 A 
ATOM      4  C   UNL A   1     -24.850 -17.524   5.621  0.00  0.00    +0.030 A 
ATOM      5  C   UNL A   1     -24.399 -18.600   6.358  0.00  0.00    +0.140 A 
ATOM      6  C   UNL A   1     -23.198 -19.178   6.087  0.00  0.00    +0.024 A 
ATOM      7  F   UNL A   1     -25.231 -19.082   7.272  0.00  0.00    -0.204 F 
ENDROOT
BRANCH   6   8
ATOM      8  C   UNL A   1     -22.760 -20.275   6.948  0.00  0.00    +0.002 A 
ATOM      9  C   UNL A   1     -22.040 -20.078   8.082  0.00  0.00    +0.001 A 
ATOM     10  C   UNL A   1     -23.139 -21.619   6.584  0.00  0.00    +0.001 A 
ATOM     11  C   UNL A   1     -21.603 -21.102   8.877  0.00  0.00    +0.017 A 
ATOM     12  C   UNL A   1     -21.884 -22.457   8.467  0.00  0.00    +0.070 A 
ATOM     13  C   UNL A   1     -22.655 -22.609   7.305  0.00  0.00    +0.017 A 
BRANCH  12  14
ATOM     14  N   UNL A   1     -21.509 -23.446   9.236  0.00  0.00    -0.211 NA
BRANCH  14  15
ATOM     15  C   UNL A   1     -20.622 -24.463   8.890  0.00  0.00    +0.086 C 
ATOM     16  C   UNL A   1     -19.242 -24.313   8.925  0.00  0.00    +0.018 C 
BRANCH  16  17
ATOM     17  C   UNL A   1     -18.429 -25.339   8.405  0.00  0.00    +0.001 C 
ATOM     18  C   UNL A   1     -18.282 -25.544   7.052  0.00  0.00    +0.000 C 
ENDBRANCH  16  17
ENDBRANCH  14  15
ENDBRANCH  12  14
ENDBRANCH   6   8
BRANCH   1  19
ATOM     19  C   UNL A   1     -21.087 -19.273   4.812  0.00  0.00    +0.114 C 
BRANCH  19  23
ATOM     20  C   UNL A   1     -19.012 -20.926   5.673  0.00  0.00    +0.271 C 
ATOM     21  O   UNL A   1     -19.876 -21.511   5.384  0.00  0.00    -0.268 OA
ATOM     22  N   UNL A   1     -18.967 -19.541   5.734  0.00  0.00    -0.141 NA
ATOM     23  C   UNL A   1     -20.173 -18.730   5.458  0.00  0.00    +0.253 C 
ATOM     24  O   UNL A   1     -20.083 -17.612   5.995  0.00  0.00    -0.273 OA
BRANCH  20  26
ATOM     25  C   UNL A   1     -17.452 -21.717   7.214  0.00  0.00    +0.008 A 
ATOM     26  C   UNL A   1     -17.742 -21.764   6.202  0.00  0.00    +0.055 A 
ATOM     27  C   UNL A   1     -16.275 -22.398   7.595  0.00  0.00    +0.072 A 
ATOM     28  C   UNL A   1     -15.522 -23.118   6.688  0.00  0.00    +0.004 A 
ATOM     29  C   UNL A   1     -17.125 -22.448   5.048  0.00  0.00    +0.005 A 
ATOM     30  C   UNL A   1     -15.994 -23.114   5.370  0.00  0.00    +0.000 A 
BRANCH  27  31
ATOM     31  C   UNL A   1     -15.734 -22.381   8.995  0.00  0.00    +0.419 C 
ATOM     32  F   UNL A   1     -14.711 -21.625   8.979  0.00  0.00    -0.166 F 
ATOM     33  F   UNL A   1     -16.653 -21.943   9.853  0.00  0.00    -0.166 F 
ATOM     34  F   UNL A   1     -15.278 -23.610   9.371  0.00  0.00    -0.166 F 
ENDBRANCH  27  31
ENDBRANCH  20  26
ENDBRANCH  19  23
ENDBRANCH   1  19
TORSDOF 8
ENDMDL
ENDMDL
