REMARK  Name = No_4502-gen_results/8p0m/2024-11-26-14-13-15/
REMARK  2 active torsions:
REMARK  status: ('A' for Active; 'I' for Inactive)
REMARK    1  A    between atoms: N_3  and  C_14
REMARK    2  A    between atoms: C_14  and  C_15
REMARK                            x       y       z     vdW  Elec       q    Type
REMARK                         _______ _______ _______ _____ _____    ______ ____
ROOT
ATOM      1  C   UNL A   1     -29.305   0.356  30.577  0.00  0.00    -0.002 A 
ATOM      2  C   UNL A   1     -29.844   1.388  30.048  0.00  0.00    -0.003 A 
ATOM      3  C   UNL A   1     -31.234   1.609  29.737  0.00  0.00    -0.000 A 
ATOM      4  C   UNL A   1     -32.075   0.591  30.205  0.00  0.00    -0.000 A 
ATOM      5  C   UNL A   1     -31.634  -0.548  30.779  0.00  0.00    -0.004 A 
ATOM      6  C   UNL A   1     -30.309  -0.719  31.013  0.00  0.00    -0.003 A 
ATOM      7  C   UNL A   1     -33.564   0.819  30.017  0.00  0.00    +0.000 A 
ATOM      8  C   UNL A   1     -34.318  -0.032  29.932  0.00  0.00    +0.004 A 
ATOM      9  C   UNL A   1     -34.003  -1.277  29.913  0.00  0.00    +0.051 A 
ATOM     10  C   UNL A   1     -34.888  -2.429  29.797  0.00  0.00    +0.267 C 
ATOM     11  C   UNL A   1     -32.646  -1.712  30.289  0.00  0.00    -0.013 A 
ATOM     12  O   UNL A   1     -35.910  -2.469  29.369  0.00  0.00    -0.268 OA
ATOM     13  N   UNL A   1     -34.335  -3.725  30.170  0.00  0.00    -0.173 NA
ATOM     14  C   UNL A   1     -33.161  -4.036  30.703  0.00  0.00    +0.215 C 
ATOM     15  C   UNL A   1     -32.189  -2.976  30.753  0.00  0.00    +0.080 C 
ATOM     16  F   UNL A   1     -33.130  -4.838  31.561  0.00  0.00    -0.217 F 
ATOM     17  C   UNL A   1     -32.407  -4.573  29.437  0.00  0.00    +0.059 C 
ENDROOT
BRANCH   1  18
ATOM     18  C   UNL A   1     -28.222   0.123  30.756  0.00  0.00    +0.128 C 
BRANCH  18  21
ATOM     19  O   UNL A   1     -28.123  -1.335  28.487  0.00  0.00    -0.274 OA
ATOM     20  C   UNL A   1     -27.481  -0.404  28.709  0.00  0.00    +0.236 C 
ATOM     21  N   UNL A   1     -27.241   0.391  29.510  0.00  0.00    -0.222 N 
ATOM     22  C   UNL A   1     -26.407  -0.107  27.450  0.00  0.00    +0.112 C 
ATOM     23  C   UNL A   1     -25.436   0.847  27.634  0.00  0.00    -0.006 A 
ATOM     24  C   UNL A   1     -25.429   1.663  28.735  0.00  0.00    +0.051 A 
ATOM     25  C   UNL A   1     -26.310   1.358  29.762  0.00  0.00    +0.255 C 
ATOM     26  C   UNL A   1     -24.501   1.124  26.523  0.00  0.00    +0.026 A 
ATOM     27  C   UNL A   1     -23.376   1.946  26.792  0.00  0.00    +0.140 A 
ATOM     28  C   UNL A   1     -23.318   2.651  28.061  0.00  0.00    +0.030 A 
ATOM     29  C   UNL A   1     -24.270   2.505  28.935  0.00  0.00    +0.006 A 
ATOM     30  O   UNL A   1     -26.302   2.029  30.858  0.00  0.00    -0.270 OA
ATOM     31  F   UNL A   1     -22.469   2.211  25.897  0.00  0.00    -0.204 F 
ENDBRANCH  18  21
ENDBRANCH   1  18
TORSDOF 2
