MODEL 4502
MODEL 1
REMARK VINA RESULT:    -8.827      0.000      0.000
REMARK INTER + INTRA:          -9.596
REMARK INTER:                  -9.859
REMARK INTRA:                   0.262
REMARK UNBOUND:                 0.262
REMARK  Name = No_4502-gen_results/8p0m/2024-11-26-14-13-15/
REMARK  2 active torsions:
REMARK  status: ('A' for Active; 'I' for Inactive)
REMARK    1  A    between atoms: N_3  and  C_14
REMARK    2  A    between atoms: C_14  and  C_15
REMARK                            x       y       z     vdW  Elec       q    Type
REMARK                         _______ _______ _______ _____ _____    ______ ____
ROOT
ATOM      1  C   UNL A   1     -27.332   1.594  26.434  0.00  0.00    -0.002 A 
ATOM      2  C   UNL A   1     -26.849   2.697  26.005  0.00  0.00    -0.003 A 
ATOM      3  C   UNL A   1     -25.465   3.086  25.902  0.00  0.00    -0.000 A 
ATOM      4  C   UNL A   1     -24.574   2.047  26.203  0.00  0.00    -0.000 A 
ATOM      5  C   UNL A   1     -24.954   0.838  26.666  0.00  0.00    -0.004 A 
ATOM      6  C   UNL A   1     -26.272   0.540  26.780  0.00  0.00    -0.003 A 
ATOM      7  C   UNL A   1     -23.102   2.353  25.999  0.00  0.00    +0.000 A 
ATOM      8  C   UNL A   1     -22.271   1.827  26.575  0.00  0.00    +0.004 A 
ATOM      9  C   UNL A   1     -22.471   0.969  27.510  0.00  0.00    +0.051 A 
ATOM     10  C   UNL A   1     -21.481   0.256  28.307  0.00  0.00    +0.267 C 
ATOM     11  C   UNL A   1     -23.809   0.385  27.716  0.00  0.00    -0.013 A 
ATOM     12  O   UNL A   1     -20.430   0.543  28.513  0.00  0.00    -0.268 OA
ATOM     13  N   UNL A   1     -21.943  -0.920  29.034  0.00  0.00    -0.173 NA
ATOM     14  C   UNL A   1     -23.122  -1.528  29.021  0.00  0.00    +0.215 C 
ATOM     15  C   UNL A   1     -24.185  -0.833  28.346  0.00  0.00    +0.080 C 
ATOM     16  F   UNL A   1     -23.145  -2.703  29.000  0.00  0.00    -0.217 F 
ATOM     17  C   UNL A   1     -23.727  -1.002  30.369  0.00  0.00    +0.059 C 
ENDROOT
BRANCH   1  18
ATOM     18  C   UNL A   1     -28.401   1.294  26.602  0.00  0.00    +0.128 C 
BRANCH  18  21
ATOM     19  O   UNL A   1     -28.235  -0.296  24.428  0.00  0.00    -0.274 OA
ATOM     20  C   UNL A   1     -29.016   0.536  24.586  0.00  0.00    +0.236 C 
ATOM     21  N   UNL A   1     -29.352   1.371  25.307  0.00  0.00    -0.222 N 
ATOM     22  C   UNL A   1     -30.011   0.683  23.238  0.00  0.00    +0.112 C 
ATOM     23  C   UNL A   1     -30.871   1.752  23.178  0.00  0.00    -0.006 A 
ATOM     24  C   UNL A   1     -31.053   2.590  24.247  0.00  0.00    +0.051 A 
ATOM     25  C   UNL A   1     -30.186   2.453  25.322  0.00  0.00    +0.255 C 
ATOM     26  C   UNL A   1     -31.760   1.876  22.003  0.00  0.00    +0.026 A 
ATOM     27  C   UNL A   1     -32.484   3.086  21.844  0.00  0.00    +0.140 A 
ATOM     28  C   UNL A   1     -32.495   4.039  22.940  0.00  0.00    +0.030 A 
ATOM     29  C   UNL A   1     -31.831   3.790  24.031  0.00  0.00    +0.006 A 
ATOM     30  O   UNL A   1     -30.245   3.257  26.322  0.00  0.00    -0.270 OA
ATOM     31  F   UNL A   1     -33.255   3.314  20.821  0.00  0.00    -0.204 F 
ENDBRANCH  18  21
ENDBRANCH   1  18
TORSDOF 2
ENDMDL
ENDMDL
