MODEL 4503
MODEL 1
REMARK VINA RESULT:    -6.999      0.000      0.000
REMARK INTER + INTRA:          -9.311
REMARK INTER:                  -8.636
REMARK INTRA:                  -0.675
REMARK UNBOUND:                -0.675
REMARK  Name = No_4503-gen_results/8p0m/2024-11-26-14-13-15/
REMARK  4 active torsions:
REMARK  status: ('A' for Active; 'I' for Inactive)
REMARK    1  A    between atoms: C_3  and  C_4
REMARK    2  A    between atoms: C_7  and  C_13
REMARK    3  A    between atoms: C_12  and  O_22
REMARK    4  A    between atoms: N_15  and  C_16
REMARK                            x       y       z     vdW  Elec       q    Type
REMARK                         _______ _______ _______ _____ _____    ______ ____
ROOT
ATOM      1  C   UNL A   1     -10.851   1.287  36.789  0.00  0.00    +0.005 A 
ATOM      2  C   UNL A   1     -11.870   1.766  37.230  0.00  0.00    +0.000 A 
ATOM      3  C   UNL A   1     -12.838   2.297  36.385  0.00  0.00    +0.000 A 
ATOM      4  C   UNL A   1     -10.503   1.428  35.362  0.00  0.00    +0.055 A 
ATOM      5  C   UNL A   1     -11.431   1.866  34.457  0.00  0.00    +0.005 A 
ATOM      6  C   UNL A   1     -12.672   2.388  34.930  0.00  0.00    +0.000 A 
ENDROOT
BRANCH   3   7
ATOM      7  C   UNL A   1     -14.125   2.921  36.804  0.00  0.00    +0.003 A 
ATOM      8  C   UNL A   1     -15.164   3.367  35.914  0.00  0.00    +0.000 A 
ATOM      9  C   UNL A   1     -16.343   3.886  36.390  0.00  0.00    +0.003 A 
ATOM     10  C   UNL A   1     -16.735   3.835  37.707  0.00  0.00    +0.037 A 
ATOM     11  C   UNL A   1     -14.542   2.885  38.210  0.00  0.00    +0.037 A 
ATOM     12  C   UNL A   1     -15.810   3.355  38.609  0.00  0.00    +0.139 A 
BRANCH  12  13
ATOM     13  O   UNL A   1     -16.087   3.274  39.922  0.00  0.00    -0.471 OA
ATOM     14  C   UNL A   1     -17.143   2.391  40.275  0.00  0.00    +0.253 C 
ENDBRANCH  12  13
ENDBRANCH   3   7
BRANCH   4  15
ATOM     15  C   UNL A   1      -9.228   0.934  34.796  0.00  0.00    +0.269 C 
ATOM     16  O   UNL A   1      -8.929   1.158  33.757  0.00  0.00    -0.268 OA
ATOM     17  N   UNL A   1      -8.439   0.150  35.631  0.00  0.00    -0.175 NA
BRANCH  17  18
ATOM     18  C   UNL A   1      -7.170  -0.395  35.222  0.00  0.00    +0.074 A 
ATOM     19  C   UNL A   1      -6.107   0.357  35.469  0.00  0.00    +0.017 A 
ATOM     20  C   UNL A   1      -4.940  -0.147  35.298  0.00  0.00    +0.001 A 
ATOM     21  C   UNL A   1      -4.783  -1.466  34.692  0.00  0.00    +0.000 A 
ATOM     22  C   UNL A   1      -5.916  -2.230  34.449  0.00  0.00    +0.001 A 
ATOM     23  C   UNL A   1      -7.168  -1.674  34.715  0.00  0.00    +0.017 A 
ENDBRANCH  17  18
ENDBRANCH   4  15
TORSDOF 4
ENDMDL
ENDMDL
