REMARK  Name = No_4503-gen_results/8p0m/2024-11-26-14-13-15/
REMARK  4 active torsions:
REMARK  status: ('A' for Active; 'I' for Inactive)
REMARK    1  A    between atoms: C_3  and  C_4
REMARK    2  A    between atoms: C_7  and  C_13
REMARK    3  A    between atoms: C_12  and  O_22
REMARK    4  A    between atoms: N_15  and  C_16
REMARK                            x       y       z     vdW  Elec       q    Type
REMARK                         _______ _______ _______ _____ _____    ______ ____
ROOT
ATOM      1  C   UNL A   1     -28.016  -0.814  28.878  0.00  0.00    +0.005 A 
ATOM      2  C   UNL A   1     -27.064  -0.119  28.608  0.00  0.00    +0.000 A 
ATOM      3  C   UNL A   1     -25.792  -0.430  29.076  0.00  0.00    +0.000 A 
ATOM      4  C   UNL A   1     -27.905  -1.898  29.873  0.00  0.00    +0.055 A 
ATOM      5  C   UNL A   1     -26.680  -2.314  30.318  0.00  0.00    +0.005 A 
ATOM      6  C   UNL A   1     -25.520  -1.556  29.977  0.00  0.00    +0.000 A 
ENDROOT
BRANCH   3   7
ATOM      7  C   UNL A   1     -24.546   0.349  28.823  0.00  0.00    +0.003 A 
ATOM      8  C   UNL A   1     -23.241   0.022  29.332  0.00  0.00    +0.000 A 
ATOM      9  C   UNL A   1     -22.136   0.769  29.006  0.00  0.00    +0.003 A 
ATOM     10  C   UNL A   1     -22.116   1.734  28.026  0.00  0.00    +0.037 A 
ATOM     11  C   UNL A   1     -24.522   1.391  27.791  0.00  0.00    +0.037 A 
ATOM     12  C   UNL A   1     -23.325   2.052  27.447  0.00  0.00    +0.139 A 
BRANCH  12  13
ATOM     13  O   UNL A   1     -23.418   2.989  26.488  0.00  0.00    -0.471 OA
ATOM     14  C   UNL A   1     -24.720   3.204  25.960  0.00  0.00    +0.253 C 
ENDBRANCH  12  13
ENDBRANCH   3   7
BRANCH   4  15
ATOM     15  C   UNL A   1     -29.062  -2.717  30.297  0.00  0.00    +0.269 C 
ATOM     16  O   UNL A   1     -30.101  -2.402  30.094  0.00  0.00    -0.268 OA
ATOM     17  N   UNL A   1     -28.775  -3.889  30.988  0.00  0.00    -0.175 NA
BRANCH  17  18
ATOM     18  C   UNL A   1     -29.796  -4.790  31.457  0.00  0.00    +0.074 A 
ATOM     19  C   UNL A   1     -30.720  -4.262  32.246  0.00  0.00    +0.017 A 
ATOM     20  C   UNL A   1     -31.751  -4.963  32.546  0.00  0.00    +0.001 A 
ATOM     21  C   UNL A   1     -31.831  -6.369  32.159  0.00  0.00    +0.000 A 
ATOM     22  C   UNL A   1     -30.849  -6.891  31.328  0.00  0.00    +0.001 A 
ATOM     23  C   UNL A   1     -29.777  -6.075  30.964  0.00  0.00    +0.017 A 
ENDBRANCH  17  18
ENDBRANCH   4  15
TORSDOF 4
