MODEL 4504
MODEL 1
REMARK VINA RESULT:    -5.409      0.000      0.000
REMARK INTER + INTRA:          -6.301
REMARK INTER:                  -6.041
REMARK INTRA:                  -0.259
REMARK UNBOUND:                -0.259
REMARK  Name = No_4504-gen_results/8p0m/2024-11-26-14-13-15/
REMARK  2 active torsions:
REMARK  status: ('A' for Active; 'I' for Inactive)
REMARK    1  A    between atoms: C_3  and  C_4
REMARK    2  A    between atoms: C_4  and  C_8
REMARK                            x       y       z     vdW  Elec       q    Type
REMARK                         _______ _______ _______ _____ _____    ______ ____
ROOT
ATOM      1  C   UNL A   1     -25.072  -5.122  29.207  0.00  0.00    -0.000 A 
ATOM      2  C   UNL A   1     -24.198  -4.335  28.926  0.00  0.00    -0.004 A 
ATOM      3  C   UNL A   1     -24.339  -2.978  29.195  0.00  0.00    -0.018 A 
ATOM      4  C   UNL A   1     -26.392  -4.636  29.617  0.00  0.00    -0.000 A 
ATOM      5  C   UNL A   1     -26.594  -3.333  29.997  0.00  0.00    -0.000 A 
ATOM      6  C   UNL A   1     -25.547  -2.435  29.775  0.00  0.00    -0.004 A 
ENDROOT
BRANCH   3   7
ATOM      7  C   UNL A   1     -23.316  -2.025  28.952  0.00  0.00    +0.052 C 
BRANCH   7   8
ATOM      8  C   UNL A   1     -23.542  -0.700  28.779  0.00  0.00    -0.026 C 
ATOM      9  C   UNL A   1     -22.472   0.226  28.676  0.00  0.00    -0.030 C 
ATOM     10  C   UNL A   1     -21.144  -0.156  28.690  0.00  0.00    +0.030 C 
ENDBRANCH   7   8
ENDBRANCH   3   7
TORSDOF 2
ENDMDL
ENDMDL
