MODEL 4505
MODEL 1
REMARK VINA RESULT:    -4.874      0.000      0.000
REMARK INTER + INTRA:          -5.208
REMARK INTER:                  -5.159
REMARK INTRA:                  -0.049
REMARK UNBOUND:                -0.049
REMARK  Name = No_4505-gen_results/8p0m/2024-11-26-14-13-15/
REMARK  1 active torsions:
REMARK  status: ('A' for Active; 'I' for Inactive)
REMARK    1  A    between atoms: C_1  and  C_8
REMARK                            x       y       z     vdW  Elec       q    Type
REMARK                         _______ _______ _______ _____ _____    ______ ____
ROOT
ATOM      1  C   UNL A   1     -23.334  -1.955  28.919  0.00  0.00    -0.014 C 
ATOM      2  C   UNL A   1     -24.148  -2.820  29.145  0.00  0.00    -0.047 C 
ATOM      3  C   UNL A   1     -24.015  -4.151  28.791  0.00  0.00    +0.022 C 
ATOM      4  C   UNL A   1     -25.004  -5.187  28.974  0.00  0.00    +0.004 C 
ATOM      5  C   UNL A   1     -26.238  -4.845  29.576  0.00  0.00    +0.001 C 
ATOM      6  C   UNL A   1     -26.437  -3.495  29.967  0.00  0.00    +0.004 C 
ATOM      7  C   UNL A   1     -25.455  -2.585  29.725  0.00  0.00    +0.022 C 
ENDROOT
BRANCH   1   8
ATOM      8  C   UNL A   1     -23.526  -0.582  29.500  0.00  0.00    +0.135 C 
ATOM      9  N   UNL A   1     -22.666  -0.057  30.357  0.00  0.00    -0.126 NA
ENDBRANCH   1   8
TORSDOF 1
ENDMDL
ENDMDL
