REMARK  Name = No_4506-gen_results/8p0m/2024-11-26-14-13-15/
REMARK  6 active torsions:
REMARK  status: ('A' for Active; 'I' for Inactive)
REMARK    1  A    between atoms: C_1  and  O_12
REMARK    2  A    between atoms: C_4  and  O_10
REMARK    3  A    between atoms: O_12  and  C_13
REMARK    4  A    between atoms: C_13  and  C_14
REMARK    5  A    between atoms: C_20  and  N_22
REMARK    6  A    between atoms: C_27  and  C_28
REMARK                            x       y       z     vdW  Elec       q    Type
REMARK                         _______ _______ _______ _____ _____    ______ ____
ROOT
ATOM      1  C   UNL A   1     -31.009   0.797  28.748  0.00  0.00    +0.329 C 
ATOM      2  O   UNL A   1     -31.802   1.312  29.371  0.00  0.00    -0.262 OA
ATOM      3  N   UNL A   1     -31.183   0.708  27.361  0.00  0.00    -0.247 N 
ATOM      4  C   UNL A   1     -30.551  -0.060  26.501  0.00  0.00    +0.065 C 
ATOM      5  C   UNL A   1     -31.754   1.872  26.657  0.00  0.00    +0.119 C 
ATOM      6  C   UNL A   1     -31.202  -0.077  25.114  0.00  0.00    +0.007 C 
ATOM      7  C   UNL A   1     -31.769   1.190  25.066  0.00  0.00    +0.102 C 
ENDROOT
BRANCH   7   8
ATOM      8  N   UNL A   1     -32.441   1.823  24.126  0.00  0.00    -0.269 NA
ATOM      9  C   UNL A   1     -32.260   1.721  22.910  0.00  0.00    +0.073 C 
ATOM     10  C   UNL A   1     -32.981   2.572  21.918  0.00  0.00    +0.023 C 
ATOM     11  C   UNL A   1     -33.155   3.061  24.334  0.00  0.00    +0.073 C 
ATOM     12  C   UNL A   1     -33.779   3.873  23.488  0.00  0.00    +0.023 C 
ATOM     13  C   UNL A   1     -33.597   3.659  22.173  0.00  0.00    +0.046 C 
BRANCH  13  14
ATOM     14  C   UNL A   1     -34.177   4.443  21.104  0.00  0.00    +0.095 C 
ATOM     15  N   UNL A   1     -33.951   4.267  19.896  0.00  0.00    -0.151 NA
ENDBRANCH  13  14
ENDBRANCH   7   8
BRANCH   1  16
ATOM     16  C   UNL A   1     -30.220  -0.096  29.364  0.00  0.00    +0.401 C 
ATOM     17  O   UNL A   1     -30.260  -0.367  30.564  0.00  0.00    -0.239 OA
BRANCH  16  18
ATOM     18  O   UNL A   1     -29.318  -0.583  28.544  0.00  0.00    -0.415 OA
BRANCH  18  19
ATOM     19  C   UNL A   1     -28.016  -0.814  28.878  0.00  0.00    +0.189 A 
ATOM     20  C   UNL A   1     -27.064  -0.119  28.608  0.00  0.00    +0.125 A 
ATOM     21  C   UNL A   1     -25.765  -0.390  29.036  0.00  0.00    +0.187 A 
ATOM     22  C   UNL A   1     -25.530  -1.530  29.901  0.00  0.00    +0.169 A 
ATOM     23  C   UNL A   1     -26.658  -2.292  30.203  0.00  0.00    +0.072 A 
ATOM     24  C   UNL A   1     -27.855  -1.956  29.763  0.00  0.00    +0.178 A 
ATOM     25  F   UNL A   1     -24.699   0.359  28.778  0.00  0.00    -0.200 F 
ATOM     26  F   UNL A   1     -28.906  -2.736  30.081  0.00  0.00    -0.201 F 
ATOM     27 CL   UNL A   1     -27.204   1.320  27.608  0.00  0.00    -0.076 Cl
BRANCH  22  28
ATOM     28  O   UNL A   1     -24.275  -1.860  30.244  0.00  0.00    -0.469 OA
ATOM     29  C   UNL A   1     -23.320  -2.146  29.419  0.00  0.00    +0.253 C 
ENDBRANCH  22  28
ENDBRANCH  18  19
ENDBRANCH  16  18
ENDBRANCH   1  16
TORSDOF 6
