MODEL 4507
MODEL 1
REMARK VINA RESULT:    -6.567      0.000      0.000
REMARK INTER + INTRA:          -9.924
REMARK INTER:                  -8.487
REMARK INTRA:                  -1.437
REMARK UNBOUND:                -1.437
REMARK  Name = No_4507-gen_results/8p0m/2024-11-26-14-13-15/
REMARK  5 active torsions:
REMARK  status: ('A' for Active; 'I' for Inactive)
REMARK    1  A    between atoms: C_2  and  C_13
REMARK    2  A    between atoms: C_3  and  O_16
REMARK    3  A    between atoms: C_4  and  C_7
REMARK    4  A    between atoms: O_16  and  C_17
REMARK    5  A    between atoms: C_17  and  C_18
REMARK                            x       y       z     vdW  Elec       q    Type
REMARK                         _______ _______ _______ _____ _____    ______ ____
ROOT
ATOM      1  C   UNL A   1     -23.137   1.488  27.613  0.00  0.00    +0.043 A 
ATOM      2  C   UNL A   1     -23.621   1.475  26.676  0.00  0.00    +0.083 A 
ATOM      3  C   UNL A   1     -23.514   0.430  28.564  0.00  0.00    +0.139 A 
ATOM      4  C   UNL A   1     -24.383  -0.627  28.165  0.00  0.00    +0.034 A 
ATOM      5  C   UNL A   1     -24.888  -0.543  26.892  0.00  0.00    +0.003 A 
ATOM      6  C   UNL A   1     -24.528   0.465  26.069  0.00  0.00    +0.007 A 
ENDROOT
BRANCH   4   7
ATOM      7  C   UNL A   1     -24.744  -1.684  29.092  0.00  0.00    +0.003 A 
ATOM      8  C   UNL A   1     -25.854  -2.220  29.231  0.00  0.00    +0.000 A 
ATOM      9  C   UNL A   1     -26.118  -3.415  30.039  0.00  0.00    +0.000 A 
ATOM     10  C   UNL A   1     -23.850  -2.931  29.095  0.00  0.00    +0.000 A 
ATOM     11  C   UNL A   1     -24.090  -4.015  28.671  0.00  0.00    +0.000 A 
ATOM     12  C   UNL A   1     -25.427  -4.524  29.268  0.00  0.00    +0.000 A 
ENDBRANCH   4   7
BRANCH   2  13
ATOM     13  C   UNL A   1     -23.274   2.625  25.631  0.00  0.00    +0.388 C 
ATOM     14  O   UNL A   1     -24.049   3.429  25.545  0.00  0.00    -0.241 OA
ATOM     15  O   UNL A   1     -22.406   2.430  24.689  0.00  0.00    -0.241 OA
ENDBRANCH   2  13
BRANCH   3  16
ATOM     16  O   UNL A   1     -23.084   0.564  29.857  0.00  0.00    -0.475 OA
BRANCH  16  17
ATOM     17  C   UNL A   1     -23.917   1.080  30.888  0.00  0.00    +0.188 C 
ATOM     18  C   UNL A   1     -24.830   2.155  30.573  0.00  0.00    +0.052 C 
BRANCH  17  19
ATOM     19  C   UNL A   1     -24.032   0.554  32.058  0.00  0.00    +0.012 C 
ATOM     20  C   UNL A   1     -25.195  -0.090  32.426  0.00  0.00    -0.027 C 
ATOM     21  C   UNL A   1     -25.547  -0.526  33.777  0.00  0.00    +0.030 C 
ENDBRANCH  17  19
ENDBRANCH  16  17
ENDBRANCH   3  16
TORSDOF 5
ENDMDL
ENDMDL
