MODEL 4508
MODEL 1
REMARK VINA RESULT:    -6.977      0.000      0.000
REMARK INTER + INTRA:          -9.587
REMARK INTER:                  -8.608
REMARK INTRA:                  -0.978
REMARK UNBOUND:                -0.978
REMARK  Name = No_4508-gen_results/8p0m/2024-11-26-14-13-15/
REMARK  4 active torsions:
REMARK  status: ('A' for Active; 'I' for Inactive)
REMARK    1  A    between atoms: C_3  and  C_4
REMARK    2  A    between atoms: C_4  and  C_8
REMARK    3  A    between atoms: C_8  and  C_9
REMARK    4  A    between atoms: C_8  and  C_15
REMARK                            x       y       z     vdW  Elec       q    Type
REMARK                         _______ _______ _______ _____ _____    ______ ____
ROOT
ATOM      1  C   UNL A   1     -23.111  -0.823  29.374  0.00  0.00    +0.027 C 
ENDROOT
BRANCH   1   2
ATOM      2  C   UNL A   1     -23.207   0.013  28.294  0.00  0.00    -0.022 A 
ATOM      3  C   UNL A   1     -24.234   0.346  27.481  0.00  0.00    -0.004 A 
ATOM      4  C   UNL A   1     -24.261   1.396  26.552  0.00  0.00    -0.000 A 
ATOM      5  C   UNL A   1     -23.094   2.121  26.354  0.00  0.00    -0.000 A 
ATOM      6  C   UNL A   1     -21.941   0.848  28.085  0.00  0.00    -0.004 A 
ATOM      7  C   UNL A   1     -21.945   1.861  27.120  0.00  0.00    -0.000 A 
ENDBRANCH   1   2
BRANCH   1   8
ATOM      8  C   UNL A   1     -23.088  -0.449  30.683  0.00  0.00    +0.005 C 
ATOM      9  C   UNL A   1     -23.863   0.571  31.146  0.00  0.00    +0.000 C 
ENDBRANCH   1   8
BRANCH   1  10
ATOM     10  C   UNL A   1     -23.100  -2.229  28.978  0.00  0.00    +0.031 C 
BRANCH  10  13
ATOM     11  C   UNL A   1     -25.626  -2.390  29.712  0.00  0.00    -0.004 A 
ATOM     12  C   UNL A   1     -26.370  -3.098  29.951  0.00  0.00    -0.000 A 
ATOM     13  C   UNL A   1     -24.314  -2.965  29.227  0.00  0.00    -0.022 A 
ATOM     14  C   UNL A   1     -26.467  -4.541  29.697  0.00  0.00    -0.000 A 
ATOM     15  C   UNL A   1     -25.315  -5.135  29.227  0.00  0.00    -0.000 A 
ATOM     16  C   UNL A   1     -24.210  -4.375  28.944  0.00  0.00    -0.004 A 
ENDBRANCH  10  13
ENDBRANCH   1  10
TORSDOF 4
ENDMDL
ENDMDL
