MODEL 4509
MODEL 1
REMARK VINA RESULT:    -5.120      0.000      0.000
REMARK INTER + INTRA:          -6.008
REMARK INTER:                  -5.719
REMARK INTRA:                  -0.289
REMARK UNBOUND:                -0.289
REMARK  Name = No_4509-gen_results/8p0m/2024-11-26-14-13-15/
REMARK  2 active torsions:
REMARK  status: ('A' for Active; 'I' for Inactive)
REMARK    1  A    between atoms: C_2  and  C_4
REMARK    2  A    between atoms: C_4  and  C_5
REMARK                            x       y       z     vdW  Elec       q    Type
REMARK                         _______ _______ _______ _____ _____    ______ ____
ROOT
ATOM      1  C   UNL A   1     -24.555  -2.527  28.962  0.00  0.00    -0.018 A 
ATOM      2  C   UNL A   1     -23.926  -3.760  28.648  0.00  0.00    -0.004 A 
ATOM      3  C   UNL A   1     -24.557  -4.991  28.936  0.00  0.00    -0.000 A 
ATOM      4  C   UNL A   1     -25.855  -4.957  29.517  0.00  0.00    -0.000 A 
ATOM      5  C   UNL A   1     -26.458  -3.730  29.838  0.00  0.00    -0.000 A 
ATOM      6  C   UNL A   1     -25.815  -2.509  29.613  0.00  0.00    -0.004 A 
ENDROOT
BRANCH   1   7
ATOM      7  C   UNL A   1     -23.968  -1.350  28.757  0.00  0.00    +0.079 C 
BRANCH   7   9
ATOM      8 CL   UNL A   1     -22.773  -0.603  30.651  0.00  0.00    -0.076 Cl
ATOM      9  C   UNL A   1     -22.805  -1.033  29.507  0.00  0.00    +0.243 C 
ATOM     10  F   UNL A   1     -21.679  -1.247  28.930  0.00  0.00    -0.219 F 
ENDBRANCH   7   9
ENDBRANCH   1   7
TORSDOF 2
ENDMDL
ENDMDL
