REMARK  Name = No_4509-gen_results/8p0m/2024-11-26-14-13-15/
REMARK  2 active torsions:
REMARK  status: ('A' for Active; 'I' for Inactive)
REMARK    1  A    between atoms: C_2  and  C_4
REMARK    2  A    between atoms: C_4  and  C_5
REMARK                            x       y       z     vdW  Elec       q    Type
REMARK                         _______ _______ _______ _____ _____    ______ ____
ROOT
ATOM      1  C   UNL A   1     -30.128   1.089  31.098  0.00  0.00    -0.018 A 
ATOM      2  C   UNL A   1     -31.415   1.286  31.661  0.00  0.00    -0.004 A 
ATOM      3  C   UNL A   1     -31.639   2.294  32.626  0.00  0.00    -0.000 A 
ATOM      4  C   UNL A   1     -30.544   3.127  32.989  0.00  0.00    -0.000 A 
ATOM      5  C   UNL A   1     -29.271   2.909  32.436  0.00  0.00    -0.000 A 
ATOM      6  C   UNL A   1     -29.028   1.875  31.527  0.00  0.00    -0.004 A 
ENDROOT
BRANCH   1   7
ATOM      7  C   UNL A   1     -29.867   0.115  30.229  0.00  0.00    +0.079 C 
BRANCH   7   9
ATOM      8 CL   UNL A   1     -28.149  -0.820  28.908  0.00  0.00    -0.076 Cl
ATOM      9  C   UNL A   1     -28.532  -0.047  29.773  0.00  0.00    +0.243 C 
ATOM     10  F   UNL A   1     -27.651   0.717  30.309  0.00  0.00    -0.219 F 
ENDBRANCH   7   9
ENDBRANCH   1   7
TORSDOF 2
