MODEL 4510
MODEL 1
REMARK VINA RESULT:    -6.692      0.000      0.000
REMARK INTER + INTRA:          -7.422
REMARK INTER:                  -7.084
REMARK INTRA:                  -0.338
REMARK UNBOUND:                -0.338
REMARK  Name = No_4510-gen_results/8p0m/2024-11-26-14-13-15/
REMARK  1 active torsions:
REMARK  status: ('A' for Active; 'I' for Inactive)
REMARK    1  A    between atoms: C_2  and  C_7
REMARK                            x       y       z     vdW  Elec       q    Type
REMARK                         _______ _______ _______ _____ _____    ______ ____
ROOT
ATOM      1  C   UNL A   1     -24.486  -0.228  28.003  0.00  0.00    +0.000 A 
ATOM      2  C   UNL A   1     -24.054  -1.221  28.542  0.00  0.00    +0.000 A 
ATOM      3  C   UNL A   1     -22.767  -1.251  29.067  0.00  0.00    +0.000 A 
ATOM      4  C   UNL A   1     -21.890  -0.115  28.944  0.00  0.00    +0.000 A 
ATOM      5  C   UNL A   1     -22.461   0.982  28.286  0.00  0.00    +0.000 A 
ATOM      6  C   UNL A   1     -23.678   0.954  27.793  0.00  0.00    +0.000 A 
ENDROOT
BRANCH   2   7
ATOM      7  C   UNL A   1     -24.689  -2.564  28.898  0.00  0.00    +0.000 A 
ATOM      8  C   UNL A   1     -25.673  -2.821  29.431  0.00  0.00    +0.000 A 
ATOM      9  C   UNL A   1     -26.194  -4.187  29.684  0.00  0.00    +0.000 A 
ATOM     10  C   UNL A   1     -25.351  -5.251  29.338  0.00  0.00    +0.000 A 
ATOM     11  C   UNL A   1     -24.038  -3.885  28.517  0.00  0.00    +0.000 A 
ATOM     12  C   UNL A   1     -24.308  -5.028  28.718  0.00  0.00    +0.000 A 
ENDBRANCH   2   7
TORSDOF 1
ENDMDL
ENDMDL
