REMARK  Name = No_4511-gen_results/8p0m/2024-11-26-14-13-15/
REMARK  4 active torsions:
REMARK  status: ('A' for Active; 'I' for Inactive)
REMARK    1  A    between atoms: C_2  and  C_3
REMARK    2  A    between atoms: C_3  and  C_5
REMARK    3  A    between atoms: C_6  and  C_11
REMARK    4  A    between atoms: N_12  and  N_17
REMARK                            x       y       z     vdW  Elec       q    Type
REMARK                         _______ _______ _______ _____ _____    ______ ____
ROOT
ATOM      1  C   UNL A   1     -25.695   0.713  30.061  0.00  0.00    -0.014 A 
ATOM      2  C   UNL A   1     -25.007   1.345  29.663  0.00  0.00    -0.006 A 
ATOM      3  C   UNL A   1     -23.609   1.735  30.054  0.00  0.00    -0.003 A 
ATOM      4  C   UNL A   1     -22.840   0.760  29.961  0.00  0.00    -0.000 A 
ATOM      5  C   UNL A   1     -23.348  -0.509  30.594  0.00  0.00    -0.000 A 
ATOM      6  C   UNL A   1     -24.774  -0.598  30.491  0.00  0.00    -0.004 A 
ENDROOT
BRANCH   2   7
ATOM      7  C   UNL A   1     -25.767   2.777  29.259  0.00  0.00    +0.113 C 
ATOM      8  N   UNL A   1     -26.732   2.635  28.496  0.00  0.00    -0.230 N 
ATOM      9  C   UNL A   1     -27.350   3.229  27.948  0.00  0.00    +0.111 C 
ATOM     10  C   UNL A   1     -27.261   4.582  28.133  0.00  0.00    +0.023 C 
ATOM     11  C   UNL A   1     -26.114   5.029  28.883  0.00  0.00    +0.004 C 
ATOM     12  C   UNL A   1     -25.308   4.098  29.477  0.00  0.00    +0.026 C 
BRANCH   8  13
ATOM     13  N   UNL A   1     -26.857   1.229  28.174  0.00  0.00    -0.179 NA
ATOM     14  C   UNL A   1     -27.786   1.280  27.072  0.00  0.00    +0.140 C 
ENDBRANCH   8  13
ENDBRANCH   2   7
BRANCH   1  15
ATOM     15  C   UNL A   1     -26.959   0.093  29.758  0.00  0.00    +0.127 C 
BRANCH  15  17
ATOM     16  O   UNL A   1     -28.123  -1.335  28.487  0.00  0.00    -0.259 OA
ATOM     17  C   UNL A   1     -27.064  -0.824  28.869  0.00  0.00    +0.315 C 
ATOM     18  F   UNL A   1     -25.900  -1.397  28.355  0.00  0.00    -0.163 F 
ENDBRANCH  15  17
ENDBRANCH   1  15
TORSDOF 4
