MODEL 4511
MODEL 1
REMARK VINA RESULT:    -6.312      0.000      0.000
REMARK INTER + INTRA:          -7.738
REMARK INTER:                  -7.788
REMARK INTRA:                   0.050
REMARK UNBOUND:                 0.050
REMARK  Name = No_4511-gen_results/8p0m/2024-11-26-14-13-15/
REMARK  4 active torsions:
REMARK  status: ('A' for Active; 'I' for Inactive)
REMARK    1  A    between atoms: C_2  and  C_3
REMARK    2  A    between atoms: C_3  and  C_5
REMARK    3  A    between atoms: C_6  and  C_11
REMARK    4  A    between atoms: N_12  and  N_17
REMARK                            x       y       z     vdW  Elec       q    Type
REMARK                         _______ _______ _______ _____ _____    ______ ____
ROOT
ATOM      1  C   UNL A   1     -24.411  -0.695  27.692  0.00  0.00    -0.014 A 
ATOM      2  C   UNL A   1     -24.132  -1.040  28.605  0.00  0.00    -0.006 A 
ATOM      3  C   UNL A   1     -22.829  -1.052  29.355  0.00  0.00    -0.003 A 
ATOM      4  C   UNL A   1     -22.471   0.109  29.630  0.00  0.00    -0.000 A 
ATOM      5  C   UNL A   1     -22.535   1.079  28.479  0.00  0.00    -0.000 A 
ATOM      6  C   UNL A   1     -23.619   0.759  27.599  0.00  0.00    -0.004 A 
ENDROOT
BRANCH   2   7
ATOM      7  C   UNL A   1     -24.777  -2.566  28.821  0.00  0.00    +0.113 C 
ATOM      8  N   UNL A   1     -25.782  -2.588  29.544  0.00  0.00    -0.230 N 
ATOM      9  C   UNL A   1     -26.367  -3.287  29.996  0.00  0.00    +0.111 C 
ATOM     10  C   UNL A   1     -26.150  -4.600  29.678  0.00  0.00    +0.023 C 
ATOM     11  C   UNL A   1     -24.938  -4.867  28.945  0.00  0.00    +0.004 C 
ATOM     12  C   UNL A   1     -24.194  -3.813  28.491  0.00  0.00    +0.026 C 
BRANCH   8  13
ATOM     13  N   UNL A   1     -26.045  -1.240  30.003  0.00  0.00    -0.179 NA
ATOM     14  C   UNL A   1     -27.485  -1.250  30.076  0.00  0.00    +0.140 C 
ENDBRANCH   8  13
ENDBRANCH   2   7
BRANCH   1  15
ATOM     15  C   UNL A   1     -25.585  -0.438  26.899  0.00  0.00    +0.127 C 
BRANCH  15  17
ATOM     16  O   UNL A   1     -26.174   1.212  25.507  0.00  0.00    -0.259 OA
ATOM     17  C   UNL A   1     -25.523   0.200  25.790  0.00  0.00    +0.315 C 
ATOM     18  F   UNL A   1     -24.754  -0.330  24.752  0.00  0.00    -0.163 F 
ENDBRANCH  15  17
ENDBRANCH   1  15
TORSDOF 4
ENDMDL
ENDMDL
