MODEL 4512
MODEL 1
REMARK VINA RESULT:    -6.850      0.000      0.000
REMARK INTER + INTRA:          -8.839
REMARK INTER:                  -8.051
REMARK INTRA:                  -0.788
REMARK UNBOUND:                -0.788
REMARK  Name = No_4512-gen_results/8p0m/2024-11-26-14-13-15/
REMARK  3 active torsions:
REMARK  status: ('A' for Active; 'I' for Inactive)
REMARK    1  A    between atoms: C_2  and  C_3
REMARK    2  A    between atoms: C_5  and  C_13
REMARK    3  A    between atoms: C_8  and  C_17
REMARK                            x       y       z     vdW  Elec       q    Type
REMARK                         _______ _______ _______ _____ _____    ______ ____
ROOT
ATOM      1  C   UNL A   1     -28.185 -11.837  31.373  0.00  0.00    +0.007 A 
ATOM      2  C   UNL A   1     -29.082 -11.545  30.617  0.00  0.00    +0.011 A 
ATOM      3  C   UNL A   1     -28.248 -11.294  32.724  0.00  0.00    +0.080 A 
ATOM      4  C   UNL A   1     -28.936 -10.128  32.973  0.00  0.00    +0.003 A 
ATOM      5  C   UNL A   1     -29.935 -10.339  30.856  0.00  0.00    +0.054 A 
ATOM      6  C   UNL A   1     -29.846  -9.678  32.052  0.00  0.00    -0.012 A 
ATOM      7 CL   UNL A   1     -31.067  -9.856  29.704  0.00  0.00    -0.083 Cl
ENDROOT
BRANCH   2   8
ATOM      8  C   UNL A   1     -29.293 -12.169  29.403  0.00  0.00    +0.001 A 
ATOM      9  C   UNL A   1     -28.840 -11.714  28.356  0.00  0.00    +0.000 A 
ATOM     10  C   UNL A   1     -29.062 -12.375  27.032  0.00  0.00    +0.000 A 
ATOM     11  C   UNL A   1     -29.816 -13.549  27.005  0.00  0.00    +0.000 A 
ATOM     12  C   UNL A   1     -30.019 -13.435  29.290  0.00  0.00    +0.000 A 
ATOM     13  C   UNL A   1     -30.267 -14.077  28.122  0.00  0.00    +0.000 A 
ENDBRANCH   2   8
BRANCH   3  14
ATOM     14  C   UNL A   1     -27.208 -11.724  33.752  0.00  0.00    +0.388 C 
ATOM     15  O   UNL A   1     -26.777 -12.706  33.783  0.00  0.00    -0.241 OA
ATOM     16  O   UNL A   1     -26.864 -10.798  34.635  0.00  0.00    -0.241 OA
ENDBRANCH   3  14
BRANCH   6  17
ATOM     17  C   UNL A   1     -30.654  -8.493  32.276  0.00  0.00    +0.023 C 
ATOM     18  C   UNL A   1     -31.839  -8.568  32.920  0.00  0.00    +0.005 C 
ATOM     19  C   UNL A   1     -30.024  -7.244  31.873  0.00  0.00    +0.005 C 
ENDBRANCH   6  17
TORSDOF 3
ENDMDL
ENDMDL
