REMARK  Name = No_4512-gen_results/8p0m/2024-11-26-14-13-15/
REMARK  3 active torsions:
REMARK  status: ('A' for Active; 'I' for Inactive)
REMARK    1  A    between atoms: C_2  and  C_3
REMARK    2  A    between atoms: C_5  and  C_13
REMARK    3  A    between atoms: C_8  and  C_17
REMARK                            x       y       z     vdW  Elec       q    Type
REMARK                         _______ _______ _______ _____ _____    ______ ____
ROOT
ATOM      1  C   UNL A   1     -28.016  -0.814  28.878  0.00  0.00    +0.007 A 
ATOM      2  C   UNL A   1     -27.064  -0.119  28.608  0.00  0.00    +0.011 A 
ATOM      3  C   UNL A   1     -28.059  -1.396  30.214  0.00  0.00    +0.080 A 
ATOM      4  C   UNL A   1     -26.895  -1.608  30.918  0.00  0.00    +0.003 A 
ATOM      5  C   UNL A   1     -25.784  -0.225  29.376  0.00  0.00    +0.054 A 
ATOM      6  C   UNL A   1     -25.752  -0.958  30.532  0.00  0.00    -0.012 A 
ATOM      7 CL   UNL A   1     -24.420   0.631  28.877  0.00  0.00    -0.083 Cl
ENDROOT
BRANCH   2   8
ATOM      8  C   UNL A   1     -27.001   0.691  27.491  0.00  0.00    +0.001 A 
ATOM      9  C   UNL A   1     -27.178   1.904  27.563  0.00  0.00    +0.000 A 
ATOM     10  C   UNL A   1     -27.117   2.795  26.362  0.00  0.00    +0.000 A 
ATOM     11  C   UNL A   1     -26.851   2.209  25.124  0.00  0.00    +0.000 A 
ATOM     12  C   UNL A   1     -26.668   0.169  26.164  0.00  0.00    +0.000 A 
ATOM     13  C   UNL A   1     -26.611   0.919  25.036  0.00  0.00    +0.000 A 
ENDBRANCH   2   8
BRANCH   3  14
ATOM     14  C   UNL A   1     -29.290  -2.182  30.647  0.00  0.00    +0.388 C 
ATOM     15  O   UNL A   1     -30.277  -1.762  30.688  0.00  0.00    -0.241 OA
ATOM     16  O   UNL A   1     -29.069  -3.443  30.989  0.00  0.00    -0.241 OA
ENDBRANCH   3  14
BRANCH   6  17
ATOM     17  C   UNL A   1     -24.505  -1.083  31.265  0.00  0.00    +0.023 C 
ATOM     18  C   UNL A   1     -23.412  -1.635  30.695  0.00  0.00    +0.005 C 
ATOM     19  C   UNL A   1     -24.509  -0.457  32.580  0.00  0.00    +0.005 C 
ENDBRANCH   6  17
TORSDOF 3
