MODEL 4513
MODEL 1
REMARK VINA RESULT:    -5.321      0.000      0.000
REMARK INTER + INTRA:          -5.776
REMARK INTER:                  -5.632
REMARK INTRA:                  -0.144
REMARK UNBOUND:                -0.144
REMARK  Name = No_4513-gen_results/8p0m/2024-11-26-14-13-15/
REMARK  1 active torsions:
REMARK  status: ('A' for Active; 'I' for Inactive)
REMARK    1  A    between atoms: C_3  and  C_7
REMARK                            x       y       z     vdW  Elec       q    Type
REMARK                         _______ _______ _______ _____ _____    ______ ____
ROOT
ATOM      1  C   UNL A   1     -25.587  -2.653  29.829  0.00  0.00    -0.000 A 
ATOM      2  C   UNL A   1     -26.262  -3.456  29.924  0.00  0.00    -0.000 A 
ATOM      3  C   UNL A   1     -24.361  -2.934  29.137  0.00  0.00    -0.000 A 
ATOM      4  C   UNL A   1     -23.996  -4.167  28.773  0.00  0.00    -0.000 A 
ATOM      5  C   UNL A   1     -24.904  -5.163  29.005  0.00  0.00    -0.000 A 
ATOM      6  C   UNL A   1     -26.098  -4.858  29.603  0.00  0.00    -0.000 A 
ENDROOT
BRANCH   3   7
ATOM      7  C   UNL A   1     -23.403  -1.757  28.889  0.00  0.00    -0.005 C 
ATOM      8  C   UNL A   1     -22.538  -1.199  29.345  0.00  0.00    -0.026 C 
ATOM      9  C   UNL A   1     -21.812  -0.074  28.879  0.00  0.00    +0.031 C 
ENDBRANCH   3   7
TORSDOF 1
ENDMDL
ENDMDL
