MODEL 4514
MODEL 1
REMARK VINA RESULT:    -4.888      0.000      0.000
REMARK INTER + INTRA:          -5.351
REMARK INTER:                  -5.174
REMARK INTRA:                  -0.176
REMARK UNBOUND:                -0.176
REMARK  Name = No_4514-gen_results/8p0m/2024-11-26-14-13-15/
REMARK  1 active torsions:
REMARK  status: ('A' for Active; 'I' for Inactive)
REMARK    1  A    between atoms: N_4  and  C_6
REMARK                            x       y       z     vdW  Elec       q    Type
REMARK                         _______ _______ _______ _____ _____    ______ ____
ROOT
ATOM      1  O   UNL A   1     -21.097  -1.020  28.919  0.00  0.00    -0.260 OA
ATOM      2  C   UNL A   1     -21.893  -0.231  28.651  0.00  0.00    +0.292 C 
ATOM      3  C   UNL A   1     -21.995   0.826  28.428  0.00  0.00    -0.007 C 
ATOM      4  N   UNL A   1     -23.305  -0.853  28.607  0.00  0.00    -0.270 N 
ATOM      5  C   UNL A   1     -22.165   1.614  27.798  0.00  0.00    -0.082 C 
ATOM      6  C   UNL A   1     -24.420   0.015  28.102  0.00  0.00    +0.094 C 
ATOM      7  C   UNL A   1     -24.742   0.205  26.866  0.00  0.00    +0.023 C 
ATOM      8  C   UNL A   1     -24.176   1.579  26.276  0.00  0.00    +0.016 C 
ATOM      9  C   UNL A   1     -22.826   1.926  26.371  0.00  0.00    +0.077 C 
ENDROOT
BRANCH   4  10
ATOM     10  C   UNL A   1     -23.659  -2.081  28.966  0.00  0.00    +0.094 C 
ATOM     11  C   UNL A   1     -24.192  -2.128  30.216  0.00  0.00    +0.023 C 
ENDBRANCH   4  10
TORSDOF 1
ENDMDL
ENDMDL
