REMARK  Name = No_4514-gen_results/8p0m/2024-11-26-14-13-15/
REMARK  1 active torsions:
REMARK  status: ('A' for Active; 'I' for Inactive)
REMARK    1  A    between atoms: N_4  and  C_6
REMARK                            x       y       z     vdW  Elec       q    Type
REMARK                         _______ _______ _______ _____ _____    ______ ____
ROOT
ATOM      1  O   UNL A   1     -28.123  -1.335  28.487  0.00  0.00    -0.260 OA
ATOM      2  C   UNL A   1     -27.481  -0.404  28.709  0.00  0.00    +0.292 C 
ATOM      3  C   UNL A   1     -27.190   0.246  29.527  0.00  0.00    -0.007 C 
ATOM      4  N   UNL A   1     -26.816   0.137  27.426  0.00  0.00    -0.270 N 
ATOM      5  C   UNL A   1     -26.518   0.616  30.204  0.00  0.00    -0.082 C 
ATOM      6  C   UNL A   1     -25.813   1.241  27.588  0.00  0.00    +0.094 C 
ATOM      7  C   UNL A   1     -24.562   1.103  27.874  0.00  0.00    +0.023 C 
ATOM      8  C   UNL A   1     -24.240   1.362  29.419  0.00  0.00    +0.016 C 
ATOM      9  C   UNL A   1     -24.935   0.709  30.440  0.00  0.00    +0.077 C 
ENDROOT
BRANCH   4  10
ATOM     10  C   UNL A   1     -27.025  -0.262  26.177  0.00  0.00    +0.094 C 
ATOM     11  C   UNL A   1     -27.909   0.531  25.515  0.00  0.00    +0.023 C 
ENDBRANCH   4  10
TORSDOF 1
