MODEL 4515
MODEL 1
REMARK VINA RESULT:    -5.303      0.000      0.000
REMARK INTER + INTRA:          -7.179
REMARK INTER:                  -6.853
REMARK INTRA:                  -0.326
REMARK UNBOUND:                -0.326
REMARK  Name = No_4515-gen_results/8p0m/2024-11-26-14-13-15/
REMARK  5 active torsions:
REMARK  status: ('A' for Active; 'I' for Inactive)
REMARK    1  A    between atoms: C_2  and  P_7
REMARK    2  A    between atoms: P_7  and  O_9
REMARK    3  A    between atoms: P_7  and  O_10
REMARK    4  A    between atoms: O_9  and  C_11
REMARK    5  A    between atoms: C_12  and  O_13
REMARK                            x       y       z     vdW  Elec       q    Type
REMARK                         _______ _______ _______ _____ _____    ______ ____
ROOT
ATOM      1  P   UNL A   1     -23.245  -1.156  29.359  0.00  0.00    +0.415 P 
ATOM      2  O   UNL A   1     -22.262  -1.133  29.059  0.00  0.00    -0.239 OA
ENDROOT
BRANCH   1   4
ATOM      3  C   UNL A   1     -25.565  -2.405  29.823  0.00  0.00    +0.009 A 
ATOM      4  C   UNL A   1     -24.427  -2.498  29.427  0.00  0.00    +0.092 A 
ATOM      5  C   UNL A   1     -23.925  -3.707  28.958  0.00  0.00    +0.009 A 
ATOM      6  C   UNL A   1     -24.733  -4.900  28.974  0.00  0.00    +0.000 A 
ATOM      7  C   UNL A   1     -26.028  -4.708  29.470  0.00  0.00    +0.000 A 
ATOM      8  C   UNL A   1     -26.449  -3.546  29.917  0.00  0.00    +0.000 A 
ENDBRANCH   1   4
BRANCH   1   9
ATOM      9  O   UNL A   1     -23.533  -0.532  30.910  0.00  0.00    -0.280 OA
ATOM     10  C   UNL A   1     -22.847  -1.069  31.945  0.00  0.00    +0.185 C 
ENDBRANCH   1   9
BRANCH   1  11
ATOM     11  O   UNL A   1     -24.151  -0.079  28.575  0.00  0.00    -0.413 OA
BRANCH  11  12
ATOM     12  C   UNL A   1     -23.823   0.298  27.383  0.00  0.00    +0.221 C 
ATOM     13  C   UNL A   1     -23.172   1.716  27.424  0.00  0.00    +0.213 C 
BRANCH  13  14
ATOM     14  O   UNL A   1     -23.762   2.549  28.167  0.00  0.00    -0.465 OA
ATOM     15  C   UNL A   1     -24.800   3.238  27.452  0.00  0.00    +0.253 C 
ENDBRANCH  13  14
ENDBRANCH  11  12
ENDBRANCH   1  11
TORSDOF 5
ENDMDL
ENDMDL
