REMARK  Name = No_4515-gen_results/8p0m/2024-11-26-14-13-15/
REMARK  5 active torsions:
REMARK  status: ('A' for Active; 'I' for Inactive)
REMARK    1  A    between atoms: C_2  and  P_7
REMARK    2  A    between atoms: P_7  and  O_9
REMARK    3  A    between atoms: P_7  and  O_10
REMARK    4  A    between atoms: O_9  and  C_11
REMARK    5  A    between atoms: C_12  and  O_13
REMARK                            x       y       z     vdW  Elec       q    Type
REMARK                         _______ _______ _______ _____ _____    ______ ____
ROOT
ATOM      1  P   UNL A   1     -27.115   1.353  27.593  0.00  0.00    +0.415 P 
ATOM      2  O   UNL A   1     -27.666   2.217  27.678  0.00  0.00    -0.239 OA
ENDROOT
BRANCH   1   4
ATOM      3  C   UNL A   1     -28.016  -0.814  28.878  0.00  0.00    +0.009 A 
ATOM      4  C   UNL A   1     -27.064  -0.119  28.608  0.00  0.00    +0.092 A 
ATOM      5  C   UNL A   1     -25.792  -0.430  29.076  0.00  0.00    +0.009 A 
ATOM      6  C   UNL A   1     -25.576  -1.565  29.936  0.00  0.00    +0.000 A 
ATOM      7  C   UNL A   1     -26.735  -2.300  30.217  0.00  0.00    +0.000 A 
ATOM      8  C   UNL A   1     -27.918  -1.954  29.763  0.00  0.00    +0.000 A 
ENDBRANCH   1   4
BRANCH   1   9
ATOM      9  O   UNL A   1     -27.232   0.577  26.089  0.00  0.00    -0.280 OA
ATOM     10  C   UNL A   1     -28.443   0.548  25.485  0.00  0.00    +0.185 C 
ENDBRANCH   1   9
BRANCH   1  11
ATOM     11  O   UNL A   1     -25.532   1.640  27.509  0.00  0.00    -0.413 OA
BRANCH  11  12
ATOM     12  C   UNL A   1     -24.929   2.234  28.486  0.00  0.00    +0.221 C 
ATOM     13  C   UNL A   1     -23.382   2.141  28.304  0.00  0.00    +0.213 C 
BRANCH  13  14
ATOM     14  O   UNL A   1     -22.957   1.007  27.949  0.00  0.00    -0.465 OA
ATOM     15  C   UNL A   1     -21.549   0.877  28.203  0.00  0.00    +0.253 C 
ENDBRANCH  13  14
ENDBRANCH  11  12
ENDBRANCH   1  11
TORSDOF 5
