REMARK  Name = No_4516-gen_results/8p0m/2024-11-26-14-13-15/
REMARK  3 active torsions:
REMARK  status: ('A' for Active; 'I' for Inactive)
REMARK    1  A    between atoms: C_2  and  C_7
REMARK    2  A    between atoms: C_7  and  O_9
REMARK    3  A    between atoms: O_9  and  C_11
REMARK                            x       y       z     vdW  Elec       q    Type
REMARK                         _______ _______ _______ _____ _____    ______ ____
ROOT
ATOM      1  C   UNL A   1     -28.016  -0.814  28.878  0.00  0.00    +0.018 A 
ATOM      2  C   UNL A   1     -28.469  -0.785  29.829  0.00  0.00    +0.077 A 
ATOM      3  C   UNL A   1     -26.504  -0.778  28.877  0.00  0.00    +0.058 A 
ATOM      4  C   UNL A   1     -25.810  -0.853  30.103  0.00  0.00    +0.011 A 
ATOM      5  C   UNL A   1     -27.991  -0.892  31.226  0.00  0.00    +0.006 A 
ATOM      6  C   UNL A   1     -26.604  -0.868  31.265  0.00  0.00    +0.001 A 
ATOM      7 CL   UNL A   1     -25.541  -0.710  27.481  0.00  0.00    -0.082 Cl
ENDROOT
BRANCH   2   8
ATOM      8  C   UNL A   1     -30.074  -0.836  29.861  0.00  0.00    +0.346 C 
ATOM      9  O   UNL A   1     -30.689  -1.655  30.223  0.00  0.00    -0.244 OA
BRANCH   8  10
ATOM     10  O   UNL A   1     -30.554   0.078  28.922  0.00  0.00    -0.418 OA
BRANCH  10  11
ATOM     11  C   UNL A   1     -31.738   0.499  29.001  0.00  0.00    +0.178 C 
ATOM     12  C   UNL A   1     -32.327   1.060  29.848  0.00  0.00    +0.015 C 
ATOM     13  C   UNL A   1     -33.674   1.526  29.845  0.00  0.00    +0.034 C 
ENDBRANCH  10  11
ENDBRANCH   8  10
ENDBRANCH   2   8
TORSDOF 3
