MODEL 4516
MODEL 1
REMARK VINA RESULT:    -5.932      0.000      0.000
REMARK INTER + INTRA:          -7.154
REMARK INTER:                  -6.973
REMARK INTRA:                  -0.182
REMARK UNBOUND:                -0.182
REMARK  Name = No_4516-gen_results/8p0m/2024-11-26-14-13-15/
REMARK  3 active torsions:
REMARK  status: ('A' for Active; 'I' for Inactive)
REMARK    1  A    between atoms: C_2  and  C_7
REMARK    2  A    between atoms: C_7  and  O_9
REMARK    3  A    between atoms: O_9  and  C_11
REMARK                            x       y       z     vdW  Elec       q    Type
REMARK                         _______ _______ _______ _____ _____    ______ ____
ROOT
ATOM      1  C   UNL A   1     -24.223  -0.148  27.514  0.00  0.00    +0.018 A 
ATOM      2  C   UNL A   1     -23.431   0.047  28.181  0.00  0.00    +0.077 A 
ATOM      3  C   UNL A   1     -24.359   0.825  26.364  0.00  0.00    +0.058 A 
ATOM      4  C   UNL A   1     -23.369   1.812  26.173  0.00  0.00    +0.011 A 
ATOM      5  C   UNL A   1     -22.268   0.962  28.194  0.00  0.00    +0.006 A 
ATOM      6  C   UNL A   1     -22.354   1.868  27.146  0.00  0.00    +0.001 A 
ATOM      7 CL   UNL A   1     -25.608   0.793  25.215  0.00  0.00    -0.082 Cl
ENDROOT
BRANCH   2   8
ATOM      8  C   UNL A   1     -23.255  -0.978  29.405  0.00  0.00    +0.346 C 
ATOM      9  O   UNL A   1     -22.932  -0.734  30.413  0.00  0.00    -0.244 OA
BRANCH   8  10
ATOM     10  O   UNL A   1     -23.090  -2.259  28.875  0.00  0.00    -0.418 OA
BRANCH  10  11
ATOM     11  C   UNL A   1     -23.879  -3.183  29.205  0.00  0.00    +0.178 C 
ATOM     12  C   UNL A   1     -24.201  -4.180  28.675  0.00  0.00    +0.015 C 
ATOM     13  C   UNL A   1     -25.092  -5.192  29.135  0.00  0.00    +0.034 C 
ENDBRANCH  10  11
ENDBRANCH   8  10
ENDBRANCH   2   8
TORSDOF 3
ENDMDL
ENDMDL
