MODEL 4517
MODEL 1
REMARK VINA RESULT:    -7.100      0.000      0.000
REMARK INTER + INTRA:          -8.922
REMARK INTER:                  -8.346
REMARK INTRA:                  -0.576
REMARK UNBOUND:                -0.576
REMARK  Name = No_4517-gen_results/8p0m/2024-11-26-14-13-15/
REMARK  3 active torsions:
REMARK  status: ('A' for Active; 'I' for Inactive)
REMARK    1  A    between atoms: C_2  and  C_5
REMARK    2  A    between atoms: C_6  and  C_12
REMARK    3  A    between atoms: C_12  and  N_13
REMARK                            x       y       z     vdW  Elec       q    Type
REMARK                         _______ _______ _______ _____ _____    ______ ____
ROOT
ATOM      1  C   UNL A   1     -26.777  -4.472  29.841  0.00  0.00    +0.015 A 
ATOM      2  C   UNL A   1     -25.774  -4.286  29.577  0.00  0.00    +0.072 A 
ATOM      3  C   UNL A   1     -27.528  -3.343  30.310  0.00  0.00    +0.057 A 
ATOM      4  C   UNL A   1     -26.974  -2.154  30.566  0.00  0.00    +0.009 A 
ATOM      5  C   UNL A   1     -25.666  -2.014  30.234  0.00  0.00    +0.003 A 
ATOM      6  C   UNL A   1     -25.014  -3.081  29.733  0.00  0.00    +0.002 A 
ATOM      7 CL   UNL A   1     -29.268  -3.600  30.671  0.00  0.00    -0.082 Cl
ENDROOT
BRANCH   2   8
ATOM      8  C   UNL A   1     -24.842  -5.432  29.005  0.00  0.00    +0.419 C 
ATOM      9  F   UNL A   1     -25.346  -6.002  28.103  0.00  0.00    -0.166 F 
ATOM     10  F   UNL A   1     -24.408  -6.317  29.941  0.00  0.00    -0.166 F 
ATOM     11  F   UNL A   1     -23.652  -4.809  28.615  0.00  0.00    -0.166 F 
ENDBRANCH   2   8
BRANCH   5  12
ATOM     12  C   UNL A   1     -24.969  -0.732  30.440  0.00  0.00    +0.156 C 
BRANCH  12  13
ATOM     13  N   UNL A   1     -24.243  -0.285  29.548  0.00  0.00    -0.226 NA
ATOM     14  C   UNL A   1     -23.345   0.139  29.170  0.00  0.00    +0.275 C 
ATOM     15  F   UNL A   1     -22.364   0.089  29.994  0.00  0.00    -0.166 F 
ATOM     16  N   UNL A   1     -23.076   0.803  28.013  0.00  0.00    -0.271 N 
ATOM     17  C   UNL A   1     -22.038   1.515  27.600  0.00  0.00    +0.094 C 
ATOM     18  C   UNL A   1     -22.116   2.026  26.442  0.00  0.00    +0.022 C 
ATOM     19  C   UNL A   1     -23.240   2.039  25.676  0.00  0.00    +0.004 C 
ATOM     20  C   UNL A   1     -24.369   1.370  26.107  0.00  0.00    +0.022 C 
ATOM     21  C   UNL A   1     -24.259   0.788  27.310  0.00  0.00    +0.094 C 
ENDBRANCH  12  13
ENDBRANCH   5  12
TORSDOF 3
ENDMDL
ENDMDL
