REMARK  Name = No_4517-gen_results/8p0m/2024-11-26-14-13-15/
REMARK  3 active torsions:
REMARK  status: ('A' for Active; 'I' for Inactive)
REMARK    1  A    between atoms: C_2  and  C_5
REMARK    2  A    between atoms: C_6  and  C_12
REMARK    3  A    between atoms: C_12  and  N_13
REMARK                            x       y       z     vdW  Elec       q    Type
REMARK                         _______ _______ _______ _____ _____    ______ ____
ROOT
ATOM      1  C   UNL A   1     -28.016  -0.814  28.878  0.00  0.00    +0.015 A 
ATOM      2  C   UNL A   1     -28.469  -0.785  29.829  0.00  0.00    +0.072 A 
ATOM      3  C   UNL A   1     -28.196   0.348  28.055  0.00  0.00    +0.057 A 
ATOM      4  C   UNL A   1     -29.019   1.350  28.378  0.00  0.00    +0.009 A 
ATOM      5  C   UNL A   1     -29.595   1.286  29.605  0.00  0.00    +0.003 A 
ATOM      6  C   UNL A   1     -29.346   0.209  30.375  0.00  0.00    +0.002 A 
ATOM      7 CL   UNL A   1     -27.351   0.377  26.471  0.00  0.00    -0.082 Cl
ENDROOT
BRANCH   2   8
ATOM      8  C   UNL A   1     -28.317  -1.981  30.856  0.00  0.00    +0.419 C 
ATOM      9  F   UNL A   1     -29.323  -2.585  30.981  0.00  0.00    -0.166 F 
ATOM     10  F   UNL A   1     -27.831  -1.614  32.071  0.00  0.00    -0.166 F 
ATOM     11  F   UNL A   1     -27.291  -2.793  30.361  0.00  0.00    -0.166 F 
ENDBRANCH   2   8
BRANCH   5  12
ATOM     12  C   UNL A   1     -30.490   2.358  30.074  0.00  0.00    +0.156 C 
BRANCH  12  13
ATOM     13  N   UNL A   1     -30.073   3.186  30.888  0.00  0.00    -0.226 NA
ATOM     14  C   UNL A   1     -30.017   4.154  31.323  0.00  0.00    +0.275 C 
ATOM     15  F   UNL A   1     -30.948   4.947  30.939  0.00  0.00    -0.166 F 
ATOM     16  N   UNL A   1     -29.088   4.727  32.137  0.00  0.00    -0.271 N 
ATOM     17  C   UNL A   1     -28.877   5.974  32.530  0.00  0.00    +0.094 C 
ATOM     18  C   UNL A   1     -27.888   6.175  33.297  0.00  0.00    +0.022 C 
ATOM     19  C   UNL A   1     -26.944   5.245  33.602  0.00  0.00    +0.004 C 
ATOM     20  C   UNL A   1     -27.089   3.949  33.148  0.00  0.00    +0.022 C 
ATOM     21  C   UNL A   1     -28.166   3.734  32.380  0.00  0.00    +0.094 C 
ENDBRANCH  12  13
ENDBRANCH   5  12
TORSDOF 3
