MODEL 4518
MODEL 1
REMARK VINA RESULT:    -4.293      0.000      0.000
REMARK INTER + INTRA:          -4.293
REMARK INTER:                  -4.293
REMARK INTRA:                   0.000
REMARK UNBOUND:                 0.000
REMARK  Name = No_4518-gen_results/8p0m/2024-11-26-14-13-15/
REMARK  0 active torsions:
REMARK  status: ('A' for Active; 'I' for Inactive)
REMARK                            x       y       z     vdW  Elec       q    Type
REMARK                         _______ _______ _______ _____ _____    ______ ____
ROOT
ATOM      1  C   UNL A   1     -24.973  -5.363  28.989  0.00  0.00    +0.000 A 
ATOM      2  C   UNL A   1     -24.190  -4.697  28.754  0.00  0.00    +0.000 A 
ATOM      3  C   UNL A   1     -26.126  -4.714  29.612  0.00  0.00    +0.000 A 
ATOM      4  C   UNL A   1     -26.168  -3.360  29.839  0.00  0.00    +0.000 A 
ATOM      5  C   UNL A   1     -23.963  -3.257  28.871  0.00  0.00    +0.000 A 
ATOM      6  C   UNL A   1     -25.074  -2.619  29.473  0.00  0.00    +0.000 A 
ENDROOT
TORSDOF 0
ENDMDL
ENDMDL
