MODEL 4519
MODEL 1
REMARK VINA RESULT:    -6.165      0.000      0.000
REMARK INTER + INTRA:          -8.592
REMARK INTER:                  -7.967
REMARK INTRA:                  -0.625
REMARK UNBOUND:                -0.625
REMARK  Name = No_4519-gen_results/8p0m/2024-11-26-14-13-15/
REMARK  5 active torsions:
REMARK  status: ('A' for Active; 'I' for Inactive)
REMARK    1  A    between atoms: C_1  and  C_2
REMARK    2  A    between atoms: C_4  and  C_11
REMARK    3  A    between atoms: N_9  and  C_10
REMARK    4  A    between atoms: C_15  and  C_16
REMARK    5  A    between atoms: C_17  and  C_18
REMARK                            x       y       z     vdW  Elec       q    Type
REMARK                         _______ _______ _______ _____ _____    ______ ____
ROOT
ATOM      1  C   UNL A   1     -23.955   0.978  27.615  0.00  0.00    +0.055 A 
ATOM      2  C   UNL A   1     -24.275  -0.437  27.840  0.00  0.00    +0.008 A 
ATOM      3  C   UNL A   1     -23.532  -1.232  28.837  0.00  0.00    +0.072 A 
ATOM      4  C   UNL A   1     -22.181  -0.891  29.074  0.00  0.00    +0.004 A 
ATOM      5  C   UNL A   1     -21.656   0.305  28.522  0.00  0.00    +0.000 A 
ATOM      6  C   UNL A   1     -22.439   1.109  27.773  0.00  0.00    +0.005 A 
ENDROOT
BRANCH   3   7
ATOM      7  C   UNL A   1     -23.969  -2.481  29.387  0.00  0.00    +0.419 C 
ATOM      8  F   UNL A   1     -23.494  -3.422  28.905  0.00  0.00    -0.166 F 
ATOM      9  F   UNL A   1     -25.349  -2.578  29.170  0.00  0.00    -0.166 F 
ATOM     10  F   UNL A   1     -23.849  -2.412  30.744  0.00  0.00    -0.166 F 
ENDBRANCH   3   7
BRANCH   1  11
ATOM     11  C   UNL A   1     -24.446   1.391  26.779  0.00  0.00    +0.269 C 
ATOM     12  O   UNL A   1     -24.428   2.781  26.577  0.00  0.00    -0.268 OA
ATOM     13  N   UNL A   1     -25.584   0.944  26.001  0.00  0.00    -0.174 NA
BRANCH  13  14
ATOM     14  C   UNL A   1     -26.453   1.702  25.163  0.00  0.00    +0.089 C 
ATOM     15  C   UNL A   1     -27.217   0.984  24.483  0.00  0.00    +0.018 C 
BRANCH  15  16
ATOM     16  C   UNL A   1     -28.191   1.321  23.791  0.00  0.00    +0.001 C 
ATOM     17  C   UNL A   1     -29.234   0.485  23.314  0.00  0.00    +0.000 C 
BRANCH  17  18
ATOM     18  C   UNL A   1     -29.135  -0.876  23.661  0.00  0.00    +0.000 C 
ATOM     19  C   UNL A   1     -30.218  -1.644  23.870  0.00  0.00    +0.000 C 
ENDBRANCH  17  18
ENDBRANCH  15  16
ENDBRANCH  13  14
ENDBRANCH   1  11
TORSDOF 5
ENDMDL
ENDMDL
