REMARK  Name = No_4519-gen_results/8p0m/2024-11-26-14-13-15/
REMARK  5 active torsions:
REMARK  status: ('A' for Active; 'I' for Inactive)
REMARK    1  A    between atoms: C_1  and  C_2
REMARK    2  A    between atoms: C_4  and  C_11
REMARK    3  A    between atoms: N_9  and  C_10
REMARK    4  A    between atoms: C_15  and  C_16
REMARK    5  A    between atoms: C_17  and  C_18
REMARK                            x       y       z     vdW  Elec       q    Type
REMARK                         _______ _______ _______ _____ _____    ______ ____
ROOT
ATOM      1  C   UNL A   1     -28.016  -0.814  28.878  0.00  0.00    +0.055 A 
ATOM      2  C   UNL A   1     -28.182   0.428  28.113  0.00  0.00    +0.008 A 
ATOM      3  C   UNL A   1     -27.450   0.643  26.850  0.00  0.00    +0.072 A 
ATOM      4  C   UNL A   1     -26.181   0.036  26.715  0.00  0.00    +0.004 A 
ATOM      5  C   UNL A   1     -25.753  -0.910  27.681  0.00  0.00    +0.000 A 
ATOM      6  C   UNL A   1     -26.550  -1.225  28.723  0.00  0.00    +0.005 A 
ENDROOT
BRANCH   3   7
ATOM      7  C   UNL A   1     -27.784   1.625  25.861  0.00  0.00    +0.419 C 
ATOM      8  F   UNL A   1     -27.155   2.597  25.903  0.00  0.00    -0.166 F 
ATOM      9  F   UNL A   1     -29.115   2.004  26.075  0.00  0.00    -0.166 F 
ATOM     10  F   UNL A   1     -27.804   1.010  24.644  0.00  0.00    -0.166 F 
ENDBRANCH   3   7
BRANCH   1  11
ATOM     11  C   UNL A   1     -28.469  -0.785  29.829  0.00  0.00    +0.269 C 
ATOM     12  O   UNL A   1     -28.541  -1.955  30.602  0.00  0.00    -0.268 OA
ATOM     13  N   UNL A   1     -29.503   0.063  30.388  0.00  0.00    -0.174 NA
BRANCH  13  14
ATOM     14  C   UNL A   1     -30.357  -0.179  31.503  0.00  0.00    +0.089 C 
ATOM     15  C   UNL A   1     -31.387   0.530  31.486  0.00  0.00    +0.018 C 
BRANCH  15  16
ATOM     16  C   UNL A   1     -32.397   0.452  32.203  0.00  0.00    +0.001 C 
ATOM     17  C   UNL A   1     -33.565   1.254  32.128  0.00  0.00    +0.000 C 
BRANCH  17  18
ATOM     18  C   UNL A   1     -33.560   2.251  31.134  0.00  0.00    +0.000 C 
ATOM     19  C   UNL A   1     -32.532   2.410  30.282  0.00  0.00    +0.000 C 
ENDBRANCH  17  18
ENDBRANCH  15  16
ENDBRANCH  13  14
ENDBRANCH   1  11
TORSDOF 5
