MODEL 451
MODEL 1
REMARK VINA RESULT:    -4.298      0.000      0.000
REMARK INTER + INTRA:          -4.298
REMARK INTER:                  -4.298
REMARK INTRA:                   0.000
REMARK UNBOUND:                 0.000
REMARK  Name = No_451-gen_results/8p0m/2024-11-26-14-13-15/
REMARK  0 active torsions:
REMARK  status: ('A' for Active; 'I' for Inactive)
REMARK                            x       y       z     vdW  Elec       q    Type
REMARK                         _______ _______ _______ _____ _____    ______ ____
ROOT
ATOM      1  C   UNL A   1     -24.114  -4.870  28.628  0.00  0.00    +0.000 A 
ATOM      2  C   UNL A   1     -25.008  -5.301  28.981  0.00  0.00    +0.000 A 
ATOM      3  C   UNL A   1     -24.095  -3.410  28.712  0.00  0.00    +0.000 A 
ATOM      4  C   UNL A   1     -24.919  -2.807  29.257  0.00  0.00    +0.000 A 
ATOM      5  C   UNL A   1     -26.179  -4.783  29.663  0.00  0.00    +0.000 A 
ATOM      6  C   UNL A   1     -26.095  -3.368  29.768  0.00  0.00    +0.000 A 
ENDROOT
TORSDOF 0
ENDMDL
ENDMDL
