MODEL 4520
MODEL 1
REMARK VINA RESULT:    -6.503      0.000      0.000
REMARK INTER + INTRA:          -8.331
REMARK INTER:                  -7.833
REMARK INTRA:                  -0.498
REMARK UNBOUND:                -0.498
REMARK  Name = No_4520-gen_results/8p0m/2024-11-26-14-13-15/
REMARK  5 active torsions:
REMARK  status: ('A' for Active; 'I' for Inactive)
REMARK    1  A    between atoms: C_3  and  C_7
REMARK    2  A    between atoms: C_7  and  C_8
REMARK    3  A    between atoms: C_9  and  C_10
REMARK    4  A    between atoms: C_11  and  C_12
REMARK    5  A    between atoms: C_12  and  C_13
REMARK                            x       y       z     vdW  Elec       q    Type
REMARK                         _______ _______ _______ _____ _____    ______ ____
ROOT
ATOM      1  C   UNL A   1     -24.506  -1.254  29.747  0.00  0.00    +0.052 C 
ENDROOT
BRANCH   1   4
ATOM      2  C   UNL A   1     -23.894  -3.591  28.887  0.00  0.00    -0.004 A 
ATOM      3  C   UNL A   1     -24.185  -4.598  28.779  0.00  0.00    -0.000 A 
ATOM      4  C   UNL A   1     -24.812  -2.702  29.488  0.00  0.00    -0.018 A 
ATOM      5  C   UNL A   1     -26.059  -3.116  29.914  0.00  0.00    -0.004 A 
ATOM      6  C   UNL A   1     -25.436  -5.291  29.145  0.00  0.00    -0.000 A 
ATOM      7  C   UNL A   1     -26.344  -4.474  29.723  0.00  0.00    -0.000 A 
ENDBRANCH   1   4
BRANCH   1   8
ATOM      8  C   UNL A   1     -23.695  -0.675  29.013  0.00  0.00    -0.021 C 
ATOM      9  C   UNL A   1     -22.596  -0.088  29.133  0.00  0.00    -0.005 C 
BRANCH   9  10
ATOM     10  C   UNL A   1     -21.573   0.260  28.462  0.00  0.00    -0.005 C 
ATOM     11  C   UNL A   1     -21.492   1.325  27.542  0.00  0.00    -0.026 C 
BRANCH  11  12
ATOM     12  C   UNL A   1     -22.587   2.176  27.678  0.00  0.00    +0.026 C 
BRANCH  12  13
ATOM     13  C   UNL A   1     -23.127   2.146  26.012  0.00  0.00    +0.005 C 
ATOM     14  C   UNL A   1     -23.740   3.230  25.501  0.00  0.00    +0.000 C 
ENDBRANCH  12  13
ENDBRANCH  11  12
ENDBRANCH   9  10
ENDBRANCH   1   8
TORSDOF 5
ENDMDL
ENDMDL
