REMARK  Name = No_4520-gen_results/8p0m/2024-11-26-14-13-15/
REMARK  5 active torsions:
REMARK  status: ('A' for Active; 'I' for Inactive)
REMARK    1  A    between atoms: C_3  and  C_7
REMARK    2  A    between atoms: C_7  and  C_8
REMARK    3  A    between atoms: C_9  and  C_10
REMARK    4  A    between atoms: C_11  and  C_12
REMARK    5  A    between atoms: C_12  and  C_13
REMARK                            x       y       z     vdW  Elec       q    Type
REMARK                         _______ _______ _______ _____ _____    ______ ____
ROOT
ATOM      1  C   UNL A   1     -26.388   0.291  27.233  0.00  0.00    +0.052 C 
ENDROOT
BRANCH   1   4
ATOM      2  C   UNL A   1     -28.016  -0.814  28.878  0.00  0.00    -0.004 A 
ATOM      3  C   UNL A   1     -28.469  -0.785  29.829  0.00  0.00    -0.000 A 
ATOM      4  C   UNL A   1     -27.136   0.236  28.535  0.00  0.00    -0.018 A 
ATOM      5  C   UNL A   1     -26.875   1.282  29.398  0.00  0.00    -0.004 A 
ATOM      6  C   UNL A   1     -28.361   0.199  30.924  0.00  0.00    -0.000 A 
ATOM      7  C   UNL A   1     -27.528   1.223  30.636  0.00  0.00    -0.000 A 
ENDBRANCH   1   4
BRANCH   1   8
ATOM      8  C   UNL A   1     -25.151   0.303  27.256  0.00  0.00    -0.021 C 
ATOM      9  C   UNL A   1     -24.241   1.091  27.602  0.00  0.00    -0.005 C 
BRANCH   9  10
ATOM     10  C   UNL A   1     -23.017   1.111  27.944  0.00  0.00    -0.005 C 
ATOM     11  C   UNL A   1     -22.120   2.189  27.801  0.00  0.00    -0.026 C 
BRANCH  11  12
ATOM     12  C   UNL A   1     -22.809   3.368  27.526  0.00  0.00    +0.026 C 
BRANCH  12  13
ATOM     13  C   UNL A   1     -24.378   2.663  27.198  0.00  0.00    +0.005 C 
ATOM     14  C   UNL A   1     -25.386   3.461  26.797  0.00  0.00    +0.000 C 
ENDBRANCH  12  13
ENDBRANCH  11  12
ENDBRANCH   9  10
ENDBRANCH   1   8
TORSDOF 5
