MODEL 4521
MODEL 1
REMARK VINA RESULT:    -7.354      0.000      0.000
REMARK INTER + INTRA:          -8.866
REMARK INTER:                  -9.074
REMARK INTRA:                   0.208
REMARK UNBOUND:                 0.208
REMARK  Name = No_4521-gen_results/8p0m/2024-11-26-14-13-15/
REMARK  4 active torsions:
REMARK  status: ('A' for Active; 'I' for Inactive)
REMARK    1  A    between atoms: C_1  and  C_21
REMARK    2  A    between atoms: C_2  and  C_10
REMARK    3  A    between atoms: C_5  and  C_7
REMARK    4  A    between atoms: C_12  and  C_13
REMARK                            x       y       z     vdW  Elec       q    Type
REMARK                         _______ _______ _______ _____ _____    ______ ____
ROOT
ATOM      1  C   UNL A   1     -23.232   1.422  28.489  0.00  0.00    +0.250 C 
ATOM      2  N   UNL A   1     -24.159   1.639  27.640  0.00  0.00    -0.263 N 
ATOM      3  C   UNL A   1     -24.153   2.201  26.507  0.00  0.00    +0.147 C 
ATOM      4  O   UNL A   1     -22.123   2.071  28.367  0.00  0.00    -0.270 OA
ATOM      5 CL   UNL A   1     -22.651   2.062  25.806  0.00  0.00    -0.091 Cl
ATOM      6  C   UNL A   1     -25.215   1.258  25.577  0.00  0.00    +0.038 C 
ATOM      7  C   UNL A   1     -25.438   0.821  27.986  0.00  0.00    +0.095 C 
ATOM      8  C   UNL A   1     -25.162  -0.111  26.101  0.00  0.00    +0.005 C 
ATOM      9  C   UNL A   1     -25.717  -0.303  27.303  0.00  0.00    +0.022 C 
ENDROOT
BRANCH   1  11
ATOM     10  C   UNL A   1     -23.325  -0.357  30.172  0.00  0.00    +0.084 A 
ATOM     11  C   UNL A   1     -23.538   0.806  29.916  0.00  0.00    +0.060 A 
ATOM     12  C   UNL A   1     -24.199   1.668  30.769  0.00  0.00    +0.005 A 
ATOM     13  C   UNL A   1     -24.618   1.165  32.033  0.00  0.00    +0.004 A 
ATOM     14  C   UNL A   1     -24.208  -0.087  32.341  0.00  0.00    +0.050 A 
ATOM     15  C   UNL A   1     -23.541  -0.828  31.476  0.00  0.00    +0.011 A 
BRANCH  14  16
ATOM     16  C   UNL A   1     -24.626  -0.581  33.669  0.00  0.00    +0.254 C 
ATOM     17 CL   UNL A   1     -25.890   0.127  34.365  0.00  0.00    -0.038 Cl
ATOM     18  O   UNL A   1     -23.938  -1.491  34.317  0.00  0.00    -0.274 OA
ENDBRANCH  14  16
BRANCH  10  19
ATOM     19  C   UNL A   1     -22.556  -1.271  29.205  0.00  0.00    +0.388 C 
ATOM     20  O   UNL A   1     -23.086  -2.248  28.680  0.00  0.00    -0.241 OA
ATOM     21  O   UNL A   1     -21.311  -0.994  29.062  0.00  0.00    -0.241 OA
ENDBRANCH  10  19
ENDBRANCH   1  11
BRANCH   3  22
ATOM     22  C   UNL A   1     -25.015   3.414  26.521  0.00  0.00    +0.008 A 
ATOM     23  C   UNL A   1     -25.702   3.600  27.787  0.00  0.00    -0.002 A 
ATOM     24  C   UNL A   1     -25.741   4.924  28.301  0.00  0.00    -0.000 A 
ATOM     25  C   UNL A   1     -25.367   5.938  27.395  0.00  0.00    -0.000 A 
ATOM     26  C   UNL A   1     -24.616   5.688  26.237  0.00  0.00    -0.000 A 
ATOM     27  C   UNL A   1     -24.360   4.476  25.876  0.00  0.00    -0.002 A 
ENDBRANCH   3  22
TORSDOF 4
ENDMDL
ENDMDL
