REMARK  Name = No_4521-gen_results/8p0m/2024-11-26-14-13-15/
REMARK  4 active torsions:
REMARK  status: ('A' for Active; 'I' for Inactive)
REMARK    1  A    between atoms: C_1  and  C_21
REMARK    2  A    between atoms: C_2  and  C_10
REMARK    3  A    between atoms: C_5  and  C_7
REMARK    4  A    between atoms: C_12  and  C_13
REMARK                            x       y       z     vdW  Elec       q    Type
REMARK                         _______ _______ _______ _____ _____    ______ ____
ROOT
ATOM      1  C   UNL A   1     -25.706  -0.200  29.421  0.00  0.00    +0.250 C 
ATOM      2  N   UNL A   1     -24.685  -0.811  28.961  0.00  0.00    -0.263 N 
ATOM      3  C   UNL A   1     -23.499  -0.913  29.387  0.00  0.00    +0.147 C 
ATOM      4  O   UNL A   1     -25.527   0.694  30.334  0.00  0.00    -0.270 OA
ATOM      5 CL   UNL A   1     -23.468  -0.753  31.042  0.00  0.00    -0.091 Cl
ATOM      6  C   UNL A   1     -23.079  -2.522  29.045  0.00  0.00    +0.038 C 
ATOM      7  C   UNL A   1     -25.087  -1.798  27.826  0.00  0.00    +0.095 C 
ATOM      8  C   UNL A   1     -24.311  -3.317  29.086  0.00  0.00    +0.005 C 
ATOM      9  C   UNL A   1     -25.176  -3.114  28.086  0.00  0.00    +0.022 C 
ENDROOT
BRANCH   1  11
ATOM     10  C   UNL A   1     -28.016  -0.814  28.878  0.00  0.00    +0.084 A 
ATOM     11  C   UNL A   1     -27.064  -0.119  28.608  0.00  0.00    +0.060 A 
ATOM     12  C   UNL A   1     -27.001   0.691  27.491  0.00  0.00    +0.005 A 
ATOM     13  C   UNL A   1     -28.137   0.736  26.635  0.00  0.00    +0.004 A 
ATOM     14  C   UNL A   1     -29.236   0.076  27.069  0.00  0.00    +0.050 A 
ATOM     15  C   UNL A   1     -29.218  -0.643  28.175  0.00  0.00    +0.011 A 
BRANCH  14  16
ATOM     16  C   UNL A   1     -30.415   0.159  26.182  0.00  0.00    +0.254 C 
ATOM     17 CL   UNL A   1     -31.678  -0.773  26.529  0.00  0.00    -0.038 Cl
ATOM     18  O   UNL A   1     -30.407   0.882  25.087  0.00  0.00    -0.274 OA
ENDBRANCH  14  16
BRANCH  10  19
ATOM     19  C   UNL A   1     -28.054  -1.676  30.150  0.00  0.00    +0.388 C 
ATOM     20  O   UNL A   1     -28.130  -1.174  31.269  0.00  0.00    -0.241 OA
ATOM     21  O   UNL A   1     -27.910  -2.938  29.962  0.00  0.00    -0.241 OA
ENDBRANCH  10  19
ENDBRANCH   1  11
BRANCH   3  22
ATOM     22  C   UNL A   1     -22.542  -0.308  28.421  0.00  0.00    +0.008 A 
ATOM     23  C   UNL A   1     -23.101   0.834  27.719  0.00  0.00    -0.002 A 
ATOM     24  C   UNL A   1     -22.252   1.962  27.562  0.00  0.00    -0.000 A 
ATOM     25  C   UNL A   1     -20.889   1.740  27.846  0.00  0.00    -0.000 A 
ATOM     26  C   UNL A   1     -20.436   0.660  28.618  0.00  0.00    -0.000 A 
ATOM     27  C   UNL A   1     -21.255  -0.270  28.980  0.00  0.00    -0.002 A 
ENDBRANCH   3  22
TORSDOF 4
