MODEL 4522
MODEL 1
REMARK VINA RESULT:    -5.912      0.000      0.000
REMARK INTER + INTRA:          -8.872
REMARK INTER:                  -7.986
REMARK INTRA:                  -0.887
REMARK UNBOUND:                -0.887
REMARK  Name = No_4522-gen_results/8p0m/2024-11-26-14-13-15/
REMARK  6 active torsions:
REMARK  status: ('A' for Active; 'I' for Inactive)
REMARK    1  A    between atoms: C_1  and  C_2
REMARK    2  A    between atoms: C_1  and  C_8
REMARK    3  A    between atoms: C_3  and  O_15
REMARK    4  A    between atoms: C_5  and  C_11
REMARK    5  A    between atoms: C_8  and  O_17
REMARK    6  A    between atoms: O_15  and  C_16
REMARK                            x       y       z     vdW  Elec       q    Type
REMARK                         _______ _______ _______ _____ _____    ______ ____
ROOT
ATOM      1  C   UNL A   1     -23.744   0.399  28.147  0.00  0.00    +0.031 A 
ATOM      2  C   UNL A   1     -25.033  -0.089  28.064  0.00  0.00    +0.136 A 
ATOM      3  C   UNL A   1     -25.455  -1.430  28.421  0.00  0.00    +0.041 A 
ATOM      4  C   UNL A   1     -24.486  -2.346  28.888  0.00  0.00    +0.060 A 
ATOM      5  C   UNL A   1     -23.139  -1.845  28.992  0.00  0.00    +0.016 A 
ATOM      6  C   UNL A   1     -22.769  -0.558  28.683  0.00  0.00    +0.057 A 
ATOM      7 CL   UNL A   1     -21.176  -0.120  28.879  0.00  0.00    -0.083 Cl
ENDROOT
BRANCH   4   8
ATOM      8  C   UNL A   1     -24.794  -3.696  29.226  0.00  0.00    +0.284 C 
ATOM      9  N   UNL A   1     -25.995  -3.959  29.682  0.00  0.00    -0.084 NA
ATOM     10  O   UNL A   1     -23.954  -4.610  28.953  0.00  0.00    -0.267 OA
ENDBRANCH   4   8
BRANCH   1  11
ATOM     11  C   UNL A   1     -23.445   1.545  27.902  0.00  0.00    +0.131 C 
BRANCH  11  12
ATOM     12  C   UNL A   1     -22.854   1.748  26.569  0.00  0.00    +0.399 C 
ATOM     13  F   UNL A   1     -21.761   2.121  26.535  0.00  0.00    -0.172 F 
ATOM     14  F   UNL A   1     -23.532   1.301  25.628  0.00  0.00    -0.172 F 
BRANCH  12  15
ATOM     15  O   UNL A   1     -22.923   2.452  25.816  0.00  0.00    -0.118 OA
ATOM     16  F   UNL A   1     -22.274   2.761  24.580  0.00  0.00    -0.042 F 
ENDBRANCH  12  15
ENDBRANCH  11  12
ENDBRANCH   1  11
BRANCH   2  17
ATOM     17  O   UNL A   1     -25.988   0.686  27.639  0.00  0.00    -0.476 OA
BRANCH  17  18
ATOM     18  C   UNL A   1     -26.618   0.439  26.488  0.00  0.00    +0.205 C 
ATOM     19  C   UNL A   1     -26.839   1.656  25.714  0.00  0.00    +0.051 C 
ENDBRANCH  17  18
ENDBRANCH   2  17
TORSDOF 6
ENDMDL
ENDMDL
