MODEL 4523
MODEL 1
REMARK VINA RESULT:    -4.689      0.000      0.000
REMARK INTER + INTRA:          -5.347
REMARK INTER:                  -5.237
REMARK INTRA:                  -0.109
REMARK UNBOUND:                -0.109
REMARK  Name = No_4523-gen_results/8p0m/2024-11-26-14-13-15/
REMARK  2 active torsions:
REMARK  status: ('A' for Active; 'I' for Inactive)
REMARK    1  A    between atoms: C_2  and  N_7
REMARK    2  A    between atoms: N_7  and  C_8
REMARK                            x       y       z     vdW  Elec       q    Type
REMARK                         _______ _______ _______ _____ _____    ______ ____
ROOT
ATOM      1  C   UNL A   1     -23.484   0.339  28.169  0.00  0.00    +0.036 A 
ATOM      2  C   UNL A   1     -23.063  -0.618  28.776  0.00  0.00    +0.152 A 
ATOM      3  N   UNL A   1     -21.801  -0.844  28.996  0.00  0.00    -0.227 NA
ATOM      4  C   UNL A   1     -22.513   1.292  27.642  0.00  0.00    +0.004 A 
ATOM      5  C   UNL A   1     -21.226   1.076  27.762  0.00  0.00    +0.021 A 
ATOM      6  C   UNL A   1     -20.850  -0.044  28.475  0.00  0.00    +0.100 A 
ENDROOT
BRANCH   2   7
ATOM      7  N   UNL A   1     -23.912  -1.543  29.416  0.00  0.00    -0.193 NA
BRANCH   7   8
ATOM      8  C   UNL A   1     -23.815  -2.972  29.241  0.00  0.00    +0.083 C 
ATOM      9  C   UNL A   1     -25.054  -3.684  29.047  0.00  0.00    -0.008 C 
ATOM     10  C   UNL A   1     -24.872  -5.064  28.916  0.00  0.00    +0.032 C 
ENDBRANCH   7   8
ENDBRANCH   2   7
TORSDOF 2
ENDMDL
ENDMDL
