MODEL 4524
MODEL 1
REMARK VINA RESULT:    -6.883      0.000      0.000
REMARK INTER + INTRA:         -13.808
REMARK INTER:                 -10.505
REMARK INTRA:                  -3.303
REMARK UNBOUND:                -3.303
REMARK  Name = No_4524-gen_results/8p0m/2024-11-26-14-13-15/
REMARK  9 active torsions:
REMARK  status: ('A' for Active; 'I' for Inactive)
REMARK    1  A    between atoms: C_2  and  O_7
REMARK    2  A    between atoms: C_4  and  C_14
REMARK    3  A    between atoms: O_7  and  C_8
REMARK    4  A    between atoms: C_11  and  C_27
REMARK    5  A    between atoms: C_14  and  C_15
REMARK    6  A    between atoms: C_16  and  C_17
REMARK    7  A    between atoms: C_18  and  C_19
REMARK    8  A    between atoms: C_21  and  C_31
REMARK    9  A    between atoms: C_31  and  O_33
REMARK                            x       y       z     vdW  Elec       q    Type
REMARK                         _______ _______ _______ _____ _____    ______ ____
ROOT
ATOM      1  C   UNL A   1     -11.094  -0.767  40.069  0.00  0.00    +0.034 C 
ATOM      2  C   UNL A   1     -10.299  -0.771  41.342  0.00  0.00    +0.008 C 
ATOM      3  C   UNL A   1     -11.687  -2.284  39.858  0.00  0.00    +0.008 C 
ENDROOT
BRANCH   1   7
ATOM      4  C   UNL A   1     -10.069  -0.216  36.418  0.00  0.00    +0.037 A 
ATOM      5  C   UNL A   1      -9.083   0.108  36.598  0.00  0.00    +0.145 A 
ATOM      6  C   UNL A   1     -10.854  -0.625  37.594  0.00  0.00    -0.001 A 
ATOM      7  C   UNL A   1     -10.334  -0.449  38.909  0.00  0.00    -0.019 A 
ATOM      8  C   UNL A   1      -8.335   0.432  37.844  0.00  0.00    +0.037 A 
ATOM      9  C   UNL A   1      -9.027   0.056  38.957  0.00  0.00    -0.001 A 
BRANCH   5  10
ATOM     10  O   UNL A   1      -8.290   0.521  35.444  0.00  0.00    -0.453 OA
BRANCH  10  11
ATOM     11  C   UNL A   1      -7.116  -0.090  35.201  0.00  0.00    +0.148 A 
ATOM     12  C   UNL A   1      -6.094   0.574  35.271  0.00  0.00    +0.080 A 
ATOM     13  C   UNL A   1      -4.800  -0.035  34.968  0.00  0.00    +0.205 A 
ATOM     14  C   UNL A   1      -4.787  -1.401  34.621  0.00  0.00    +0.119 A 
ATOM     15  C   UNL A   1      -5.990  -2.075  34.566  0.00  0.00    +0.013 A 
ATOM     16  C   UNL A   1      -7.168  -1.490  34.809  0.00  0.00    +0.038 A 
ATOM     17  O   UNL A   1      -3.661   0.675  35.096  0.00  0.00    -0.286 OA
BRANCH  14  18
ATOM     18  C   UNL A   1      -3.498  -2.073  34.365  0.00  0.00    +0.391 C 
ATOM     19  O   UNL A   1      -2.990  -2.342  33.461  0.00  0.00    -0.240 OA
ATOM     20  O   UNL A   1      -2.964  -2.415  35.553  0.00  0.00    -0.240 OA
ENDBRANCH  14  18
ENDBRANCH  10  11
ENDBRANCH   5  10
ENDBRANCH   1   7
BRANCH   1  21
ATOM     21  C   UNL A   1     -12.278  -0.039  40.201  0.00  0.00    -0.041 C 
ATOM     22  C   UNL A   1     -12.233   1.378  40.417  0.00  0.00    -0.008 C 
ATOM     23  C   UNL A   1     -13.342  -0.581  41.280  0.00  0.00    +0.027 C 
BRANCH  22  24
ATOM     24  C   UNL A   1     -13.393   2.138  40.432  0.00  0.00    -0.001 C 
ATOM     25  C   UNL A   1     -13.361   3.270  39.563  0.00  0.00    -0.004 C 
BRANCH  25  26
ATOM     26  C   UNL A   1     -12.984   3.069  38.219  0.00  0.00    -0.018 C 
ATOM     27  C   UNL A   1     -13.589   3.013  37.412  0.00  0.00    +0.002 C 
ATOM     28  C   UNL A   1     -13.110   3.071  35.926  0.00  0.00    +0.071 C 
ATOM     29  C   UNL A   1     -11.775   3.276  35.836  0.00  0.00    -0.016 C 
ATOM     30  C   UNL A   1     -11.596   3.267  37.688  0.00  0.00    +0.044 C 
ATOM     31  C   UNL A   1     -10.361   3.523  38.220  0.00  0.00    +0.009 C 
BRANCH  28  32
ATOM     32  C   UNL A   1     -13.954   2.936  34.731  0.00  0.00    +0.341 C 
ATOM     33  O   UNL A   1     -14.969   3.159  34.493  0.00  0.00    -0.245 OA
BRANCH  32  34
ATOM     34  O   UNL A   1     -13.118   2.594  33.624  0.00  0.00    -0.441 OA
ATOM     35  C   UNL A   1     -13.183   1.308  33.207  0.00  0.00    +0.256 C 
ENDBRANCH  32  34
ENDBRANCH  28  32
ENDBRANCH  25  26
ENDBRANCH  22  24
ENDBRANCH   1  21
TORSDOF 9
ENDMDL
ENDMDL
