MODEL 4525
MODEL 1
REMARK VINA RESULT:    -5.917      0.000      0.000
REMARK INTER + INTRA:          -6.337
REMARK INTER:                  -6.262
REMARK INTRA:                  -0.074
REMARK UNBOUND:                -0.074
REMARK  Name = No_4525-gen_results/8p0m/2024-11-26-14-13-15/
REMARK  1 active torsions:
REMARK  status: ('A' for Active; 'I' for Inactive)
REMARK    1  A    between atoms: C_5  and  C_12
REMARK                            x       y       z     vdW  Elec       q    Type
REMARK                         _______ _______ _______ _____ _____    ______ ____
ROOT
ATOM      1  C   UNL A   1     -31.153 -10.179  30.005  0.00  0.00    +0.151 C 
ATOM      2  C   UNL A   1     -30.258 -10.481  30.761  0.00  0.00    -0.002 A 
ATOM      3  C   UNL A   1     -29.458 -11.594  30.592  0.00  0.00    -0.024 A 
ATOM      4  C   UNL A   1     -28.425 -12.040  31.508  0.00  0.00    +0.000 A 
ATOM      5  C   UNL A   1     -28.184 -11.287  32.679  0.00  0.00    +0.056 A 
ATOM      6  C   UNL A   1     -29.021 -10.131  32.874  0.00  0.00    +0.004 A 
ATOM      7  C   UNL A   1     -30.020  -9.748  32.009  0.00  0.00    -0.003 A 
ATOM      8  N   UNL A   1     -30.782  -9.941  28.702  0.00  0.00    -0.269 NA
ATOM      9  C   UNL A   1     -30.220 -10.550  27.990  0.00  0.00    +0.068 C 
ATOM     10  C   UNL A   1     -29.503 -11.732  28.167  0.00  0.00    +0.051 C 
ATOM     11  C   UNL A   1     -28.664 -11.870  29.317  0.00  0.00    +0.032 C 
ENDROOT
BRANCH   5  12
ATOM     12  C   UNL A   1     -27.260 -11.661  33.741  0.00  0.00    +0.284 C 
ATOM     13  O   UNL A   1     -26.669 -12.691  33.669  0.00  0.00    -0.267 OA
ATOM     14  N   UNL A   1     -26.793 -10.704  34.606  0.00  0.00    -0.084 NA
ENDBRANCH   5  12
TORSDOF 1
ENDMDL
ENDMDL
