REMARK  Name = No_4525-gen_results/8p0m/2024-11-26-14-13-15/
REMARK  1 active torsions:
REMARK  status: ('A' for Active; 'I' for Inactive)
REMARK    1  A    between atoms: C_5  and  C_12
REMARK                            x       y       z     vdW  Elec       q    Type
REMARK                         _______ _______ _______ _____ _____    ______ ____
ROOT
ATOM      1  C   UNL A   1     -28.016  -0.814  28.878  0.00  0.00    +0.151 C 
ATOM      2  C   UNL A   1     -27.064  -0.119  28.608  0.00  0.00    -0.002 A 
ATOM      3  C   UNL A   1     -27.001   0.691  27.491  0.00  0.00    -0.024 A 
ATOM      4  C   UNL A   1     -25.855   1.482  27.083  0.00  0.00    +0.000 A 
ATOM      5  C   UNL A   1     -24.690   1.453  27.881  0.00  0.00    +0.056 A 
ATOM      6  C   UNL A   1     -24.738   0.601  29.042  0.00  0.00    +0.004 A 
ATOM      7  C   UNL A   1     -25.823  -0.169  29.389  0.00  0.00    -0.003 A 
ATOM      8  N   UNL A   1     -29.207  -0.151  29.066  0.00  0.00    -0.269 NA
ATOM      9  C   UNL A   1     -29.747   0.555  28.431  0.00  0.00    +0.068 C 
ATOM     10  C   UNL A   1     -29.364   1.204  27.258  0.00  0.00    +0.051 C 
ATOM     11  C   UNL A   1     -28.047   1.755  27.167  0.00  0.00    +0.032 C 
ENDROOT
BRANCH   5  12
ATOM     12  C   UNL A   1     -23.430   2.105  27.551  0.00  0.00    +0.284 C 
ATOM     13  O   UNL A   1     -23.430   3.049  26.827  0.00  0.00    -0.267 OA
ATOM     14  N   UNL A   1     -22.325   1.888  28.334  0.00  0.00    -0.084 NA
ENDBRANCH   5  12
TORSDOF 1
