REMARK  Name = No_4526-gen_results/8p0m/2024-11-26-14-13-15/
REMARK  1 active torsions:
REMARK  status: ('A' for Active; 'I' for Inactive)
REMARK    1  A    between atoms: C_2  and  C_7
REMARK                            x       y       z     vdW  Elec       q    Type
REMARK                         _______ _______ _______ _____ _____    ______ ____
ROOT
ATOM      1  C   UNL A   1     -30.061  -0.737  29.902  0.00  0.00    +0.253 C 
ATOM      2  O   UNL A   1     -30.725  -1.554  30.270  0.00  0.00    -0.270 OA
ATOM      3  N   UNL A   1     -30.556   0.424  29.312  0.00  0.00    -0.250 N 
ATOM      4  C   UNL A   1     -31.965   0.564  29.163  0.00  0.00    +0.096 C 
ATOM      5  C   UNL A   1     -32.285   1.270  28.134  0.00  0.00    +0.022 C 
ATOM      6  C   UNL A   1     -31.362   2.110  27.389  0.00  0.00    +0.006 C 
ATOM      7  C   UNL A   1     -29.973   1.899  27.623  0.00  0.00    +0.057 C 
ATOM      8  C   UNL A   1     -29.613   1.050  28.487  0.00  0.00    +0.240 C 
ATOM      9  F   UNL A   1     -28.344   0.874  28.376  0.00  0.00    -0.215 F 
ENDROOT
BRANCH   1  11
ATOM     10  C   UNL A   1     -28.016  -0.814  28.878  0.00  0.00    +0.144 A 
ATOM     11  C   UNL A   1     -28.469  -0.785  29.829  0.00  0.00    +0.081 A 
ATOM     12  C   UNL A   1     -26.546  -0.876  28.850  0.00  0.00    +0.030 A 
ATOM     13  C   UNL A   1     -25.804  -1.032  30.057  0.00  0.00    +0.002 A 
ATOM     14  C   UNL A   1     -27.944  -0.987  31.207  0.00  0.00    +0.007 A 
ATOM     15  C   UNL A   1     -26.582  -1.039  31.223  0.00  0.00    +0.000 A 
ATOM     16  F   UNL A   1     -28.410  -1.389  27.858  0.00  0.00    -0.204 F 
ENDBRANCH   1  11
TORSDOF 1
