MODEL 4527
MODEL 1
REMARK VINA RESULT:    -7.524      0.000      0.000
REMARK INTER + INTRA:          -7.902
REMARK INTER:                  -7.963
REMARK INTRA:                   0.061
REMARK UNBOUND:                 0.061
REMARK  Name = No_4527-gen_results/8p0m/2024-11-26-14-13-15/
REMARK  1 active torsions:
REMARK  status: ('A' for Active; 'I' for Inactive)
REMARK    1  A    between atoms: C_3  and  C_8
REMARK                            x       y       z     vdW  Elec       q    Type
REMARK                         _______ _______ _______ _____ _____    ______ ____
ROOT
ATOM      1  N   UNL A   1     -22.051  -1.492  29.164  0.00  0.00    -0.128 NA
ATOM      2  C   UNL A   1     -22.736  -0.679  29.129  0.00  0.00    +0.089 A 
ATOM      3  C   UNL A   1     -23.963  -0.841  28.582  0.00  0.00    +0.017 A 
ATOM      4  C   UNL A   1     -24.428  -0.126  27.410  0.00  0.00    +0.001 A 
ATOM      5  C   UNL A   1     -24.218   0.931  27.210  0.00  0.00    +0.000 A 
ATOM      6  C   UNL A   1     -23.040   1.543  27.972  0.00  0.00    +0.001 A 
ATOM      7  C   UNL A   1     -22.305   0.683  28.751  0.00  0.00    +0.018 A 
ATOM      8  C   UNL A   1     -24.145   1.544  25.800  0.00  0.00    +0.000 A 
ATOM      9  C   UNL A   1     -25.013   0.830  24.824  0.00  0.00    +0.000 A 
ATOM     10  C   UNL A   1     -25.616  -0.393  25.233  0.00  0.00    +0.000 A 
ATOM     11  C   UNL A   1     -25.283  -0.909  26.402  0.00  0.00    +0.000 A 
ENDROOT
BRANCH   3  12
ATOM     12  C   UNL A   1     -24.656  -2.161  28.917  0.00  0.00    +0.001 A 
ATOM     13  C   UNL A   1     -25.830  -2.041  29.585  0.00  0.00    +0.000 A 
ATOM     14  C   UNL A   1     -24.110  -3.425  28.570  0.00  0.00    +0.000 A 
ATOM     15  C   UNL A   1     -26.491  -3.240  29.964  0.00  0.00    +0.000 A 
ATOM     16  C   UNL A   1     -24.739  -4.582  28.926  0.00  0.00    +0.000 A 
ATOM     17  C   UNL A   1     -25.933  -4.532  29.597  0.00  0.00    +0.000 A 
ENDBRANCH   3  12
TORSDOF 1
ENDMDL
ENDMDL
