REMARK  Name = No_4527-gen_results/8p0m/2024-11-26-14-13-15/
REMARK  1 active torsions:
REMARK  status: ('A' for Active; 'I' for Inactive)
REMARK    1  A    between atoms: C_3  and  C_8
REMARK                            x       y       z     vdW  Elec       q    Type
REMARK                         _______ _______ _______ _____ _____    ______ ____
ROOT
ATOM      1  N   UNL A   1     -28.054  -1.050  28.725  0.00  0.00    -0.128 NA
ATOM      2  C   UNL A   1     -27.746  -0.073  29.010  0.00  0.00    +0.089 A 
ATOM      3  C   UNL A   1     -27.174   0.756  28.107  0.00  0.00    +0.017 A 
ATOM      4  C   UNL A   1     -25.820   1.261  28.215  0.00  0.00    +0.001 A 
ATOM      5  C   UNL A   1     -25.354   1.579  29.155  0.00  0.00    +0.000 A 
ATOM      6  C   UNL A   1     -26.006   1.064  30.441  0.00  0.00    +0.001 A 
ATOM      7  C   UNL A   1     -27.043   0.177  30.286  0.00  0.00    +0.018 A 
ATOM      8  C   UNL A   1     -23.840   1.533  29.427  0.00  0.00    +0.000 A 
ATOM      9  C   UNL A   1     -23.035   1.691  28.185  0.00  0.00    +0.000 A 
ATOM     10  C   UNL A   1     -23.716   1.661  26.936  0.00  0.00    +0.000 A 
ATOM     11  C   UNL A   1     -25.003   1.367  26.918  0.00  0.00    +0.000 A 
ENDROOT
BRANCH   3  12
ATOM     12  C   UNL A   1     -27.805   0.736  26.715  0.00  0.00    +0.001 A 
ATOM     13  C   UNL A   1     -29.158   0.833  26.696  0.00  0.00    +0.000 A 
ATOM     14  C   UNL A   1     -27.039   0.613  25.526  0.00  0.00    +0.000 A 
ATOM     15  C   UNL A   1     -29.799   0.770  25.430  0.00  0.00    +0.000 A 
ATOM     16  C   UNL A   1     -27.645   0.555  24.305  0.00  0.00    +0.000 A 
ATOM     17  C   UNL A   1     -29.009   0.654  24.214  0.00  0.00    +0.000 A 
ENDBRANCH   3  12
TORSDOF 1
