REMARK  Name = No_4528-gen_results/8p0m/2024-11-26-14-13-15/
REMARK  4 active torsions:
REMARK  status: ('A' for Active; 'I' for Inactive)
REMARK    1  A    between atoms: C_3  and  C_21
REMARK    2  A    between atoms: C_4  and  C_14
REMARK    3  A    between atoms: C_5  and  C_11
REMARK    4  A    between atoms: C_11  and  C_12
REMARK                            x       y       z     vdW  Elec       q    Type
REMARK                         _______ _______ _______ _____ _____    ______ ____
ROOT
ATOM      1  C   UNL A   1     -28.016  -0.814  28.878  0.00  0.00    +0.053 C 
ATOM      2  C   UNL A   1     -27.064  -0.119  28.608  0.00  0.00    -0.013 C 
ATOM      3  C   UNL A   1     -26.876   1.133  28.913  0.00  0.00    +0.053 C 
ATOM      4  C   UNL A   1     -25.688   1.952  28.567  0.00  0.00    +0.112 C 
ATOM      5  C   UNL A   1     -24.639   1.283  27.875  0.00  0.00    +0.024 C 
ATOM      6  C   UNL A   1     -24.807  -0.051  27.604  0.00  0.00    +0.030 C 
ATOM      7  C   UNL A   1     -25.902  -0.767  27.951  0.00  0.00    +0.123 C 
ATOM      8  C   UNL A   1     -28.061  -1.429  30.283  0.00  0.00    +0.270 C 
ATOM      9  N   UNL A   1     -27.106  -1.851  30.734  0.00  0.00    -0.154 NA
ATOM     10  O   UNL A   1     -29.189  -1.514  30.873  0.00  0.00    -0.268 OA
ATOM     11  C   UNL A   1     -25.752  -1.895  30.206  0.00  0.00    +0.184 C 
ATOM     12  N   UNL A   1     -25.332  -1.685  29.166  0.00  0.00    -0.250 NA
ENDROOT
BRANCH   3  13
ATOM     13  C   UNL A   1     -27.963   2.018  29.562  0.00  0.00    -0.018 A 
ATOM     14  C   UNL A   1     -28.324   3.260  29.248  0.00  0.00    -0.004 A 
ATOM     15  C   UNL A   1     -29.440   3.726  29.853  0.00  0.00    -0.000 A 
ATOM     16  C   UNL A   1     -30.200   2.930  30.707  0.00  0.00    -0.000 A 
ATOM     17  C   UNL A   1     -29.823   1.665  31.041  0.00  0.00    -0.000 A 
ATOM     18  C   UNL A   1     -28.700   1.208  30.475  0.00  0.00    -0.004 A 
ENDBRANCH   3  13
BRANCH   4  19
ATOM     19  C   UNL A   1     -25.519   3.382  28.918  0.00  0.00    +0.365 C 
ATOM     20  O   UNL A   1     -25.100   3.675  30.014  0.00  0.00    -0.246 OA
ATOM     21  O   UNL A   1     -25.722   4.250  27.987  0.00  0.00    -0.246 OA
ENDBRANCH   4  19
BRANCH   5  22
ATOM     22  C   UNL A   1     -23.413   1.980  27.504  0.00  0.00    +0.104 C 
ATOM     23  C   UNL A   1     -23.462   2.817  26.334  0.00  0.00    +0.012 C 
BRANCH  22  24
ATOM     24  C   UNL A   1     -22.145   1.585  28.096  0.00  0.00    +0.364 C 
ATOM     25  O   UNL A   1     -22.050   1.016  29.183  0.00  0.00    -0.246 OA
ATOM     26  O   UNL A   1     -20.988   1.735  27.424  0.00  0.00    -0.246 OA
ENDBRANCH  22  24
ENDBRANCH   5  22
TORSDOF 4
