MODEL 4528
MODEL 1
REMARK VINA RESULT:    -6.597      0.000      0.000
REMARK INTER + INTRA:          -8.934
REMARK INTER:                  -8.139
REMARK INTRA:                  -0.794
REMARK UNBOUND:                -0.794
REMARK  Name = No_4528-gen_results/8p0m/2024-11-26-14-13-15/
REMARK  4 active torsions:
REMARK  status: ('A' for Active; 'I' for Inactive)
REMARK    1  A    between atoms: C_3  and  C_21
REMARK    2  A    between atoms: C_4  and  C_14
REMARK    3  A    between atoms: C_5  and  C_11
REMARK    4  A    between atoms: C_11  and  C_12
REMARK                            x       y       z     vdW  Elec       q    Type
REMARK                         _______ _______ _______ _____ _____    ______ ____
ROOT
ATOM      1  C   UNL A   1     -27.471  -7.135   8.826  0.00  0.00    +0.053 C 
ATOM      2  C   UNL A   1     -28.014  -8.161   9.166  0.00  0.00    -0.013 C 
ATOM      3  C   UNL A   1     -29.274  -8.347   9.440  0.00  0.00    +0.053 C 
ATOM      4  C   UNL A   1     -29.904  -9.626   9.849  0.00  0.00    +0.112 C 
ATOM      5  C   UNL A   1     -29.049 -10.764   9.899  0.00  0.00    +0.024 C 
ATOM      6  C   UNL A   1     -27.734 -10.585   9.554  0.00  0.00    +0.030 C 
ATOM      7  C   UNL A   1     -27.200  -9.402   9.171  0.00  0.00    +0.123 C 
ATOM      8  C   UNL A   1     -27.573  -6.743   7.346  0.00  0.00    +0.270 C 
ATOM      9  N   UNL A   1     -27.460  -7.548   6.551  0.00  0.00    -0.154 NA
ATOM     10  O   UNL A   1     -27.709  -5.509   7.053  0.00  0.00    -0.268 OA
ATOM     11  C   UNL A   1     -27.251  -8.981   6.681  0.00  0.00    +0.184 C 
ATOM     12  N   UNL A   1     -26.980  -9.634   7.577  0.00  0.00    -0.250 NA
ENDROOT
BRANCH   3  13
ATOM     13  C   UNL A   1     -30.298  -7.194   9.534  0.00  0.00    -0.018 A 
ATOM     14  C   UNL A   1     -30.520  -6.357  10.545  0.00  0.00    -0.004 A 
ATOM     15  C   UNL A   1     -31.343  -5.316  10.285  0.00  0.00    -0.000 A 
ATOM     16  C   UNL A   1     -31.876  -5.099   9.016  0.00  0.00    -0.000 A 
ATOM     17  C   UNL A   1     -31.661  -5.963   7.986  0.00  0.00    -0.000 A 
ATOM     18  C   UNL A   1     -30.877  -7.016   8.244  0.00  0.00    -0.004 A 
ENDBRANCH   3  13
BRANCH   4  19
ATOM     19  C   UNL A   1     -31.341  -9.793  10.169  0.00  0.00    +0.365 C 
ATOM     20  O   UNL A   1     -31.729  -9.546  11.288  0.00  0.00    -0.246 OA
ATOM     21  O   UNL A   1     -32.136 -10.088   9.199  0.00  0.00    -0.246 OA
ENDBRANCH   4  19
BRANCH   5  22
ATOM     22  C   UNL A   1     -29.562 -12.079  10.265  0.00  0.00    +0.104 C 
ATOM     23  C   UNL A   1     -30.037 -12.919   9.197  0.00  0.00    +0.012 C 
BRANCH  22  24
ATOM     24  C   UNL A   1     -29.872 -12.377  11.654  0.00  0.00    +0.364 C 
ATOM     25  O   UNL A   1     -29.185 -11.997  12.601  0.00  0.00    -0.246 OA
ATOM     26  O   UNL A   1     -31.010 -13.015  11.990  0.00  0.00    -0.246 OA
ENDBRANCH  22  24
ENDBRANCH   5  22
TORSDOF 4
ENDMDL
ENDMDL
