MODEL 4529
MODEL 1
REMARK VINA RESULT:    -7.803      0.000      0.000
REMARK INTER + INTRA:         -10.712
REMARK INTER:                  -9.627
REMARK INTRA:                  -1.085
REMARK UNBOUND:                -1.085
REMARK  Name = No_4529-gen_results/8p0m/2024-11-26-14-13-15/
REMARK  4 active torsions:
REMARK  status: ('A' for Active; 'I' for Inactive)
REMARK    1  A    between atoms: C_5  and  N_10
REMARK    2  A    between atoms: C_26  and  C_29
REMARK    3  A    between atoms: C_31  and  C_32
REMARK    4  A    between atoms: C_32  and  C_33
REMARK                            x       y       z     vdW  Elec       q    Type
REMARK                         _______ _______ _______ _____ _____    ______ ____
ROOT
ATOM      1  C   UNL A   1     -27.652   0.420  27.138  0.00  0.00    +0.056 A 
ATOM      2  C   UNL A   1     -26.539   0.856  26.954  0.00  0.00    +0.003 A 
ATOM      3  C   UNL A   1     -25.980   1.116  25.714  0.00  0.00    +0.015 A 
ATOM      4  C   UNL A   1     -26.798   0.877  24.571  0.00  0.00    +0.013 A 
ATOM      5  C   UNL A   1     -28.079   0.535  24.818  0.00  0.00    +0.048 A 
ATOM      6  C   UNL A   1     -28.147   0.251  28.477  0.00  0.00    +0.269 C 
ATOM      7  C   UNL A   1     -28.496   0.343  26.060  0.00  0.00    +0.019 A 
ATOM      8  N   UNL A   1     -27.489  -0.500  29.318  0.00  0.00    -0.176 NA
ATOM      9  O   UNL A   1     -29.308   0.606  28.849  0.00  0.00    -0.268 OA
ATOM     10  C   UNL A   1     -26.143  -0.987  29.098  0.00  0.00    +0.073 A 
ATOM     11  C   UNL A   1     -25.899  -2.369  29.186  0.00  0.00    +0.037 A 
ATOM     12  C   UNL A   1     -25.184  -2.623  30.348  0.00  0.00    +0.100 A 
ATOM     13  N   UNL A   1     -24.058  -2.701  30.059  0.00  0.00    -0.243 NA
ATOM     14  C   UNL A   1     -25.093  -0.215  29.955  0.00  0.00    +0.012 A 
ATOM     15  C   UNL A   1     -23.781  -1.115  29.674  0.00  0.00    +0.096 A 
ATOM     16  C   UNL A   1     -24.680   1.170  29.577  0.00  0.00    +0.029 C 
ATOM     17  C   UNL A   1     -23.427   1.509  29.219  0.00  0.00    +0.031 C 
ATOM     18  C   UNL A   1     -23.158   1.678  27.893  0.00  0.00    -0.022 A 
ATOM     19  C   UNL A   1     -21.742   1.744  27.476  0.00  0.00    -0.004 A 
ATOM     20  C   UNL A   1     -21.463   1.981  26.107  0.00  0.00    -0.001 A 
ATOM     21  C   UNL A   1     -22.577   2.019  25.173  0.00  0.00    -0.001 A 
ATOM     22  C   UNL A   1     -23.721   2.323  25.559  0.00  0.00    +0.014 A 
ATOM     23  C   UNL A   1     -24.066   2.116  26.930  0.00  0.00    -0.005 A 
ATOM     24  C   UNL A   1     -24.709   1.757  25.611  0.00  0.00    +0.206 C 
ATOM     25  F   UNL A   1     -24.222   0.843  24.627  0.00  0.00    -0.228 F 
ATOM     26  C   UNL A   1     -25.325   2.225  30.575  0.00  0.00    +0.005 C 
ENDROOT
BRANCH   5  27
ATOM     27  N   UNL A   1     -28.891   0.345  23.699  0.00  0.00    -0.304 N 
ATOM     28  C   UNL A   1     -29.474  -0.788  23.345  0.00  0.00    +0.112 C 
ATOM     29  C   UNL A   1     -29.888   1.466  23.474  0.00  0.00    +0.112 C 
ENDBRANCH   5  27
BRANCH  23  30
ATOM     30  C   UNL A   1     -24.972   3.112  27.692  0.00  0.00    -0.005 C 
ATOM     31  C   UNL A   1     -24.932   4.293  27.352  0.00  0.00    -0.021 C 
BRANCH  31  32
ATOM     32  C   UNL A   1     -25.698   5.358  27.948  0.00  0.00    +0.052 C 
BRANCH  32  33
ATOM     33  C   UNL A   1     -25.635   6.631  27.510  0.00  0.00    -0.026 C 
ATOM     34  C   UNL A   1     -24.570   7.153  27.114  0.00  0.00    -0.030 C 
ATOM     35  C   UNL A   1     -24.065   8.109  27.210  0.00  0.00    +0.030 C 
ENDBRANCH  32  33
ENDBRANCH  31  32
ENDBRANCH  23  30
TORSDOF 4
ENDMDL
ENDMDL
