REMARK  Name = No_4529-gen_results/8p0m/2024-11-26-14-13-15/
REMARK  4 active torsions:
REMARK  status: ('A' for Active; 'I' for Inactive)
REMARK    1  A    between atoms: C_5  and  N_10
REMARK    2  A    between atoms: C_26  and  C_29
REMARK    3  A    between atoms: C_31  and  C_32
REMARK    4  A    between atoms: C_32  and  C_33
REMARK                            x       y       z     vdW  Elec       q    Type
REMARK                         _______ _______ _______ _____ _____    ______ ____
ROOT
ATOM      1  C   UNL A   1     -28.016  -0.814  28.878  0.00  0.00    +0.056 A 
ATOM      2  C   UNL A   1     -27.064  -0.119  28.608  0.00  0.00    +0.003 A 
ATOM      3  C   UNL A   1     -26.972   0.714  27.506  0.00  0.00    +0.015 A 
ATOM      4  C   UNL A   1     -28.105   0.774  26.642  0.00  0.00    +0.013 A 
ATOM      5  C   UNL A   1     -29.201   0.104  27.053  0.00  0.00    +0.048 A 
ATOM      6  C   UNL A   1     -28.022  -1.590  30.088  0.00  0.00    +0.269 C 
ATOM      7  C   UNL A   1     -29.164  -0.639  28.148  0.00  0.00    +0.019 A 
ATOM      8  N   UNL A   1     -27.067  -2.454  30.304  0.00  0.00    -0.176 NA
ATOM      9  O   UNL A   1     -29.015  -1.659  30.876  0.00  0.00    -0.268 OA
ATOM     10  C   UNL A   1     -25.840  -2.524  29.538  0.00  0.00    +0.073 A 
ATOM     11  C   UNL A   1     -25.480  -3.748  28.945  0.00  0.00    +0.037 A 
ATOM     12  C   UNL A   1     -24.401  -4.279  29.638  0.00  0.00    +0.100 A 
ATOM     13  N   UNL A   1     -23.434  -4.002  29.051  0.00  0.00    -0.243 NA
ATOM     14  C   UNL A   1     -24.624  -1.947  30.325  0.00  0.00    +0.012 A 
ATOM     15  C   UNL A   1     -23.419  -2.371  29.337  0.00  0.00    +0.096 A 
ATOM     16  C   UNL A   1     -24.464  -0.471  30.492  0.00  0.00    +0.029 C 
ATOM     17  C   UNL A   1     -23.431   0.234  29.993  0.00  0.00    +0.031 C 
ATOM     18  C   UNL A   1     -23.634   0.958  28.856  0.00  0.00    -0.022 A 
ATOM     19  C   UNL A   1     -22.447   1.475  28.143  0.00  0.00    -0.004 A 
ATOM     20  C   UNL A   1     -22.660   2.279  26.995  0.00  0.00    -0.001 A 
ATOM     21  C   UNL A   1     -24.021   2.445  26.512  0.00  0.00    -0.001 A 
ATOM     22  C   UNL A   1     -24.990   2.329  27.286  0.00  0.00    +0.014 A 
ATOM     23  C   UNL A   1     -24.841   1.537  28.467  0.00  0.00    -0.005 A 
ATOM     24  C   UNL A   1     -25.859   1.595  27.352  0.00  0.00    +0.206 C 
ATOM     25  F   UNL A   1     -25.663   1.259  25.977  0.00  0.00    -0.228 F 
ATOM     26  C   UNL A   1     -24.814  -0.048  31.983  0.00  0.00    +0.005 C 
ENDROOT
BRANCH   5  27
ATOM     27  N   UNL A   1     -30.324   0.200  26.230  0.00  0.00    -0.304 N 
ATOM     28  C   UNL A   1     -30.322   0.187  24.908  0.00  0.00    +0.112 C 
ATOM     29  C   UNL A   1     -31.494  -0.644  26.697  0.00  0.00    +0.112 C 
ENDBRANCH   5  27
BRANCH  23  30
ATOM     30  C   UNL A   1     -25.510   1.944  29.800  0.00  0.00    -0.005 C 
ATOM     31  C   UNL A   1     -25.376   3.109  30.172  0.00  0.00    -0.021 C 
BRANCH  31  32
ATOM     32  C   UNL A   1     -25.922   3.664  31.384  0.00  0.00    +0.052 C 
BRANCH  32  33
ATOM     33  C   UNL A   1     -27.092   4.334  31.413  0.00  0.00    -0.026 C 
ATOM     34  C   UNL A   1     -27.730   4.615  30.376  0.00  0.00    -0.030 C 
ATOM     35  C   UNL A   1     -28.288   5.461  29.985  0.00  0.00    +0.030 C 
ENDBRANCH  32  33
ENDBRANCH  31  32
ENDBRANCH  23  30
TORSDOF 4
