MODEL 452
MODEL 1
REMARK VINA RESULT:    -5.914      0.000      0.000
REMARK INTER + INTRA:          -6.439
REMARK INTER:                  -6.259
REMARK INTRA:                  -0.180
REMARK UNBOUND:                -0.180
REMARK  Name = No_452-gen_results/8p0m/2024-11-26-14-13-15/
REMARK  1 active torsions:
REMARK  status: ('A' for Active; 'I' for Inactive)
REMARK    1  A    between atoms: C_5  and  C_11
REMARK                            x       y       z     vdW  Elec       q    Type
REMARK                         _______ _______ _______ _____ _____    ______ ____
ROOT
ATOM      1  C   UNL A   1     -26.474  -3.856  29.915  0.00  0.00    +0.099 A 
ATOM      2  C   UNL A   1     -25.671  -2.957  29.806  0.00  0.00    +0.019 A 
ATOM      3  C   UNL A   1     -24.468  -3.147  29.135  0.00  0.00    +0.003 A 
ATOM      4  C   UNL A   1     -23.398  -2.127  28.943  0.00  0.00    +0.004 A 
ATOM      5  C   UNL A   1     -23.718  -0.800  29.357  0.00  0.00    +0.071 A 
ATOM      6  C   UNL A   1     -24.968  -0.618  29.981  0.00  0.00    +0.004 A 
ATOM      7  C   UNL A   1     -25.871  -1.591  30.174  0.00  0.00    +0.002 A 
ATOM      8  N   UNL A   1     -26.094  -5.200  29.680  0.00  0.00    -0.242 NA
ATOM      9  C   UNL A   1     -24.972  -5.461  28.914  0.00  0.00    +0.099 A 
ATOM     10  C   UNL A   1     -24.044  -4.461  28.680  0.00  0.00    +0.021 A 
ENDROOT
BRANCH   5  11
ATOM     11  C   UNL A   1     -22.729   0.260  29.147  0.00  0.00    +0.419 C 
ATOM     12  F   UNL A   1     -23.013   1.286  29.641  0.00  0.00    -0.166 F 
ATOM     13  F   UNL A   1     -21.505  -0.069  29.657  0.00  0.00    -0.166 F 
ATOM     14  F   UNL A   1     -22.415   0.441  27.822  0.00  0.00    -0.166 F 
ENDBRANCH   5  11
TORSDOF 1
ENDMDL
ENDMDL
