REMARK  Name = No_4530-gen_results/8p0m/2024-11-26-14-13-15/
REMARK  3 active torsions:
REMARK  status: ('A' for Active; 'I' for Inactive)
REMARK    1  A    between atoms: C_3  and  C_7
REMARK    2  A    between atoms: C_8  and  C_9
REMARK    3  A    between atoms: C_10  and  O_16
REMARK                            x       y       z     vdW  Elec       q    Type
REMARK                         _______ _______ _______ _____ _____    ______ ____
ROOT
ATOM      1  C   UNL A   1     -26.317   0.399  27.365  0.00  0.00    -0.022 C 
ATOM      2  C   UNL A   1     -26.881   0.971  26.372  0.00  0.00    -0.001 C 
ATOM      3  C   UNL A   1     -25.046  -0.237  27.458  0.00  0.00    +0.031 C 
ENDROOT
BRANCH   1   6
ATOM      4  C   UNL A   1     -28.016  -0.814  28.878  0.00  0.00    -0.000 A 
ATOM      5  C   UNL A   1     -28.469  -0.785  29.829  0.00  0.00    -0.000 A 
ATOM      6  C   UNL A   1     -27.087   0.290  28.638  0.00  0.00    -0.004 A 
ATOM      7  C   UNL A   1     -26.832   1.249  29.587  0.00  0.00    -0.000 A 
ATOM      8  C   UNL A   1     -28.391   0.080  31.006  0.00  0.00    -0.000 A 
ATOM      9  C   UNL A   1     -27.494   1.152  30.784  0.00  0.00    -0.000 A 
ENDBRANCH   1   6
BRANCH   2  10
ATOM     10  C   UNL A   1     -28.203   1.464  26.421  0.00  0.00    +0.034 A 
ATOM     11  C   UNL A   1     -28.848   1.701  27.451  0.00  0.00    +0.139 A 
ATOM     12  C   UNL A   1     -29.941   2.269  27.524  0.00  0.00    +0.037 A 
ATOM     13  C   UNL A   1     -30.524   2.734  26.242  0.00  0.00    +0.003 A 
ATOM     14  C   UNL A   1     -29.845   2.546  25.062  0.00  0.00    +0.000 A 
ATOM     15  C   UNL A   1     -28.627   2.073  25.100  0.00  0.00    +0.003 A 
BRANCH  11  16
ATOM     16  O   UNL A   1     -28.645   1.214  28.676  0.00  0.00    -0.471 OA
ATOM     17  C   UNL A   1     -29.406   1.622  29.484  0.00  0.00    +0.253 C 
ENDBRANCH  11  16
ENDBRANCH   2  10
TORSDOF 3
