MODEL 4531
MODEL 1
REMARK VINA RESULT:    -6.647      0.000      0.000
REMARK INTER + INTRA:          -7.907
REMARK INTER:                  -7.424
REMARK INTRA:                  -0.483
REMARK UNBOUND:                -0.483
REMARK  Name = No_4531-gen_results/8p0m/2024-11-26-14-13-15/
REMARK  2 active torsions:
REMARK  status: ('A' for Active; 'I' for Inactive)
REMARK    1  A    between atoms: C_3  and  C_7
REMARK    2  A    between atoms: C_6  and  C_12
REMARK                            x       y       z     vdW  Elec       q    Type
REMARK                         _______ _______ _______ _____ _____    ______ ____
ROOT
ATOM      1  C   UNL A   1     -23.690   1.512  29.812  0.00  0.00    +0.015 A 
ATOM      2  C   UNL A   1     -24.155   1.041  30.631  0.00  0.00    +0.058 A 
ATOM      3  C   UNL A   1     -23.437   0.735  28.660  0.00  0.00    +0.072 A 
ATOM      4  C   UNL A   1     -23.770  -0.604  28.595  0.00  0.00    +0.005 A 
ATOM      5  C   UNL A   1     -24.609  -0.352  30.818  0.00  0.00    +0.013 A 
ATOM      6  C   UNL A   1     -24.385  -1.131  29.738  0.00  0.00    +0.018 A 
ATOM      7 CL   UNL A   1     -24.616   2.023  32.102  0.00  0.00    -0.082 Cl
ENDROOT
BRANCH   6   8
ATOM      8  C   UNL A   1     -24.722  -2.596  29.725  0.00  0.00    +0.081 A 
ATOM      9  N   UNL A   1     -25.668  -3.043  29.891  0.00  0.00    -0.244 NA
ATOM     10  C   UNL A   1     -26.120  -4.312  29.703  0.00  0.00    +0.099 A 
ATOM     11  C   UNL A   1     -23.893  -3.397  28.822  0.00  0.00    +0.019 A 
ATOM     12  C   UNL A   1     -24.118  -4.738  28.612  0.00  0.00    +0.003 A 
ATOM     13  C   UNL A   1     -25.328  -5.261  29.103  0.00  0.00    +0.021 A 
ENDBRANCH   6   8
BRANCH   3  14
ATOM     14  C   UNL A   1     -22.814   1.294  27.414  0.00  0.00    +0.419 C 
ATOM     15  F   UNL A   1     -21.602   0.911  27.412  0.00  0.00    -0.166 F 
ATOM     16  F   UNL A   1     -23.463   0.873  26.330  0.00  0.00    -0.166 F 
ATOM     17  F   UNL A   1     -22.770   2.657  27.443  0.00  0.00    -0.166 F 
ENDBRANCH   3  14
TORSDOF 2
ENDMDL
ENDMDL
