REMARK  Name = No_4531-gen_results/8p0m/2024-11-26-14-13-15/
REMARK  2 active torsions:
REMARK  status: ('A' for Active; 'I' for Inactive)
REMARK    1  A    between atoms: C_3  and  C_7
REMARK    2  A    between atoms: C_6  and  C_12
REMARK                            x       y       z     vdW  Elec       q    Type
REMARK                         _______ _______ _______ _____ _____    ______ ____
ROOT
ATOM      1  C   UNL A   1     -28.016  -0.814  28.878  0.00  0.00    +0.015 A 
ATOM      2  C   UNL A   1     -28.469  -0.785  29.829  0.00  0.00    +0.058 A 
ATOM      3  C   UNL A   1     -27.136   0.236  28.535  0.00  0.00    +0.072 A 
ATOM      4  C   UNL A   1     -26.875   1.282  29.398  0.00  0.00    +0.005 A 
ATOM      5  C   UNL A   1     -28.361   0.199  30.924  0.00  0.00    +0.013 A 
ATOM      6  C   UNL A   1     -27.528   1.223  30.636  0.00  0.00    +0.018 A 
ATOM      7 CL   UNL A   1     -29.521  -2.176  30.375  0.00  0.00    -0.082 Cl
ENDROOT
BRANCH   6   8
ATOM      8  C   UNL A   1     -27.306   2.365  31.587  0.00  0.00    +0.081 A 
ATOM      9  N   UNL A   1     -26.383   2.723  31.964  0.00  0.00    -0.244 NA
ATOM     10  C   UNL A   1     -26.056   3.851  32.650  0.00  0.00    +0.099 A 
ATOM     11  C   UNL A   1     -28.304   3.433  31.489  0.00  0.00    +0.019 A 
ATOM     12  C   UNL A   1     -28.209   4.597  32.217  0.00  0.00    +0.003 A 
ATOM     13  C   UNL A   1     -26.988   4.835  32.874  0.00  0.00    +0.021 A 
ENDBRANCH   6   8
BRANCH   3  14
ATOM     14  C   UNL A   1     -26.399   0.295  27.228  0.00  0.00    +0.419 C 
ATOM     15  F   UNL A   1     -26.235   1.527  26.960  0.00  0.00    -0.166 F 
ATOM     16  F   UNL A   1     -25.236  -0.348  27.310  0.00  0.00    -0.166 F 
ATOM     17  F   UNL A   1     -27.150  -0.208  26.206  0.00  0.00    -0.166 F 
ENDBRANCH   3  14
TORSDOF 2
