REMARK  Name = No_4532-gen_results/8p0m/2024-11-26-14-13-15/
REMARK  1 active torsions:
REMARK  status: ('A' for Active; 'I' for Inactive)
REMARK    1  A    between atoms: C_5  and  C_9
REMARK                            x       y       z     vdW  Elec       q    Type
REMARK                         _______ _______ _______ _____ _____    ______ ____
ROOT
ATOM      1  C   UNL A   1     -28.016  -0.814  28.878  0.00  0.00    +0.099 A 
ATOM      2  C   UNL A   1     -27.064  -0.119  28.608  0.00  0.00    +0.019 A 
ATOM      3  C   UNL A   1     -27.001   0.691  27.491  0.00  0.00    +0.002 A 
ATOM      4  C   UNL A   1     -25.855   1.482  27.083  0.00  0.00    +0.007 A 
ATOM      5  C   UNL A   1     -24.690   1.453  27.881  0.00  0.00    +0.080 A 
ATOM      6  C   UNL A   1     -24.738   0.601  29.042  0.00  0.00    +0.007 A 
ATOM      7  C   UNL A   1     -25.823  -0.169  29.389  0.00  0.00    +0.003 A 
ATOM      8  N   UNL A   1     -27.961  -1.607  30.088  0.00  0.00    -0.242 NA
ATOM      9  C   UNL A   1     -26.784  -1.930  30.683  0.00  0.00    +0.099 A 
ATOM     10  C   UNL A   1     -25.762  -1.106  30.452  0.00  0.00    +0.021 A 
ENDROOT
BRANCH   5  11
ATOM     11  C   UNL A   1     -23.521   2.211  27.573  0.00  0.00    +0.388 C 
ATOM     12  O   UNL A   1     -22.711   2.400  28.470  0.00  0.00    -0.241 OA
ATOM     13  O   UNL A   1     -23.453   2.792  26.447  0.00  0.00    -0.241 OA
ENDBRANCH   5  11
TORSDOF 1
