REMARK  Name = No_4533-gen_results/8p0m/2024-11-26-14-13-15/
REMARK  4 active torsions:
REMARK  status: ('A' for Active; 'I' for Inactive)
REMARK    1  A    between atoms: C_3  and  C_7
REMARK    2  A    between atoms: C_7  and  C_8
REMARK    3  A    between atoms: C_7  and  C_14
REMARK    4  A    between atoms: C_12  and  C_18
REMARK                            x       y       z     vdW  Elec       q    Type
REMARK                         _______ _______ _______ _____ _____    ______ ____
ROOT
ATOM      1  C   UNL A   1     -27.459   0.493  26.770  0.00  0.00    +0.121 C 
ENDROOT
BRANCH   1   4
ATOM      2  C   UNL A   1     -28.016  -0.814  28.878  0.00  0.00    -0.004 A 
ATOM      3  C   UNL A   1     -28.469  -0.785  29.829  0.00  0.00    -0.000 A 
ATOM      4  C   UNL A   1     -28.182   0.428  28.113  0.00  0.00    -0.010 A 
ATOM      5  C   UNL A   1     -28.984   1.415  28.515  0.00  0.00    -0.004 A 
ATOM      6  C   UNL A   1     -29.380   0.138  30.461  0.00  0.00    -0.000 A 
ATOM      7  C   UNL A   1     -29.541   1.274  29.724  0.00  0.00    -0.000 A 
ENDBRANCH   1   4
BRANCH   1   8
ATOM      8  C   UNL A   1     -26.026   0.384  26.762  0.00  0.00    -0.010 A 
ATOM      9  C   UNL A   1     -25.290   0.932  25.783  0.00  0.00    -0.004 A 
ATOM     10  C   UNL A   1     -23.897   0.907  25.841  0.00  0.00    -0.001 A 
ATOM     11  C   UNL A   1     -23.250   0.716  27.066  0.00  0.00    -0.004 A 
ATOM     12  C   UNL A   1     -24.033   0.300  28.169  0.00  0.00    -0.023 A 
ATOM     13  C   UNL A   1     -25.392   0.176  28.059  0.00  0.00    -0.008 A 
BRANCH  12  14
ATOM     14  C   UNL A   1     -23.305   0.051  29.453  0.00  0.00    +0.022 C 
ATOM     15  C   UNL A   1     -23.095  -1.061  29.931  0.00  0.00    +0.005 C 
ATOM     16  C   UNL A   1     -22.903   1.244  30.156  0.00  0.00    +0.005 C 
ENDBRANCH  12  14
ENDBRANCH   1   8
BRANCH   1  17
ATOM     17  C   UNL A   1     -28.192   0.472  25.598  0.00  0.00    +0.234 C 
ATOM     18  O   UNL A   1     -28.770  -0.166  24.964  0.00  0.00    -0.274 OA
ATOM     19  N   UNL A   1     -28.433   1.924  25.279  0.00  0.00    -0.276 N 
ATOM     20  C   UNL A   1     -29.157   2.328  24.094  0.00  0.00    +0.115 C 
ATOM     21  C   UNL A   1     -27.738   3.110  25.895  0.00  0.00    +0.115 C 
ENDBRANCH   1  17
TORSDOF 4
