MODEL 4533
MODEL 1
REMARK VINA RESULT:    -7.818      0.000      0.000
REMARK INTER + INTRA:         -10.238
REMARK INTER:                  -9.646
REMARK INTRA:                  -0.591
REMARK UNBOUND:                -0.591
REMARK  Name = No_4533-gen_results/8p0m/2024-11-26-14-13-15/
REMARK  4 active torsions:
REMARK  status: ('A' for Active; 'I' for Inactive)
REMARK    1  A    between atoms: C_3  and  C_7
REMARK    2  A    between atoms: C_7  and  C_8
REMARK    3  A    between atoms: C_7  and  C_14
REMARK    4  A    between atoms: C_12  and  C_18
REMARK                            x       y       z     vdW  Elec       q    Type
REMARK                         _______ _______ _______ _____ _____    ______ ____
ROOT
ATOM      1  C   UNL A   1     -25.392  -1.438  29.057  0.00  0.00    +0.121 C 
ENDROOT
BRANCH   1   4
ATOM      2  C   UNL A   1     -26.201  -3.762  29.691  0.00  0.00    -0.004 A 
ATOM      3  C   UNL A   1     -26.050  -4.800  29.583  0.00  0.00    -0.000 A 
ATOM      4  C   UNL A   1     -25.174  -2.949  29.030  0.00  0.00    -0.010 A 
ATOM      5  C   UNL A   1     -24.067  -3.478  28.507  0.00  0.00    -0.004 A 
ATOM      6  C   UNL A   1     -24.948  -5.590  29.090  0.00  0.00    -0.000 A 
ATOM      7  C   UNL A   1     -23.993  -4.815  28.502  0.00  0.00    -0.000 A 
ENDBRANCH   1   4
BRANCH   1   8
ATOM      8  C   UNL A   1     -25.231  -0.704  27.831  0.00  0.00    -0.010 A 
ATOM      9  C   UNL A   1     -26.291  -0.334  27.096  0.00  0.00    -0.004 A 
ATOM     10  C   UNL A   1     -26.128   0.464  25.964  0.00  0.00    -0.001 A 
ATOM     11  C   UNL A   1     -24.971   1.235  25.812  0.00  0.00    -0.004 A 
ATOM     12  C   UNL A   1     -23.890   0.985  26.689  0.00  0.00    -0.023 A 
ATOM     13  C   UNL A   1     -24.007   0.079  27.709  0.00  0.00    -0.008 A 
BRANCH  12  14
ATOM     14  C   UNL A   1     -22.646   1.788  26.467  0.00  0.00    +0.022 C 
ATOM     15  C   UNL A   1     -21.714   1.864  27.264  0.00  0.00    +0.005 C 
ATOM     16  C   UNL A   1     -22.632   2.546  25.242  0.00  0.00    +0.005 C 
ENDBRANCH  12  14
ENDBRANCH   1   8
BRANCH   1  17
ATOM     17  C   UNL A   1     -25.906  -0.842  30.194  0.00  0.00    +0.234 C 
ATOM     18  O   UNL A   1     -26.821  -0.560  30.670  0.00  0.00    -0.274 OA
ATOM     19  N   UNL A   1     -24.757  -0.835  31.167  0.00  0.00    -0.276 N 
ATOM     20  C   UNL A   1     -24.889  -0.262  32.489  0.00  0.00    +0.115 C 
ATOM     21  C   UNL A   1     -23.306  -1.090  30.852  0.00  0.00    +0.115 C 
ENDBRANCH   1  17
TORSDOF 4
ENDMDL
ENDMDL
