MODEL 4534
MODEL 1
REMARK VINA RESULT:    -4.958      0.000      0.000
REMARK INTER + INTRA:          -4.958
REMARK INTER:                  -4.958
REMARK INTRA:                   0.000
REMARK UNBOUND:                 0.000
REMARK  Name = No_4534-gen_results/8p0m/2024-11-26-14-13-15/
REMARK  0 active torsions:
REMARK  status: ('A' for Active; 'I' for Inactive)
REMARK                            x       y       z     vdW  Elec       q    Type
REMARK                         _______ _______ _______ _____ _____    ______ ____
ROOT
ATOM      1  C   UNL A   1      -8.882 -10.859  17.977  0.00  0.00    +0.042 A 
ATOM      2  C   UNL A   1      -8.027 -10.672  18.812  0.00  0.00    +0.003 A 
ATOM      3  C   UNL A   1      -8.261  -9.848  19.908  0.00  0.00    +0.000 A 
ATOM      4  C   UNL A   1      -9.515  -9.155  20.059  0.00  0.00    +0.003 A 
ATOM      5  C   UNL A   1     -10.438  -9.410  19.036  0.00  0.00    +0.042 A 
ATOM      6  C   UNL A   1     -10.161 -10.184  18.012  0.00  0.00    +0.196 A 
ATOM      7  O   UNL A   1     -11.100 -10.349  17.041  0.00  0.00    -0.287 OA
ENDROOT
TORSDOF 0
ENDMDL
ENDMDL
