REMARK  Name = No_4535-gen_results/8p0m/2024-11-26-14-13-15/
REMARK  1 active torsions:
REMARK  status: ('A' for Active; 'I' for Inactive)
REMARK    1  A    between atoms: C_5  and  C_6
REMARK                            x       y       z     vdW  Elec       q    Type
REMARK                         _______ _______ _______ _____ _____    ______ ____
ROOT
ATOM      1  C   UNL A   1     -30.170  -1.158  30.133  0.00  0.00    +0.015 A 
ATOM      2  C   UNL A   1     -31.274  -1.041  29.569  0.00  0.00    +0.071 A 
ATOM      3  C   UNL A   1     -32.322  -1.991  29.786  0.00  0.00    +0.069 A 
ATOM      4  C   UNL A   1     -33.520  -1.938  29.060  0.00  0.00    +0.251 C 
ATOM      5  C   UNL A   1     -29.756  -2.581  30.408  0.00  0.00    +0.001 A 
ATOM      6  C   UNL A   1     -30.724  -3.549  30.710  0.00  0.00    +0.000 A 
ATOM      7  C   UNL A   1     -31.940  -3.267  30.189  0.00  0.00    +0.006 A 
ATOM      8  N   UNL A   1     -33.839  -0.750  28.599  0.00  0.00    -0.260 N 
ATOM      9  O   UNL A   1     -34.439  -2.713  29.294  0.00  0.00    -0.270 OA
ATOM     10  C   UNL A   1     -35.140  -0.435  27.980  0.00  0.00    +0.095 C 
ATOM     11  C   UNL A   1     -35.201   0.685  27.376  0.00  0.00    +0.022 C 
ATOM     12  C   UNL A   1     -34.150   1.598  27.299  0.00  0.00    +0.005 C 
ATOM     13  C   UNL A   1     -32.882   1.285  27.823  0.00  0.00    +0.042 C 
ATOM     14  C   UNL A   1     -32.725   0.182  28.374  0.00  0.00    +0.169 C 
ATOM     15  N   UNL A   1     -31.565  -0.083  28.986  0.00  0.00    -0.219 NA
ENDROOT
BRANCH   1  20
ATOM     16  C   UNL A   1     -28.016  -0.814  28.878  0.00  0.00    +0.011 A 
ATOM     17  C   UNL A   1     -27.064  -0.119  28.608  0.00  0.00    +0.058 A 
ATOM     18  C   UNL A   1     -26.929   1.171  29.008  0.00  0.00    +0.011 A 
ATOM     19  C   UNL A   1     -27.956   1.741  29.784  0.00  0.00    +0.001 A 
ATOM     20  C   UNL A   1     -29.057  -0.327  29.747  0.00  0.00    +0.002 A 
ATOM     21  C   UNL A   1     -28.977   0.958  30.179  0.00  0.00    +0.000 A 
ATOM     22 CL   UNL A   1     -25.753  -0.895  27.729  0.00  0.00    -0.082 Cl
ENDBRANCH   1  20
TORSDOF 1
