MODEL 4536
MODEL 1
REMARK VINA RESULT:    -6.254      0.000      0.000
REMARK INTER + INTRA:          -6.656
REMARK INTER:                  -6.619
REMARK INTRA:                  -0.037
REMARK UNBOUND:                -0.037
REMARK  Name = No_4536-gen_results/8p0m/2024-11-26-14-13-15/
REMARK  1 active torsions:
REMARK  status: ('A' for Active; 'I' for Inactive)
REMARK    1  A    between atoms: C_1  and  C_12
REMARK                            x       y       z     vdW  Elec       q    Type
REMARK                         _______ _______ _______ _____ _____    ______ ____
ROOT
ATOM      1  C   UNL A   1     -25.129  -2.998  29.182  0.00  0.00    +0.037 C 
ATOM      2  C   UNL A   1     -24.480  -2.067  28.765  0.00  0.00    -0.036 C 
ATOM      3  C   UNL A   1     -23.346  -1.551  29.368  0.00  0.00    +0.027 C 
ATOM      4  C   UNL A   1     -22.600  -0.393  28.937  0.00  0.00    +0.030 C 
ATOM      5  C   UNL A   1     -22.992   0.266  28.167  0.00  0.00    -0.025 A 
ATOM      6  C   UNL A   1     -22.304   1.500  27.588  0.00  0.00    -0.005 A 
ATOM      7  C   UNL A   1     -22.810   2.236  26.492  0.00  0.00    -0.000 A 
ATOM      8  C   UNL A   1     -24.048   1.820  25.964  0.00  0.00    -0.000 A 
ATOM      9  C   UNL A   1     -24.678   0.699  26.378  0.00  0.00    -0.004 A 
ATOM     10  C   UNL A   1     -24.231  -0.006  27.404  0.00  0.00    -0.022 A 
ATOM     11  C   UNL A   1     -24.954  -1.143  27.751  0.00  0.00    +0.048 C 
ENDROOT
BRANCH   1  12
ATOM     12  C   UNL A   1     -24.457  -4.297  29.247  0.00  0.00    +0.234 C 
ATOM     13  O   UNL A   1     -23.946  -4.629  28.198  0.00  0.00    -0.283 OA
ENDBRANCH   1  12
TORSDOF 1
ENDMDL
ENDMDL
