REMARK  Name = No_4536-gen_results/8p0m/2024-11-26-14-13-15/
REMARK  1 active torsions:
REMARK  status: ('A' for Active; 'I' for Inactive)
REMARK    1  A    between atoms: C_1  and  C_12
REMARK                            x       y       z     vdW  Elec       q    Type
REMARK                         _______ _______ _______ _____ _____    ______ ____
ROOT
ATOM      1  C   UNL A   1     -28.016  -0.814  28.878  0.00  0.00    +0.037 C 
ATOM      2  C   UNL A   1     -27.064  -0.119  28.608  0.00  0.00    -0.036 C 
ATOM      3  C   UNL A   1     -26.972   0.714  27.506  0.00  0.00    +0.027 C 
ATOM      4  C   UNL A   1     -25.820   1.491  27.116  0.00  0.00    +0.030 C 
ATOM      5  C   UNL A   1     -24.858   1.342  27.601  0.00  0.00    -0.025 A 
ATOM      6  C   UNL A   1     -23.569   2.111  27.321  0.00  0.00    -0.005 A 
ATOM      7  C   UNL A   1     -22.387   1.959  28.082  0.00  0.00    -0.000 A 
ATOM      8  C   UNL A   1     -22.412   0.998  29.111  0.00  0.00    -0.000 A 
ATOM      9  C   UNL A   1     -23.535   0.333  29.461  0.00  0.00    -0.004 A 
ATOM     10  C   UNL A   1     -24.653   0.450  28.764  0.00  0.00    -0.022 A 
ATOM     11  C   UNL A   1     -25.752  -0.279  29.207  0.00  0.00    +0.048 C 
ENDROOT
BRANCH   1  12
ATOM     12  C   UNL A   1     -29.275  -0.127  29.173  0.00  0.00    +0.234 C 
ATOM     13  O   UNL A   1     -30.202  -0.504  28.488  0.00  0.00    -0.283 OA
ENDBRANCH   1  12
TORSDOF 1
