MODEL 4538
MODEL 1
REMARK VINA RESULT:    -4.535      0.000      0.000
REMARK INTER + INTRA:          -4.535
REMARK INTER:                  -4.535
REMARK INTRA:                   0.000
REMARK UNBOUND:                 0.000
REMARK  Name = No_4538-gen_results/8p0m/2024-11-26-14-13-15/
REMARK  0 active torsions:
REMARK  status: ('A' for Active; 'I' for Inactive)
REMARK                            x       y       z     vdW  Elec       q    Type
REMARK                         _______ _______ _______ _____ _____    ______ ____
ROOT
ATOM      1  C   UNL A   1     -23.987  -4.453  28.616  0.00  0.00    +0.030 A 
ATOM      2  C   UNL A   1     -24.858  -5.007  28.828  0.00  0.00    +0.140 A 
ATOM      3  C   UNL A   1     -24.019  -3.020  28.951  0.00  0.00    +0.002 A 
ATOM      4  C   UNL A   1     -25.128  -2.465  29.654  0.00  0.00    +0.000 A 
ATOM      5  C   UNL A   1     -26.097  -4.692  29.590  0.00  0.00    +0.030 A 
ATOM      6  C   UNL A   1     -26.168  -3.369  29.909  0.00  0.00    +0.002 A 
ATOM      7  F   UNL A   1     -24.828  -6.413  28.516  0.00  0.00    -0.204 F 
ENDROOT
TORSDOF 0
ENDMDL
ENDMDL
