MODEL 4539
MODEL 1
REMARK VINA RESULT:    -5.562      0.000      0.000
REMARK INTER + INTRA:          -5.562
REMARK INTER:                  -5.562
REMARK INTRA:                   0.000
REMARK UNBOUND:                 0.000
REMARK  Name = No_4539-gen_results/8p0m/2024-11-26-14-13-15/
REMARK  0 active torsions:
REMARK  status: ('A' for Active; 'I' for Inactive)
REMARK                            x       y       z     vdW  Elec       q    Type
REMARK                         _______ _______ _______ _____ _____    ______ ____
ROOT
ATOM      1  C   UNL A   1     -24.130  -4.390  28.742  0.00  0.00    +0.000 A 
ATOM      2  C   UNL A   1     -24.909  -5.067  28.955  0.00  0.00    +0.000 A 
ATOM      3  C   UNL A   1     -24.307  -3.041  29.121  0.00  0.00    +0.000 A 
ATOM      4  C   UNL A   1     -23.268  -1.986  28.993  0.00  0.00    +0.000 A 
ATOM      5  C   UNL A   1     -26.222  -4.868  29.594  0.00  0.00    +0.000 A 
ATOM      6  C   UNL A   1     -26.468  -3.555  29.994  0.00  0.00    +0.000 A 
ATOM      7  C   UNL A   1     -25.504  -2.616  29.813  0.00  0.00    +0.000 A 
ATOM      8  C   UNL A   1     -23.036  -1.011  29.521  0.00  0.00    +0.000 A 
ATOM      9  C   UNL A   1     -24.062  -0.618  30.539  0.00  0.00    +0.000 A 
ATOM     10  C   UNL A   1     -25.267  -1.409  30.622  0.00  0.00    +0.000 A 
ENDROOT
TORSDOF 0
ENDMDL
ENDMDL
