MODEL 453
MODEL 1
REMARK VINA RESULT:    -6.481      0.000      0.000
REMARK INTER + INTRA:          -7.267
REMARK INTER:                  -6.860
REMARK INTRA:                  -0.407
REMARK UNBOUND:                -0.407
REMARK  Name = No_453-gen_results/8p0m/2024-11-26-14-13-15/
REMARK  1 active torsions:
REMARK  status: ('A' for Active; 'I' for Inactive)
REMARK    1  A    between atoms: C_3  and  C_7
REMARK                            x       y       z     vdW  Elec       q    Type
REMARK                         _______ _______ _______ _____ _____    ______ ____
ROOT
ATOM      1  C   UNL A   1     -25.896  -2.544  29.727  0.00  0.00    +0.000 A 
ATOM      2  C   UNL A   1     -26.329  -3.490  29.894  0.00  0.00    +0.000 A 
ATOM      3  C   UNL A   1     -24.599  -2.604  29.055  0.00  0.00    +0.000 A 
ATOM      4  C   UNL A   1     -24.030  -3.793  28.670  0.00  0.00    +0.000 A 
ATOM      5  C   UNL A   1     -25.971  -4.878  29.601  0.00  0.00    +0.000 A 
ATOM      6  C   UNL A   1     -24.717  -4.947  28.950  0.00  0.00    +0.000 A 
ENDROOT
BRANCH   3   7
ATOM      7  C   UNL A   1     -23.848  -1.366  28.695  0.00  0.00    +0.000 A 
ATOM      8  C   UNL A   1     -24.457  -0.475  28.012  0.00  0.00    +0.000 A 
ATOM      9  C   UNL A   1     -22.566  -1.240  29.205  0.00  0.00    +0.000 A 
ATOM     10  C   UNL A   1     -23.667   0.581  27.436  0.00  0.00    +0.000 A 
ATOM     11  C   UNL A   1     -21.839  -0.069  28.927  0.00  0.00    +0.000 A 
ATOM     12  C   UNL A   1     -22.417   0.852  27.999  0.00  0.00    +0.000 A 
ENDBRANCH   3   7
TORSDOF 1
ENDMDL
ENDMDL
