REMARK  Name = No_454-gen_results/8p0m/2024-11-26-14-13-15/
REMARK  1 active torsions:
REMARK  status: ('A' for Active; 'I' for Inactive)
REMARK    1  A    between atoms: C_3  and  C_4
REMARK                            x       y       z     vdW  Elec       q    Type
REMARK                         _______ _______ _______ _____ _____    ______ ____
ROOT
ATOM      1  C   UNL A   1     -28.016  -0.814  28.878  0.00  0.00    +0.003 A 
ATOM      2  C   UNL A   1     -28.469  -0.785  29.829  0.00  0.00    +0.031 A 
ATOM      3  C   UNL A   1     -28.182   0.428  28.113  0.00  0.00    +0.000 A 
ATOM      4  C   UNL A   1     -29.426   0.110  30.418  0.00  0.00    -0.019 A 
ATOM      5  C   UNL A   1     -30.059  -0.086  31.684  0.00  0.00    +0.027 C 
ATOM      6  C   UNL A   1     -28.979   1.433  28.569  0.00  0.00    -0.000 A 
ATOM      7  C   UNL A   1     -29.576   1.265  29.710  0.00  0.00    -0.004 A 
ATOM      8  C   UNL A   1     -30.215  -1.134  32.213  0.00  0.00    +0.013 C 
ATOM      9  C   UNL A   1     -29.767  -2.328  31.593  0.00  0.00    +0.070 C 
ATOM     10  C   UNL A   1     -28.733  -2.181  30.563  0.00  0.00    +0.173 C 
ATOM     11  O   UNL A   1     -28.093  -3.218  30.073  0.00  0.00    -0.291 OA
ENDROOT
BRANCH   3  12
ATOM     12  C   UNL A   1     -27.450   0.643  26.850  0.00  0.00    +0.000 A 
ATOM     13  C   UNL A   1     -27.860   1.457  25.908  0.00  0.00    +0.000 A 
ATOM     14  C   UNL A   1     -27.160   1.581  24.709  0.00  0.00    +0.000 A 
ATOM     15  C   UNL A   1     -26.075   0.765  24.440  0.00  0.00    +0.000 A 
ATOM     16  C   UNL A   1     -25.625  -0.113  25.413  0.00  0.00    +0.000 A 
ATOM     17  C   UNL A   1     -26.271  -0.204  26.574  0.00  0.00    +0.000 A 
ENDBRANCH   3  12
TORSDOF 1
