REMARK  Name = No_4540-gen_results/8p0m/2024-11-26-14-13-15/
REMARK  4 active torsions:
REMARK  status: ('A' for Active; 'I' for Inactive)
REMARK    1  A    between atoms: C_3  and  C_7
REMARK    2  A    between atoms: C_6  and  C_13
REMARK    3  A    between atoms: C_16  and  C_17
REMARK    4  A    between atoms: C_27  and  C_28
REMARK                            x       y       z     vdW  Elec       q    Type
REMARK                         _______ _______ _______ _____ _____    ______ ____
ROOT
ATOM      1  C   UNL A   1     -28.016  -0.814  28.878  0.00  0.00    +0.005 A 
ATOM      2  C   UNL A   1     -27.064  -0.119  28.608  0.00  0.00    +0.000 A 
ATOM      3  C   UNL A   1     -25.765  -0.390  29.036  0.00  0.00    -0.000 A 
ATOM      4  C   UNL A   1     -25.530  -1.530  29.901  0.00  0.00    +0.000 A 
ATOM      5  C   UNL A   1     -26.689  -2.289  30.181  0.00  0.00    +0.005 A 
ATOM      6  C   UNL A   1     -27.873  -1.951  29.737  0.00  0.00    +0.056 A 
ENDROOT
BRANCH   3   7
ATOM      7  C   UNL A   1     -24.549   0.410  28.734  0.00  0.00    -0.001 A 
ATOM      8  C   UNL A   1     -24.479   1.187  27.684  0.00  0.00    +0.019 A 
ATOM      9  C   UNL A   1     -23.272   1.897  27.373  0.00  0.00    +0.135 A 
ATOM     10  C   UNL A   1     -22.106   1.703  28.041  0.00  0.00    +0.037 A 
ATOM     11  C   UNL A   1     -23.319   0.179  29.467  0.00  0.00    -0.000 A 
ATOM     12  C   UNL A   1     -22.116   0.840  29.101  0.00  0.00    +0.003 A 
ATOM     13  O   UNL A   1     -23.329   2.768  26.301  0.00  0.00    -0.475 OA
ATOM     14  C   UNL A   1     -24.467   2.580  25.573  0.00  0.00    +0.214 C 
ATOM     15  C   UNL A   1     -25.133   1.546  26.459  0.00  0.00    +0.091 C 
BRANCH  15  16
ATOM     16  C   UNL A   1     -26.375   0.893  26.015  0.00  0.00    -0.015 A 
ATOM     17  C   UNL A   1     -27.519   1.617  26.175  0.00  0.00    -0.004 A 
ATOM     18  C   UNL A   1     -26.239   0.113  24.822  0.00  0.00    -0.004 A 
ATOM     19  C   UNL A   1     -28.735   1.146  25.538  0.00  0.00    -0.000 A 
ATOM     20  C   UNL A   1     -27.347  -0.406  24.219  0.00  0.00    -0.000 A 
ATOM     21  C   UNL A   1     -28.561   0.123  24.565  0.00  0.00    -0.000 A 
ENDBRANCH  15  16
ENDBRANCH   3   7
BRANCH   6  22
ATOM     22  C   UNL A   1     -29.035  -2.786  30.161  0.00  0.00    +0.272 C 
ATOM     23  N   UNL A   1     -28.900  -4.098  30.368  0.00  0.00    -0.137 NA
ATOM     24  O   UNL A   1     -30.171  -2.304  30.314  0.00  0.00    -0.268 OA
ATOM     25  C   UNL A   1     -29.926  -5.032  30.697  0.00  0.00    +0.272 C 
ATOM     26  O   UNL A   1     -30.058  -5.223  31.953  0.00  0.00    -0.268 OA
BRANCH  25  27
ATOM     27  C   UNL A   1     -30.839  -5.274  29.709  0.00  0.00    +0.056 A 
ATOM     28  C   UNL A   1     -30.695  -5.094  28.511  0.00  0.00    +0.005 A 
ATOM     29  C   UNL A   1     -31.510  -5.483  27.388  0.00  0.00    +0.007 A 
ATOM     30  C   UNL A   1     -32.692  -6.149  27.679  0.00  0.00    +0.035 A 
ATOM     31  C   UNL A   1     -32.926  -6.419  29.065  0.00  0.00    +0.007 A 
ATOM     32  C   UNL A   1     -32.022  -6.064  30.074  0.00  0.00    +0.005 A 
ATOM     33 BR   UNL A   1     -33.850  -6.629  26.375  0.00  0.00    -0.049 Br
ENDBRANCH  25  27
ENDBRANCH   6  22
TORSDOF 4
