MODEL 4540
MODEL 1
REMARK VINA RESULT:    -7.790      0.000      0.000
REMARK INTER + INTRA:         -12.212
REMARK INTER:                  -9.612
REMARK INTRA:                  -2.600
REMARK UNBOUND:                -2.600
REMARK  Name = No_4540-gen_results/8p0m/2024-11-26-14-13-15/
REMARK  4 active torsions:
REMARK  status: ('A' for Active; 'I' for Inactive)
REMARK    1  A    between atoms: C_3  and  C_7
REMARK    2  A    between atoms: C_6  and  C_13
REMARK    3  A    between atoms: C_16  and  C_17
REMARK    4  A    between atoms: C_27  and  C_28
REMARK                            x       y       z     vdW  Elec       q    Type
REMARK                         _______ _______ _______ _____ _____    ______ ____
ROOT
ATOM      1  C   UNL A   1     -23.954 -15.558   6.427  0.00  0.00    +0.005 A 
ATOM      2  C   UNL A   1     -23.126 -15.057   5.702  0.00  0.00    +0.000 A 
ATOM      3  C   UNL A   1     -23.278 -13.805   5.107  0.00  0.00    -0.000 A 
ATOM      4  C   UNL A   1     -24.513 -13.073   5.308  0.00  0.00    +0.000 A 
ATOM      5  C   UNL A   1     -25.436 -13.723   6.159  0.00  0.00    +0.005 A 
ATOM      6  C   UNL A   1     -25.207 -14.906   6.668  0.00  0.00    +0.056 A 
ENDROOT
BRANCH   3   7
ATOM      7  C   UNL A   1     -22.301 -13.125   4.217  0.00  0.00    -0.001 A 
ATOM      8  C   UNL A   1     -22.328 -13.279   2.918  0.00  0.00    +0.019 A 
ATOM      9  C   UNL A   1     -21.334 -12.669   2.084  0.00  0.00    +0.135 A 
ATOM     10  C   UNL A   1     -20.242 -12.031   2.578  0.00  0.00    +0.037 A 
ATOM     11  C   UNL A   1     -21.145 -12.451   4.777  0.00  0.00    -0.000 A 
ATOM     12  C   UNL A   1     -20.135 -11.912   3.936  0.00  0.00    +0.003 A 
ATOM     13  O   UNL A   1     -21.506 -12.808   0.719  0.00  0.00    -0.475 OA
ATOM     14  C   UNL A   1     -22.459 -13.741   0.435  0.00  0.00    +0.214 C 
ATOM     15  C   UNL A   1     -22.913 -14.037   1.851  0.00  0.00    +0.091 C 
BRANCH  15  16
ATOM     16  C   UNL A   1     -23.871 -15.127   2.099  0.00  0.00    -0.015 A 
ATOM     17  C   UNL A   1     -23.355 -16.259   2.656  0.00  0.00    -0.004 A 
ATOM     18  C   UNL A   1     -25.160 -14.690   2.545  0.00  0.00    -0.004 A 
ATOM     19  C   UNL A   1     -24.271 -17.268   3.154  0.00  0.00    -0.000 A 
ATOM     20  C   UNL A   1     -26.080 -15.606   2.964  0.00  0.00    -0.000 A 
ATOM     21  C   UNL A   1     -25.627 -16.858   3.278  0.00  0.00    -0.000 A 
ENDBRANCH  15  16
ENDBRANCH   3   7
BRANCH   6  22
ATOM     22  C   UNL A   1     -26.287 -15.527   7.490  0.00  0.00    +0.272 C 
ATOM     23  N   UNL A   1     -27.567 -15.446   7.117  0.00  0.00    -0.137 NA
ATOM     24  O   UNL A   1     -26.046 -16.118   8.556  0.00  0.00    -0.268 OA
ATOM     25  C   UNL A   1     -28.707 -15.917   7.832  0.00  0.00    +0.272 C 
ATOM     26  O   UNL A   1     -29.069 -17.095   7.495  0.00  0.00    -0.268 OA
BRANCH  25  27
ATOM     27  C   UNL A   1     -28.994 -15.248   8.989  0.00  0.00    +0.056 A 
ATOM     28  C   UNL A   1     -29.125 -14.043   9.131  0.00  0.00    +0.005 A 
ATOM     29  C   UNL A   1     -29.602 -13.266  10.247  0.00  0.00    +0.007 A 
ATOM     30  C   UNL A   1     -29.947 -13.969  11.392  0.00  0.00    +0.035 A 
ATOM     31  C   UNL A   1     -29.841 -15.394  11.300  0.00  0.00    +0.007 A 
ATOM     32  C   UNL A   1     -29.440 -16.054  10.132  0.00  0.00    +0.005 A 
ATOM     33 BR   UNL A   1     -30.487 -13.119  12.895  0.00  0.00    -0.049 Br
ENDBRANCH  25  27
ENDBRANCH   6  22
TORSDOF 4
ENDMDL
ENDMDL
