REMARK  Name = No_4542-gen_results/8p0m/2024-11-26-14-13-15/
REMARK  2 active torsions:
REMARK  status: ('A' for Active; 'I' for Inactive)
REMARK    1  A    between atoms: C_2  and  C_4
REMARK    2  A    between atoms: C_4  and  C_6
REMARK                            x       y       z     vdW  Elec       q    Type
REMARK                         _______ _______ _______ _____ _____    ______ ____
ROOT
ATOM      1  F   UNL A   1     -28.073  -1.254  28.532  0.00  0.00    -0.170 F 
ATOM      2  C   UNL A   1     -27.359  -0.379  28.722  0.00  0.00    +0.402 C 
ATOM      3  F   UNL A   1     -26.318  -0.661  29.116  0.00  0.00    -0.170 F 
ATOM      4  F   UNL A   1     -27.931   0.475  29.689  0.00  0.00    -0.170 F 
ENDROOT
BRANCH   2   5
ATOM      5  C   UNL A   1     -27.255   0.479  27.490  0.00  0.00    +0.129 C 
BRANCH   5   6
ATOM      6  C   UNL A   1     -25.991   0.856  27.168  0.00  0.00    -0.017 C 
ATOM      7  C   UNL A   1     -24.858   0.371  27.850  0.00  0.00    -0.005 C 
ENDBRANCH   5   6
ENDBRANCH   2   5
TORSDOF 2
