MODEL 4543
MODEL 1
REMARK VINA RESULT:    -5.789      0.000      0.000
REMARK INTER + INTRA:          -6.247
REMARK INTER:                  -6.127
REMARK INTRA:                  -0.119
REMARK UNBOUND:                -0.119
REMARK  Name = No_4543-gen_results/8p0m/2024-11-26-14-13-15/
REMARK  1 active torsions:
REMARK  status: ('A' for Active; 'I' for Inactive)
REMARK    1  A    between atoms: C_11  and  C_12
REMARK                            x       y       z     vdW  Elec       q    Type
REMARK                         _______ _______ _______ _____ _____    ______ ____
ROOT
ATOM      1  C   UNL A   1     -24.042   0.073  27.565  0.00  0.00    +0.009 A 
ATOM      2  C   UNL A   1     -23.474   1.001  27.037  0.00  0.00    +0.000 A 
ATOM      3  C   UNL A   1     -23.886   1.573  25.849  0.00  0.00    +0.002 A 
ATOM      4  C   UNL A   1     -25.067   1.065  25.239  0.00  0.00    +0.030 A 
ATOM      5  C   UNL A   1     -25.759   0.147  25.952  0.00  0.00    +0.140 A 
ATOM      6  C   UNL A   1     -25.308  -0.315  27.103  0.00  0.00    +0.030 A 
ATOM      7  F   UNL A   1     -26.889  -0.304  25.423  0.00  0.00    -0.204 F 
ATOM      8  C   UNL A   1     -22.106   1.542  27.555  0.00  0.00    +0.000 A 
ATOM      9  C   UNL A   1     -21.462   1.048  28.277  0.00  0.00    +0.000 A 
ATOM     10  C   UNL A   1     -21.826  -0.294  28.815  0.00  0.00    +0.007 A 
ATOM     11  C   UNL A   1     -23.159  -0.702  28.544  0.00  0.00    +0.080 A 
ENDROOT
BRANCH  11  12
ATOM     12  C   UNL A   1     -23.664  -1.899  29.285  0.00  0.00    +0.388 C 
ATOM     13  O   UNL A   1     -23.416  -3.020  28.819  0.00  0.00    -0.241 OA
ATOM     14  O   UNL A   1     -24.299  -1.758  30.375  0.00  0.00    -0.241 OA
ENDBRANCH  11  12
TORSDOF 1
ENDMDL
ENDMDL
