REMARK  Name = No_4543-gen_results/8p0m/2024-11-26-14-13-15/
REMARK  1 active torsions:
REMARK  status: ('A' for Active; 'I' for Inactive)
REMARK    1  A    between atoms: C_11  and  C_12
REMARK                            x       y       z     vdW  Elec       q    Type
REMARK                         _______ _______ _______ _____ _____    ______ ____
ROOT
ATOM      1  C   UNL A   1     -28.016  -0.814  28.878  0.00  0.00    +0.009 A 
ATOM      2  C   UNL A   1     -27.064  -0.119  28.608  0.00  0.00    +0.000 A 
ATOM      3  C   UNL A   1     -27.001   0.691  27.491  0.00  0.00    +0.002 A 
ATOM      4  C   UNL A   1     -28.137   0.736  26.635  0.00  0.00    +0.030 A 
ATOM      5  C   UNL A   1     -29.236   0.076  27.069  0.00  0.00    +0.140 A 
ATOM      6  C   UNL A   1     -29.218  -0.643  28.175  0.00  0.00    +0.030 A 
ATOM      7  F   UNL A   1     -30.322   0.145  26.309  0.00  0.00    -0.204 F 
ATOM      8  C   UNL A   1     -25.727  -0.194  29.407  0.00  0.00    +0.000 A 
ATOM      9  C   UNL A   1     -25.457  -0.969  30.119  0.00  0.00    +0.000 A 
ATOM     10  C   UNL A   1     -26.370  -2.124  30.355  0.00  0.00    +0.007 A 
ATOM     11  C   UNL A   1     -27.678  -1.966  29.825  0.00  0.00    +0.080 A 
ENDROOT
BRANCH  11  12
ATOM     12  C   UNL A   1     -28.710  -2.956  30.264  0.00  0.00    +0.388 C 
ATOM     13  O   UNL A   1     -28.410  -4.158  30.245  0.00  0.00    -0.241 OA
ATOM     14  O   UNL A   1     -29.845  -2.560  30.673  0.00  0.00    -0.241 OA
ENDBRANCH  11  12
TORSDOF 1
