MODEL 4544
MODEL 1
REMARK VINA RESULT:    -7.115      0.000      0.000
REMARK INTER + INTRA:          -8.467
REMARK INTER:                  -7.947
REMARK INTRA:                  -0.520
REMARK UNBOUND:                -0.520
REMARK  Name = No_4544-gen_results/8p0m/2024-11-26-14-13-15/
REMARK  2 active torsions:
REMARK  status: ('A' for Active; 'I' for Inactive)
REMARK    1  A    between atoms: C_2  and  C_3
REMARK    2  A    between atoms: C_14  and  C_16
REMARK                            x       y       z     vdW  Elec       q    Type
REMARK                         _______ _______ _______ _____ _____    ______ ____
ROOT
ATOM      1  C   UNL A   1     -25.975  -0.465  28.649  0.00  0.00    +0.003 A 
ATOM      2  C   UNL A   1     -24.948  -1.098  28.553  0.00  0.00    -0.000 A 
ATOM      3  C   UNL A   1     -25.871   0.906  29.038  0.00  0.00    +0.037 A 
ATOM      4  C   UNL A   1     -24.817   1.624  28.556  0.00  0.00    +0.135 A 
ATOM      5  C   UNL A   1     -23.689   0.909  28.110  0.00  0.00    +0.016 A 
ATOM      6  C   UNL A   1     -23.665  -0.518  28.216  0.00  0.00    -0.001 A 
ATOM      7  O   UNL A   1     -24.768   2.956  28.621  0.00  0.00    -0.472 OA
ATOM      8  C   UNL A   1     -25.041   3.682  27.701  0.00  0.00    +0.220 C 
ATOM      9  C   UNL A   1     -24.542   3.583  26.515  0.00  0.00    +0.015 C 
ATOM     10  C   UNL A   1     -23.449   2.692  26.230  0.00  0.00    -0.022 C 
ATOM     11  C   UNL A   1     -22.853   1.478  26.990  0.00  0.00    +0.055 C 
ENDROOT
BRANCH   2  12
ATOM     12  C   UNL A   1     -24.928  -2.471  28.771  0.00  0.00    -0.000 A 
ATOM     13  C   UNL A   1     -24.152  -3.230  28.431  0.00  0.00    -0.000 A 
ATOM     14  C   UNL A   1     -24.119  -4.711  28.639  0.00  0.00    -0.000 A 
ATOM     15  C   UNL A   1     -25.209  -5.275  29.305  0.00  0.00    +0.000 A 
ATOM     16  C   UNL A   1     -26.192  -4.448  29.725  0.00  0.00    -0.000 A 
ATOM     17  C   UNL A   1     -26.148  -3.097  29.477  0.00  0.00    -0.000 A 
ENDBRANCH   2  12
BRANCH   8  18
ATOM     18  C   UNL A   1     -26.069   4.710  27.854  0.00  0.00    +0.230 C 
ATOM     19  O   UNL A   1     -26.188   5.660  27.088  0.00  0.00    -0.216 OA
ENDBRANCH   8  18
TORSDOF 2
ENDMDL
ENDMDL
