REMARK  Name = No_4545-gen_results/8p0m/2024-11-26-14-13-15/
REMARK  8 active torsions:
REMARK  status: ('A' for Active; 'I' for Inactive)
REMARK    1  A    between atoms: C_1  and  C_7
REMARK    2  A    between atoms: C_7  and  N_8
REMARK    3  A    between atoms: C_12  and  C_14
REMARK    4  A    between atoms: C_17  and  C_22
REMARK    5  A    between atoms: C_23  and  C_25
REMARK    6  A    between atoms: N_27  and  C_28
REMARK    7  A    between atoms: C_28  and  C_29
REMARK    8  A    between atoms: C_29  and  C_30
REMARK                            x       y       z     vdW  Elec       q    Type
REMARK                         _______ _______ _______ _____ _____    ______ ____
ROOT
ATOM      1  C   UNL A   1     -28.016  -0.814  28.878  0.00  0.00    -0.001 A 
ATOM      2  C   UNL A   1     -27.064  -0.119  28.608  0.00  0.00    -0.003 A 
ATOM      3  C   UNL A   1     -27.001   0.691  27.491  0.00  0.00    -0.000 A 
ATOM      4  C   UNL A   1     -28.137   0.736  26.635  0.00  0.00    -0.000 A 
ATOM      5  C   UNL A   1     -29.236   0.076  27.069  0.00  0.00    -0.000 A 
ATOM      6  C   UNL A   1     -29.218  -0.643  28.175  0.00  0.00    -0.003 A 
ATOM      7  C   UNL A   1     -28.079   1.608  25.445  0.00  0.00    -0.000 A 
ATOM      8  C   UNL A   1     -27.007   1.706  24.784  0.00  0.00    -0.000 A 
ATOM      9  C   UNL A   1     -25.820   1.098  25.080  0.00  0.00    -0.000 A 
ATOM     10  C   UNL A   1     -25.753   0.647  26.595  0.00  0.00    -0.000 A 
ENDROOT
BRANCH   7  11
ATOM     11  C   UNL A   1     -29.305   2.232  25.017  0.00  0.00    -0.000 A 
ATOM     12  C   UNL A   1     -29.713   2.360  23.802  0.00  0.00    +0.000 A 
ATOM     13  C   UNL A   1     -30.902   3.030  23.389  0.00  0.00    +0.000 A 
ATOM     14  C   UNL A   1     -31.751   3.558  24.391  0.00  0.00    +0.000 A 
ATOM     15  C   UNL A   1     -31.361   3.468  25.721  0.00  0.00    +0.000 A 
ATOM     16  C   UNL A   1     -30.205   2.855  26.104  0.00  0.00    +0.000 A 
ENDBRANCH   7  11
BRANCH  10  17
ATOM     17  C   UNL A   1     -24.429   0.274  27.146  0.00  0.00    +0.003 C 
ATOM     18  C   UNL A   1     -23.556   1.317  27.540  0.00  0.00    +0.069 C 
ATOM     19  C   UNL A   1     -23.673   2.637  27.238  0.00  0.00    +0.039 C 
BRANCH  18  20
ATOM     20  C   UNL A   1     -22.388   0.772  28.277  0.00  0.00    +0.409 C 
ATOM     21  N   UNL A   1     -21.240   1.099  27.838  0.00  0.00    +0.197 NA
ATOM     22  N   UNL A   1     -22.527  -0.109  29.254  0.00  0.00    -0.028 NA
BRANCH  22  23
ATOM     23  C   UNL A   1     -23.633  -0.465  29.951  0.00  0.00    +0.256 C 
BRANCH  23  24
ATOM     24  C   UNL A   1     -23.311  -0.492  31.520  0.00  0.00    +0.082 C 
BRANCH  24  25
ATOM     25  C   UNL A   1     -24.245   0.159  32.362  0.00  0.00    -0.018 A 
ATOM     26  C   UNL A   1     -24.935  -0.672  33.311  0.00  0.00    -0.004 A 
ATOM     27  C   UNL A   1     -25.924  -0.067  34.109  0.00  0.00    -0.000 A 
ATOM     28  C   UNL A   1     -26.422   1.212  33.845  0.00  0.00    -0.000 A 
ATOM     29  C   UNL A   1     -25.816   1.985  32.805  0.00  0.00    -0.000 A 
ATOM     30  C   UNL A   1     -24.779   1.442  32.055  0.00  0.00    -0.004 A 
ENDBRANCH  24  25
ENDBRANCH  23  24
ENDBRANCH  22  23
ENDBRANCH  18  20
ENDBRANCH  10  17
BRANCH   1  31
ATOM     31  C   UNL A   1     -28.003  -1.660  30.127  0.00  0.00    +0.143 C 
BRANCH  31  32
ATOM     32  N   UNL A   1     -27.044  -2.495  30.269  0.00  0.00    -0.181 NA
ATOM     33  C   UNL A   1     -27.261  -3.847  29.966  0.00  0.00    +0.359 C 
ATOM     34  N   UNL A   1     -26.101  -4.558  29.795  0.00  0.00    -0.068 NA
ATOM     35  O   UNL A   1     -28.310  -4.388  30.148  0.00  0.00    -0.247 OA
ENDBRANCH  31  32
ENDBRANCH   1  31
TORSDOF 8
