MODEL 4545
MODEL 1
REMARK VINA RESULT:    -7.228      0.000      0.000
REMARK INTER + INTRA:         -13.779
REMARK INTER:                 -10.608
REMARK INTRA:                  -3.171
REMARK UNBOUND:                -3.171
REMARK  Name = No_4545-gen_results/8p0m/2024-11-26-14-13-15/
REMARK  8 active torsions:
REMARK  status: ('A' for Active; 'I' for Inactive)
REMARK    1  A    between atoms: C_1  and  C_7
REMARK    2  A    between atoms: C_7  and  N_8
REMARK    3  A    between atoms: C_12  and  C_14
REMARK    4  A    between atoms: C_17  and  C_22
REMARK    5  A    between atoms: C_23  and  C_25
REMARK    6  A    between atoms: N_27  and  C_28
REMARK    7  A    between atoms: C_28  and  C_29
REMARK    8  A    between atoms: C_29  and  C_30
REMARK                            x       y       z     vdW  Elec       q    Type
REMARK                         _______ _______ _______ _____ _____    ______ ____
ROOT
ATOM      1  C   UNL A   1     -27.106   0.211  30.949  0.00  0.00    -0.001 A 
ATOM      2  C   UNL A   1     -26.550  -0.229  29.970  0.00  0.00    -0.003 A 
ATOM      3  C   UNL A   1     -26.545  -1.568  29.630  0.00  0.00    -0.000 A 
ATOM      4  C   UNL A   1     -27.270  -2.469  30.460  0.00  0.00    -0.000 A 
ATOM      5  C   UNL A   1     -28.014  -1.907  31.441  0.00  0.00    -0.000 A 
ATOM      6  C   UNL A   1     -27.989  -0.608  31.669  0.00  0.00    -0.003 A 
ATOM      7  C   UNL A   1     -27.277  -3.900  30.096  0.00  0.00    -0.000 A 
ATOM      8  C   UNL A   1     -26.231  -4.442  29.640  0.00  0.00    -0.000 A 
ATOM      9  C   UNL A   1     -25.042  -3.817  29.394  0.00  0.00    -0.000 A 
ATOM     10  C   UNL A   1     -25.218  -2.250  29.262  0.00  0.00    -0.000 A 
ENDROOT
BRANCH   7  11
ATOM     11  C   UNL A   1     -28.468  -4.655  30.389  0.00  0.00    -0.000 A 
ATOM     12  C   UNL A   1     -28.690  -5.349  31.452  0.00  0.00    +0.000 A 
ATOM     13  C   UNL A   1     -29.850  -6.138  31.704  0.00  0.00    +0.000 A 
ATOM     14  C   UNL A   1     -30.887  -6.124  30.740  0.00  0.00    +0.000 A 
ATOM     15  C   UNL A   1     -30.704  -5.409  29.564  0.00  0.00    +0.000 A 
ATOM     16  C   UNL A   1     -29.576  -4.685  29.317  0.00  0.00    +0.000 A 
ENDBRANCH   7  11
BRANCH  10  17
ATOM     17  C   UNL A   1     -24.096  -1.476  28.681  0.00  0.00    +0.003 C 
ATOM     18  C   UNL A   1     -23.130  -0.940  29.567  0.00  0.00    +0.069 C 
ATOM     19  C   UNL A   1     -23.236  -0.823  30.917  0.00  0.00    +0.039 C 
BRANCH  18  20
ATOM     20  C   UNL A   1     -21.968  -0.405  28.813  0.00  0.00    +0.409 C 
ATOM     21  N   UNL A   1     -20.920  -1.124  28.806  0.00  0.00    +0.197 NA
ATOM     22  N   UNL A   1     -21.975   0.810  28.289  0.00  0.00    -0.028 NA
BRANCH  22  23
ATOM     23  C   UNL A   1     -23.011   1.653  28.065  0.00  0.00    +0.256 C 
BRANCH  23  24
ATOM     24  C   UNL A   1     -23.319   1.744  26.495  0.00  0.00    +0.082 C 
BRANCH  24  25
ATOM     25  C   UNL A   1     -24.609   1.329  26.085  0.00  0.00    -0.018 A 
ATOM     26  C   UNL A   1     -25.697   1.674  26.959  0.00  0.00    -0.004 A 
ATOM     27  C   UNL A   1     -26.981   1.209  26.617  0.00  0.00    -0.000 A 
ATOM     28  C   UNL A   1     -27.190   0.243  25.629  0.00  0.00    -0.000 A 
ATOM     29  C   UNL A   1     -26.074  -0.197  24.850  0.00  0.00    -0.000 A 
ATOM     30  C   UNL A   1     -24.806   0.309  25.112  0.00  0.00    -0.004 A 
ENDBRANCH  24  25
ENDBRANCH  23  24
ENDBRANCH  22  23
ENDBRANCH  18  20
ENDBRANCH  10  17
BRANCH   1  31
ATOM     31  C   UNL A   1     -27.069   1.691  31.237  0.00  0.00    +0.143 C 
BRANCH  31  32
ATOM     32  N   UNL A   1     -26.034   2.156  31.828  0.00  0.00    -0.181 NA
ATOM     33  C   UNL A   1     -25.360   3.253  31.272  0.00  0.00    +0.359 C 
ATOM     34  N   UNL A   1     -24.524   3.882  32.158  0.00  0.00    -0.068 NA
ATOM     35  O   UNL A   1     -25.276   3.428  30.094  0.00  0.00    -0.247 OA
ENDBRANCH  31  32
ENDBRANCH   1  31
TORSDOF 8
ENDMDL
ENDMDL
