MODEL 4546
MODEL 1
REMARK VINA RESULT:    -7.241      0.000      0.000
REMARK INTER + INTRA:         -12.945
REMARK INTER:                 -11.474
REMARK INTRA:                  -1.471
REMARK UNBOUND:                -1.471
REMARK  Name = No_4546-gen_results/8p0m/2024-11-26-14-13-15/
REMARK  10 active torsions:
REMARK  status: ('A' for Active; 'I' for Inactive)
REMARK    1  A    between atoms: C_3  and  C_8
REMARK    2  A    between atoms: C_6  and  O_7
REMARK    3  A    between atoms: O_7  and  C_14
REMARK    4  A    between atoms: C_14  and  C_15
REMARK    5  A    between atoms: C_17  and  C_21
REMARK    6  A    between atoms: C_20  and  O_24
REMARK    7  A    between atoms: O_24  and  C_25
REMARK    8  A    between atoms: C_25  and  C_26
REMARK    9  A    between atoms: C_26  and  O_28
REMARK   10  A    between atoms: O_28  and  C_30
REMARK                            x       y       z     vdW  Elec       q    Type
REMARK                         _______ _______ _______ _____ _____    ______ ____
ROOT
ATOM      1  C   UNL A   1     -24.893 -17.432   6.048  0.00  0.00    +0.265 C 
ATOM      2  O   UNL A   1     -25.596 -17.656   6.978  0.00  0.00    -0.467 OA
ATOM      3  C   UNL A   1     -26.174 -16.732   7.796  0.00  0.00    +0.181 C 
ATOM      4  C   UNL A   1     -26.410 -15.581   7.295  0.00  0.00    +0.041 C 
ATOM      5  C   UNL A   1     -25.573 -15.093   6.207  0.00  0.00    +0.039 C 
ATOM      6  C   UNL A   1     -24.726 -16.029   5.544  0.00  0.00    +0.160 C 
ENDROOT
BRANCH   3   7
ATOM      7  C   UNL A   1     -26.828 -17.272   8.984  0.00  0.00    +0.365 C 
ATOM      8  O   UNL A   1     -26.178 -17.698   9.927  0.00  0.00    -0.176 OA
ATOM      9  F   UNL A   1     -28.004 -16.985   9.115  0.00  0.00    -0.192 F 
ENDBRANCH   3   7
BRANCH   1  10
ATOM     10  C   UNL A   1     -23.742 -18.216   5.770  0.00  0.00    +0.256 C 
BRANCH  10  11
ATOM     11  O   UNL A   1     -22.701 -18.041   6.637  0.00  0.00    -0.471 OA
BRANCH  11  17
ATOM     12  C   UNL A   1     -20.490 -18.677   5.764  0.00  0.00    +0.037 A 
ATOM     13  C   UNL A   1     -19.503 -19.374   5.814  0.00  0.00    +0.003 A 
ATOM     14  C   UNL A   1     -19.432 -20.456   6.684  0.00  0.00    +0.000 A 
ATOM     15  C   UNL A   1     -20.513 -20.752   7.588  0.00  0.00    +0.003 A 
ATOM     16  C   UNL A   1     -21.605 -19.881   7.481  0.00  0.00    +0.037 A 
ATOM     17  C   UNL A   1     -21.616 -18.862   6.652  0.00  0.00    +0.139 A 
BRANCH  14  18
ATOM     18  C   UNL A   1     -18.266 -21.403   6.831  0.00  0.00    +0.000 A 
ATOM     19  C   UNL A   1     -17.803 -21.713   8.029  0.00  0.00    +0.000 A 
ATOM     20  C   UNL A   1     -16.622 -22.452   8.183  0.00  0.00    +0.000 A 
ATOM     21  C   UNL A   1     -15.875 -22.903   7.038  0.00  0.00    +0.000 A 
ATOM     22  C   UNL A   1     -17.481 -21.771   5.688  0.00  0.00    +0.000 A 
ATOM     23  C   UNL A   1     -16.316 -22.586   5.833  0.00  0.00    +0.000 A 
ENDBRANCH  14  18
ENDBRANCH  11  17
ENDBRANCH  10  11
ENDBRANCH   1  10
BRANCH   6  24
ATOM     24  O   UNL A   1     -24.038 -15.764   4.480  0.00  0.00    -0.467 OA
BRANCH  24  25
ATOM     25  C   UNL A   1     -23.663 -14.489   4.090  0.00  0.00    +0.318 C 
BRANCH  25  26
ATOM     26  C   UNL A   1     -22.386 -14.138   4.629  0.00  0.00    +0.451 C 
ATOM     27  F   UNL A   1     -21.854 -15.106   5.138  0.00  0.00    -0.159 F 
ATOM     28  F   UNL A   1     -22.571 -13.175   5.557  0.00  0.00    -0.159 F 
BRANCH  26  29
ATOM     29  O   UNL A   1     -21.516 -13.653   3.614  0.00  0.00    -0.414 OA
BRANCH  29  30
ATOM     30  C   UNL A   1     -21.258 -12.445   3.306  0.00  0.00    +0.263 C 
ATOM     31  C   UNL A   1     -19.798 -12.108   3.217  0.00  0.00    +0.175 C 
ATOM     32  O   UNL A   1     -19.253 -12.833   2.337  0.00  0.00    -0.228 OA
ENDBRANCH  29  30
ENDBRANCH  26  29
ENDBRANCH  25  26
ENDBRANCH  24  25
ENDBRANCH   6  24
TORSDOF 10
ENDMDL
ENDMDL
