MODEL 4547
MODEL 1
REMARK VINA RESULT:    -7.165      0.000      0.000
REMARK INTER + INTRA:         -12.716
REMARK INTER:                 -10.516
REMARK INTRA:                  -2.200
REMARK UNBOUND:                -2.200
REMARK  Name = No_4547-gen_results/8p0m/2024-11-26-14-13-15/
REMARK  8 active torsions:
REMARK  status: ('A' for Active; 'I' for Inactive)
REMARK    1  A    between atoms: C_1  and  C_8
REMARK    2  A    between atoms: C_5  and  C_11
REMARK    3  A    between atoms: C_8  and  O_10
REMARK    4  A    between atoms: O_10  and  C_15
REMARK    5  A    between atoms: C_15  and  C_16
REMARK    6  A    between atoms: C_15  and  C_33
REMARK    7  A    between atoms: C_20  and  C_22
REMARK    8  A    between atoms: C_28  and  C_30
REMARK                            x       y       z     vdW  Elec       q    Type
REMARK                         _______ _______ _______ _____ _____    ______ ____
ROOT
ATOM      1  C   UNL A   1     -26.102   0.658  28.106  0.00  0.00    +0.213 C 
ENDROOT
BRANCH   1   2
ATOM      2  C   UNL A   1     -26.502   0.392  26.882  0.00  0.00    +0.022 A 
ATOM      3  C   UNL A   1     -27.756   0.365  26.593  0.00  0.00    +0.004 A 
ATOM      4  C   UNL A   1     -25.583   0.176  25.766  0.00  0.00    -0.001 A 
ATOM      5  C   UNL A   1     -25.990  -0.028  24.417  0.00  0.00    -0.000 A 
ATOM      6  C   UNL A   1     -28.245   0.125  25.198  0.00  0.00    +0.053 A 
ATOM      7  C   UNL A   1     -27.339  -0.100  24.196  0.00  0.00    +0.004 A 
BRANCH   6   8
ATOM      8  C   UNL A   1     -29.683   0.055  24.947  0.00  0.00    +0.249 C 
ATOM      9  N   UNL A   1     -30.165   0.771  24.084  0.00  0.00    -0.276 N 
ATOM     10  C   UNL A   1     -29.805   1.863  23.708  0.00  0.00    +0.094 C 
ATOM     11  C   UNL A   1     -30.546   2.599  22.591  0.00  0.00    +0.033 C 
ATOM     12  C   UNL A   1     -31.334   0.210  23.329  0.00  0.00    +0.094 C 
ATOM     13  C   UNL A   1     -32.026   0.883  22.348  0.00  0.00    +0.033 C 
ATOM     14  C   UNL A   1     -31.590   2.158  21.991  0.00  0.00    +0.107 C 
ATOM     15  O   UNL A   1     -30.247  -0.740  25.704  0.00  0.00    -0.270 OA
BRANCH  14  16
ATOM     16  C   UNL A   1     -32.286   2.905  20.955  0.00  0.00    +0.364 C 
ATOM     17  O   UNL A   1     -31.753   3.229  19.995  0.00  0.00    -0.246 OA
ATOM     18  O   UNL A   1     -33.513   3.181  21.238  0.00  0.00    -0.246 OA
ENDBRANCH  14  16
ENDBRANCH   6   8
ENDBRANCH   1   2
BRANCH   1  19
ATOM     19  C   UNL A   1     -26.700  -0.354  29.110  0.00  0.00    +0.017 C 
ATOM     20  C   UNL A   1     -26.019  -1.541  29.293  0.00  0.00    -0.026 C 
ATOM     21  C   UNL A   1     -26.395  -2.474  30.028  0.00  0.00    +0.030 C 
ENDBRANCH   1  19
BRANCH   1  22
ATOM     22  O   UNL A   1     -24.770   0.531  28.288  0.00  0.00    -0.440 OA
BRANCH  22  23
ATOM     23  C   UNL A   1     -24.009   1.546  28.762  0.00  0.00    +0.341 C 
ATOM     24  O   UNL A   1     -23.906   2.470  28.302  0.00  0.00    -0.245 OA
BRANCH  23  25
ATOM     25  C   UNL A   1     -23.135   1.151  29.907  0.00  0.00    +0.076 C 
ATOM     26  C   UNL A   1     -23.745   0.826  30.900  0.00  0.00    -0.006 C 
ATOM     27  C   UNL A   1     -23.455  -0.318  31.643  0.00  0.00    +0.180 C 
ATOM     28  C   UNL A   1     -24.151  -0.795  32.854  0.00  0.00    +0.051 C 
ATOM     29  C   UNL A   1     -25.085   0.117  33.433  0.00  0.00    +0.107 C 
ATOM     30  C   UNL A   1     -25.373   1.299  32.744  0.00  0.00    +0.016 C 
ATOM     31  C   UNL A   1     -24.762   1.650  31.590  0.00  0.00    +0.025 C 
ATOM     32  F   UNL A   1     -22.577  -1.210  31.258  0.00  0.00    -0.233 F 
BRANCH  29  33
ATOM     33  C   UNL A   1     -25.769  -0.329  34.641  0.00  0.00    +0.364 C 
ATOM     34  O   UNL A   1     -25.317  -1.208  35.417  0.00  0.00    -0.246 OA
ATOM     35  O   UNL A   1     -26.727   0.462  35.092  0.00  0.00    -0.246 OA
ENDBRANCH  29  33
ENDBRANCH  23  25
ENDBRANCH  22  23
ENDBRANCH   1  22
TORSDOF 8
ENDMDL
ENDMDL
