REMARK  Name = No_4547-gen_results/8p0m/2024-11-26-14-13-15/
REMARK  8 active torsions:
REMARK  status: ('A' for Active; 'I' for Inactive)
REMARK    1  A    between atoms: C_1  and  C_8
REMARK    2  A    between atoms: C_5  and  C_11
REMARK    3  A    between atoms: C_8  and  O_10
REMARK    4  A    between atoms: O_10  and  C_15
REMARK    5  A    between atoms: C_15  and  C_16
REMARK    6  A    between atoms: C_15  and  C_33
REMARK    7  A    between atoms: C_20  and  C_22
REMARK    8  A    between atoms: C_28  and  C_30
REMARK                            x       y       z     vdW  Elec       q    Type
REMARK                         _______ _______ _______ _____ _____    ______ ____
ROOT
ATOM      1  C   UNL A   1     -31.043  -0.295  30.826  0.00  0.00    +0.213 C 
ENDROOT
BRANCH   1   2
ATOM      2  C   UNL A   1     -31.426  -0.888  31.935  0.00  0.00    +0.022 A 
ATOM      3  C   UNL A   1     -32.634  -0.764  32.362  0.00  0.00    +0.004 A 
ATOM      4  C   UNL A   1     -30.557  -1.765  32.718  0.00  0.00    -0.001 A 
ATOM      5  C   UNL A   1     -30.972  -2.486  33.873  0.00  0.00    -0.000 A 
ATOM      6  C   UNL A   1     -33.120  -1.474  33.588  0.00  0.00    +0.053 A 
ATOM      7  C   UNL A   1     -32.254  -2.261  34.299  0.00  0.00    +0.004 A 
BRANCH   6   8
ATOM      8  C   UNL A   1     -34.489  -1.249  34.048  0.00  0.00    +0.249 C 
ATOM      9  N   UNL A   1     -34.772  -0.171  34.546  0.00  0.00    -0.276 N 
ATOM     10  C   UNL A   1     -34.071   0.589  35.173  0.00  0.00    +0.094 C 
ATOM     11  C   UNL A   1     -34.620   1.913  35.708  0.00  0.00    +0.033 C 
ATOM     12  C   UNL A   1     -36.167   0.328  34.304  0.00  0.00    +0.094 C 
ATOM     13  C   UNL A   1     -36.675   1.502  34.813  0.00  0.00    +0.033 C 
ATOM     14  C   UNL A   1     -35.830   2.313  35.568  0.00  0.00    +0.107 C 
ATOM     15  O   UNL A   1     -35.201  -2.244  33.889  0.00  0.00    -0.270 OA
BRANCH  14  16
ATOM     16  C   UNL A   1     -36.321   3.565  36.121  0.00  0.00    +0.364 C 
ATOM     17  O   UNL A   1     -35.951   3.955  37.132  0.00  0.00    -0.246 OA
ATOM     18  O   UNL A   1     -37.209   4.152  35.393  0.00  0.00    -0.246 OA
ENDBRANCH  14  16
ENDBRANCH   6   8
ENDBRANCH   1   2
BRANCH   1  19
ATOM     19  C   UNL A   1     -31.062   1.242  30.991  0.00  0.00    +0.017 C 
ATOM     20  C   UNL A   1     -30.641   1.753  32.203  0.00  0.00    -0.026 C 
ATOM     21  C   UNL A   1     -30.643   2.961  32.508  0.00  0.00    +0.030 C 
ENDBRANCH   1  19
BRANCH   1  22
ATOM     22  O   UNL A   1     -29.766  -0.557  30.476  0.00  0.00    -0.440 OA
BRANCH  22  23
ATOM     23  C   UNL A   1     -29.210  -0.050  29.349  0.00  0.00    +0.341 C 
ATOM     24  O   UNL A   1     -29.636   0.695  28.766  0.00  0.00    -0.245 OA
BRANCH  23  25
ATOM     25  C   UNL A   1     -28.016  -0.814  28.878  0.00  0.00    +0.076 C 
ATOM     26  C   UNL A   1     -27.064  -0.119  28.608  0.00  0.00    -0.006 C 
ATOM     27  C   UNL A   1     -25.765  -0.390  29.036  0.00  0.00    +0.180 C 
ATOM     28  C   UNL A   1     -24.552   0.406  28.765  0.00  0.00    +0.051 C 
ATOM     29  C   UNL A   1     -24.696   1.448  27.799  0.00  0.00    +0.107 C 
ATOM     30  C   UNL A   1     -25.976   1.725  27.308  0.00  0.00    +0.016 C 
ATOM     31  C   UNL A   1     -27.072   1.013  27.654  0.00  0.00    +0.025 C 
ATOM     32  F   UNL A   1     -25.482  -1.354  29.876  0.00  0.00    -0.233 F 
BRANCH  29  33
ATOM     33  C   UNL A   1     -23.504   2.234  27.504  0.00  0.00    +0.364 C 
ATOM     34  O   UNL A   1     -22.346   1.911  27.869  0.00  0.00    -0.246 OA
ATOM     35  O   UNL A   1     -23.623   3.130  26.540  0.00  0.00    -0.246 OA
ENDBRANCH  29  33
ENDBRANCH  23  25
ENDBRANCH  22  23
ENDBRANCH   1  22
TORSDOF 8
