REMARK  Name = No_4548-gen_results/8p0m/2024-11-26-14-13-15/
REMARK  1 active torsions:
REMARK  status: ('A' for Active; 'I' for Inactive)
REMARK    1  A    between atoms: C_2  and  C_7
REMARK                            x       y       z     vdW  Elec       q    Type
REMARK                         _______ _______ _______ _____ _____    ______ ____
ROOT
ATOM      1  C   UNL A   1     -30.074  -0.836  29.861  0.00  0.00    +0.001 A 
ATOM      2  C   UNL A   1     -30.760   0.241  30.404  0.00  0.00    +0.000 A 
ATOM      3  C   UNL A   1     -32.144   0.246  30.354  0.00  0.00    +0.001 A 
ATOM      4  C   UNL A   1     -32.776  -0.851  29.721  0.00  0.00    +0.011 A 
ATOM      5  C   UNL A   1     -32.084  -1.882  29.188  0.00  0.00    +0.058 A 
ATOM      6  C   UNL A   1     -30.714  -1.900  29.289  0.00  0.00    +0.011 A 
ATOM      7 CL   UNL A   1     -32.825  -3.209  28.455  0.00  0.00    -0.082 Cl
ENDROOT
BRANCH   1   9
ATOM      8  C   UNL A   1     -28.016  -0.814  28.878  0.00  0.00    +0.000 A 
ATOM      9  C   UNL A   1     -28.469  -0.785  29.829  0.00  0.00    +0.000 A 
ATOM     10  C   UNL A   1     -26.504  -0.778  28.877  0.00  0.00    +0.000 A 
ATOM     11  C   UNL A   1     -25.810  -0.853  30.103  0.00  0.00    +0.000 A 
ATOM     12  C   UNL A   1     -27.991  -0.892  31.226  0.00  0.00    +0.000 A 
ATOM     13  C   UNL A   1     -26.604  -0.868  31.265  0.00  0.00    +0.000 A 
ENDBRANCH   1   9
TORSDOF 1
