REMARK  Name = No_4549-gen_results/8p0m/2024-11-26-14-13-15/
REMARK  0 active torsions:
REMARK  status: ('A' for Active; 'I' for Inactive)
REMARK                            x       y       z     vdW  Elec       q    Type
REMARK                         _______ _______ _______ _____ _____    ______ ____
ROOT
ATOM      1  N   UNL A   1     -28.054  -1.050  28.725  0.00  0.00    -0.229 NA
ATOM      2  C   UNL A   1     -28.654  -0.567  29.508  0.00  0.00    +0.132 A 
ATOM      3  C   UNL A   1     -26.695  -1.322  29.024  0.00  0.00    +0.100 A 
ATOM      4  C   UNL A   1     -26.278  -1.047  30.359  0.00  0.00    +0.021 A 
ATOM      5  C   UNL A   1     -28.465  -0.219  30.866  0.00  0.00    +0.034 A 
ATOM      6  C   UNL A   1     -27.147  -0.450  31.255  0.00  0.00    +0.004 A 
ATOM      7  N   UNL A   1     -30.074  -0.291  29.232  0.00  0.00    -0.293 N 
ATOM      8  C   UNL A   1     -31.039  -0.260  29.993  0.00  0.00    +0.092 C 
ATOM      9  C   UNL A   1     -32.269   0.112  29.521  0.00  0.00    +0.021 C 
ATOM     10  C   UNL A   1     -30.379  -0.103  27.850  0.00  0.00    +0.092 C 
ATOM     11  C   UNL A   1     -31.611   0.160  27.355  0.00  0.00    +0.021 C 
ATOM     12  C   UNL A   1     -32.583   0.281  28.267  0.00  0.00    +0.004 C 
ENDROOT
TORSDOF 0
