MODEL 454
MODEL 1
REMARK VINA RESULT:    -7.951      0.000      0.000
REMARK INTER + INTRA:          -8.887
REMARK INTER:                  -8.416
REMARK INTRA:                  -0.470
REMARK UNBOUND:                -0.470
REMARK  Name = No_454-gen_results/8p0m/2024-11-26-14-13-15/
REMARK  1 active torsions:
REMARK  status: ('A' for Active; 'I' for Inactive)
REMARK    1  A    between atoms: C_3  and  C_4
REMARK                            x       y       z     vdW  Elec       q    Type
REMARK                         _______ _______ _______ _____ _____    ______ ____
ROOT
ATOM      1  C   UNL A   1     -24.738  -0.678  27.575  0.00  0.00    +0.003 A 
ATOM      2  C   UNL A   1     -24.190   0.211  27.432  0.00  0.00    +0.031 A 
ATOM      3  C   UNL A   1     -24.162  -1.560  28.598  0.00  0.00    +0.000 A 
ATOM      4  C   UNL A   1     -22.871   0.612  27.836  0.00  0.00    -0.019 A 
ATOM      5  C   UNL A   1     -22.217   1.812  27.421  0.00  0.00    +0.027 C 
ATOM      6  C   UNL A   1     -22.957  -1.283  29.167  0.00  0.00    -0.000 A 
ATOM      7  C   UNL A   1     -22.339  -0.205  28.789  0.00  0.00    -0.004 A 
ATOM      8  C   UNL A   1     -22.454   2.409  26.426  0.00  0.00    +0.013 C 
ATOM      9  C   UNL A   1     -23.451   1.947  25.530  0.00  0.00    +0.070 C 
ATOM     10  C   UNL A   1     -24.452   1.029  26.083  0.00  0.00    +0.173 C 
ATOM     11  O   UNL A   1     -25.536   0.704  25.415  0.00  0.00    -0.291 OA
ENDROOT
BRANCH   3  12
ATOM     12  C   UNL A   1     -24.896  -2.748  29.073  0.00  0.00    +0.000 A 
ATOM     13  C   UNL A   1     -24.499  -3.978  28.854  0.00  0.00    +0.000 A 
ATOM     14  C   UNL A   1     -25.260  -5.066  29.277  0.00  0.00    +0.000 A 
ATOM     15  C   UNL A   1     -26.509  -4.875  29.841  0.00  0.00    +0.000 A 
ATOM     16  C   UNL A   1     -26.960  -3.586  30.076  0.00  0.00    +0.000 A 
ATOM     17  C   UNL A   1     -26.216  -2.545  29.707  0.00  0.00    +0.000 A 
ENDBRANCH   3  12
TORSDOF 1
ENDMDL
ENDMDL
