REMARK  Name = No_455-gen_results/8p0m/2024-11-26-14-13-15/
REMARK  2 active torsions:
REMARK  status: ('A' for Active; 'I' for Inactive)
REMARK    1  A    between atoms: C_5  and  C_8
REMARK    2  A    between atoms: N_9  and  C_11
REMARK                            x       y       z     vdW  Elec       q    Type
REMARK                         _______ _______ _______ _____ _____    ______ ____
ROOT
ATOM      1  C   UNL A   1     -26.486   4.560  29.594  0.00  0.00    +0.269 C 
ATOM      2  N   UNL A   1     -25.841   4.834  30.642  0.00  0.00    -0.175 NA
ATOM      3  O   UNL A   1     -26.582   5.418  28.688  0.00  0.00    -0.268 OA
ENDROOT
BRANCH   2   4
ATOM      4  C   UNL A   1     -25.303   6.250  30.907  0.00  0.00    +0.074 A 
ATOM      5  C   UNL A   1     -24.840   6.347  32.299  0.00  0.00    +0.017 A 
ATOM      6  C   UNL A   1     -23.840   7.125  32.556  0.00  0.00    +0.001 A 
ATOM      7  C   UNL A   1     -23.512   8.256  31.659  0.00  0.00    +0.000 A 
ATOM      8  C   UNL A   1     -24.140   8.155  30.389  0.00  0.00    +0.001 A 
ATOM      9  C   UNL A   1     -24.915   7.076  30.034  0.00  0.00    +0.017 A 
ATOM     10  C   UNL A   1     -22.568   9.154  32.247  0.00  0.00    +0.000 A 
ATOM     11  C   UNL A   1     -21.755   8.874  33.036  0.00  0.00    +0.000 A 
ATOM     12  C   UNL A   1     -22.047   7.742  34.013  0.00  0.00    +0.000 A 
ATOM     13  C   UNL A   1     -23.086   6.965  33.750  0.00  0.00    +0.000 A 
ENDBRANCH   2   4
BRANCH   1  18
ATOM     14 CL   UNL A   1     -28.149  -0.820  28.908  0.00  0.00    -0.082 Cl
ATOM     15  C   UNL A   1     -27.834   0.496  29.060  0.00  0.00    +0.058 A 
ATOM     16  C   UNL A   1     -27.514   1.238  28.049  0.00  0.00    +0.011 A 
ATOM     17  C   UNL A   1     -27.055   2.625  28.133  0.00  0.00    +0.005 A 
ATOM     18  C   UNL A   1     -26.944   3.184  29.430  0.00  0.00    +0.055 A 
ATOM     19  C   UNL A   1     -27.221   2.358  30.512  0.00  0.00    +0.005 A 
ATOM     20  C   UNL A   1     -27.599   1.059  30.370  0.00  0.00    +0.011 A 
ENDBRANCH   1  18
TORSDOF 2
