REMARK  Name = No_4550-gen_results/8p0m/2024-11-26-14-13-15/
REMARK  2 active torsions:
REMARK  status: ('A' for Active; 'I' for Inactive)
REMARK    1  A    between atoms: C_3  and  C_7
REMARK    2  A    between atoms: N_9  and  C_10
REMARK                            x       y       z     vdW  Elec       q    Type
REMARK                         _______ _______ _______ _____ _____    ______ ____
ROOT
ATOM      1  C   UNL A   1     -27.448   0.380  26.712  0.00  0.00    +0.323 C 
ATOM      2  N   UNL A   1     -27.866   0.672  25.715  0.00  0.00    -0.060 NA
ATOM      3  N   UNL A   1     -26.056   0.072  26.744  0.00  0.00    -0.166 N 
ATOM      4  C   UNL A   1     -25.510   0.342  25.425  0.00  0.00    +0.259 C 
ATOM      5  C   UNL A   1     -29.167   0.956  25.290  0.00  0.00    +0.321 C 
ENDROOT
BRANCH   1   8
ATOM      6  C   UNL A   1     -28.016  -0.814  28.878  0.00  0.00    +0.007 A 
ATOM      7  C   UNL A   1     -28.469  -0.785  29.829  0.00  0.00    +0.000 A 
ATOM      8  C   UNL A   1     -28.196   0.348  28.055  0.00  0.00    +0.082 A 
ATOM      9  C   UNL A   1     -29.019   1.350  28.378  0.00  0.00    +0.007 A 
ATOM     10  C   UNL A   1     -29.411   0.180  30.378  0.00  0.00    +0.000 A 
ATOM     11  C   UNL A   1     -29.606   1.250  29.619  0.00  0.00    +0.000 A 
ENDBRANCH   1   8
BRANCH   3  12
ATOM     12  C   UNL A   1     -25.211  -0.128  27.785  0.00  0.00    +0.139 A 
ATOM     13  C   UNL A   1     -24.133   0.692  28.002  0.00  0.00    +0.040 A 
ATOM     14  C   UNL A   1     -23.406   0.648  28.823  0.00  0.00    +0.004 A 
ATOM     15  C   UNL A   1     -23.344  -0.499  29.775  0.00  0.00    +0.000 A 
ATOM     16  C   UNL A   1     -25.280  -1.231  28.665  0.00  0.00    +0.040 A 
ATOM     17  C   UNL A   1     -24.309  -1.392  29.632  0.00  0.00    +0.004 A 
ENDBRANCH   3  12
TORSDOF 2
