MODEL 4550
MODEL 1
REMARK VINA RESULT:    -6.578      0.000      0.000
REMARK INTER + INTRA:          -8.109
REMARK INTER:                  -7.347
REMARK INTRA:                  -0.762
REMARK UNBOUND:                -0.762
REMARK  Name = No_4550-gen_results/8p0m/2024-11-26-14-13-15/
REMARK  2 active torsions:
REMARK  status: ('A' for Active; 'I' for Inactive)
REMARK    1  A    between atoms: C_3  and  C_7
REMARK    2  A    between atoms: N_9  and  C_10
REMARK                            x       y       z     vdW  Elec       q    Type
REMARK                         _______ _______ _______ _____ _____    ______ ____
ROOT
ATOM      1  C   UNL A   1     -24.906  -0.160  29.697  0.00  0.00    +0.323 C 
ATOM      2  N   UNL A   1     -24.876   0.858  29.230  0.00  0.00    -0.060 NA
ATOM      3  N   UNL A   1     -25.238  -1.240  28.827  0.00  0.00    -0.166 N 
ATOM      4  C   UNL A   1     -25.343  -0.710  27.479  0.00  0.00    +0.259 C 
ATOM      5  C   UNL A   1     -24.674   2.131  29.769  0.00  0.00    +0.321 C 
ENDROOT
BRANCH   1   8
ATOM      6  C   UNL A   1     -23.227  -0.992  31.408  0.00  0.00    +0.007 A 
ATOM      7  C   UNL A   1     -22.980  -1.158  32.419  0.00  0.00    +0.000 A 
ATOM      8  C   UNL A   1     -24.558  -0.521  31.150  0.00  0.00    +0.082 A 
ATOM      9  C   UNL A   1     -25.501  -0.447  32.094  0.00  0.00    +0.007 A 
ATOM     10  C   UNL A   1     -23.839  -1.159  33.595  0.00  0.00    +0.000 A 
ATOM     11  C   UNL A   1     -25.079  -0.747  33.369  0.00  0.00    +0.000 A 
ENDBRANCH   1   8
BRANCH   3  12
ATOM     12  C   UNL A   1     -25.181  -2.582  29.012  0.00  0.00    +0.139 A 
ATOM     13  C   UNL A   1     -24.149  -3.333  28.508  0.00  0.00    +0.040 A 
ATOM     14  C   UNL A   1     -23.981  -4.412  28.621  0.00  0.00    +0.004 A 
ATOM     15  C   UNL A   1     -25.012  -5.325  29.195  0.00  0.00    +0.000 A 
ATOM     16  C   UNL A   1     -26.201  -3.345  29.624  0.00  0.00    +0.040 A 
ATOM     17  C   UNL A   1     -26.087  -4.719  29.672  0.00  0.00    +0.004 A 
ENDBRANCH   3  12
TORSDOF 2
ENDMDL
ENDMDL
