MODEL 4551
MODEL 1
REMARK VINA RESULT:    -7.184      0.000      0.000
REMARK INTER + INTRA:          -9.829
REMARK INTER:                  -8.864
REMARK INTRA:                  -0.965
REMARK UNBOUND:                -0.965
REMARK  Name = No_4551-gen_results/8p0m/2024-11-26-14-13-15/
REMARK  4 active torsions:
REMARK  status: ('A' for Active; 'I' for Inactive)
REMARK    1  A    between atoms: C_3  and  C_4
REMARK    2  A    between atoms: C_4  and  C_8
REMARK    3  A    between atoms: C_8  and  C_9
REMARK    4  A    between atoms: C_8  and  C_15
REMARK                            x       y       z     vdW  Elec       q    Type
REMARK                         _______ _______ _______ _____ _____    ______ ____
ROOT
ATOM      1  C   UNL A   1     -23.631  -0.546  29.532  0.00  0.00    +0.027 C 
ENDROOT
BRANCH   1   2
ATOM      2  C   UNL A   1     -23.593   0.151  28.337  0.00  0.00    -0.022 A 
ATOM      3  C   UNL A   1     -24.453   0.220  27.286  0.00  0.00    -0.004 A 
ATOM      4  C   UNL A   1     -24.291   1.070  26.152  0.00  0.00    -0.000 A 
ATOM      5  C   UNL A   1     -23.160   1.861  26.101  0.00  0.00    -0.000 A 
ATOM      6  C   UNL A   1     -22.378   1.080  28.205  0.00  0.00    -0.004 A 
ATOM      7  C   UNL A   1     -22.271   1.908  27.085  0.00  0.00    -0.000 A 
ENDBRANCH   1   2
BRANCH   1   8
ATOM      8  C   UNL A   1     -22.677  -0.536  30.493  0.00  0.00    +0.005 C 
ATOM      9  C   UNL A   1     -23.082  -0.797  31.867  0.00  0.00    +0.000 C 
ENDBRANCH   1   8
BRANCH   1  10
ATOM     10  C   UNL A   1     -24.905  -1.219  29.716  0.00  0.00    +0.031 C 
BRANCH  10  13
ATOM     11  C   UNL A   1     -23.808  -3.415  28.755  0.00  0.00    -0.004 A 
ATOM     12  C   UNL A   1     -24.035  -4.421  28.538  0.00  0.00    -0.000 A 
ATOM     13  C   UNL A   1     -24.906  -2.635  29.444  0.00  0.00    -0.022 A 
ATOM     14  C   UNL A   1     -25.137  -5.292  28.969  0.00  0.00    -0.000 A 
ATOM     15  C   UNL A   1     -26.167  -4.656  29.629  0.00  0.00    -0.000 A 
ATOM     16  C   UNL A   1     -26.082  -3.319  29.920  0.00  0.00    -0.004 A 
ENDBRANCH  10  13
ENDBRANCH   1  10
TORSDOF 4
ENDMDL
ENDMDL
