REMARK  Name = No_4551-gen_results/8p0m/2024-11-26-14-13-15/
REMARK  4 active torsions:
REMARK  status: ('A' for Active; 'I' for Inactive)
REMARK    1  A    between atoms: C_3  and  C_4
REMARK    2  A    between atoms: C_4  and  C_8
REMARK    3  A    between atoms: C_8  and  C_9
REMARK    4  A    between atoms: C_8  and  C_15
REMARK                            x       y       z     vdW  Elec       q    Type
REMARK                         _______ _______ _______ _____ _____    ______ ____
ROOT
ATOM      1  C   UNL A   1     -25.220   0.687  27.394  0.00  0.00    +0.027 C 
ENDROOT
BRANCH   1   2
ATOM      2  C   UNL A   1     -23.901   0.898  27.760  0.00  0.00    -0.022 A 
ATOM      3  C   UNL A   1     -23.102   0.313  28.691  0.00  0.00    -0.004 A 
ATOM      4  C   UNL A   1     -21.718   0.603  28.879  0.00  0.00    -0.000 A 
ATOM      5  C   UNL A   1     -21.153   1.574  28.076  0.00  0.00    -0.000 A 
ATOM      6  C   UNL A   1     -23.184   1.946  26.899  0.00  0.00    -0.004 A 
ATOM      7  C   UNL A   1     -21.823   2.184  27.106  0.00  0.00    -0.000 A 
ENDBRANCH   1   2
BRANCH   1   8
ATOM      8  C   UNL A   1     -26.007   1.553  26.713  0.00  0.00    +0.005 C 
ATOM      9  C   UNL A   1     -26.474   2.747  27.404  0.00  0.00    +0.000 C 
ENDBRANCH   1   8
BRANCH   1  10
ATOM     10  C   UNL A   1     -25.654  -0.660  27.719  0.00  0.00    +0.031 C 
BRANCH  10  13
ATOM     11  C   UNL A   1     -28.016  -0.814  28.878  0.00  0.00    -0.004 A 
ATOM     12  C   UNL A   1     -28.469  -0.785  29.829  0.00  0.00    -0.000 A 
ATOM     13  C   UNL A   1     -26.504  -0.778  28.877  0.00  0.00    -0.022 A 
ATOM     14  C   UNL A   1     -27.918  -0.937  31.182  0.00  0.00    -0.000 A 
ATOM     15  C   UNL A   1     -26.542  -0.940  31.261  0.00  0.00    -0.000 A 
ATOM     16  C   UNL A   1     -25.783  -0.893  30.120  0.00  0.00    -0.004 A 
ENDBRANCH  10  13
ENDBRANCH   1  10
TORSDOF 4
