REMARK  Name = No_4552-gen_results/8p0m/2024-11-26-14-13-15/
REMARK  6 active torsions:
REMARK  status: ('A' for Active; 'I' for Inactive)
REMARK    1  A    between atoms: C_1  and  C_17
REMARK    2  A    between atoms: C_3  and  C_11
REMARK    3  A    between atoms: C_5  and  C_7
REMARK    4  A    between atoms: C_7  and  N_8
REMARK    5  A    between atoms: C_10  and  C_20
REMARK    6  A    between atoms: C_20  and  C_21
REMARK                            x       y       z     vdW  Elec       q    Type
REMARK                         _______ _______ _______ _____ _____    ______ ____
ROOT
ATOM      1  C   UNL A   1     -28.016  -0.814  28.878  0.00  0.00    +0.080 A 
ATOM      2  C   UNL A   1     -27.064  -0.119  28.608  0.00  0.00    +0.007 A 
ATOM      3  C   UNL A   1     -26.972   0.714  27.506  0.00  0.00    +0.000 A 
ATOM      4  C   UNL A   1     -28.105   0.774  26.642  0.00  0.00    +0.005 A 
ATOM      5  C   UNL A   1     -29.204   0.118  27.048  0.00  0.00    +0.056 A 
ATOM      6  C   UNL A   1     -29.213  -0.609  28.128  0.00  0.00    +0.011 A 
ENDROOT
BRANCH   3   7
ATOM      7  C   UNL A   1     -25.668   1.401  27.125  0.00  0.00    +0.000 A 
ATOM      8  C   UNL A   1     -24.943   2.010  28.232  0.00  0.00    +0.000 A 
ATOM      9  C   UNL A   1     -23.552   2.247  27.944  0.00  0.00    +0.000 A 
ATOM     10  C   UNL A   1     -23.041   2.207  26.665  0.00  0.00    +0.000 A 
ATOM     11  C   UNL A   1     -25.000   1.210  25.906  0.00  0.00    +0.000 A 
ATOM     12  C   UNL A   1     -23.751   1.563  25.702  0.00  0.00    +0.000 A 
ENDBRANCH   3   7
BRANCH   1  13
ATOM     13  C   UNL A   1     -28.098  -1.629  30.126  0.00  0.00    +0.388 C 
ATOM     14  O   UNL A   1     -28.789  -1.672  30.922  0.00  0.00    -0.241 OA
ATOM     15  O   UNL A   1     -27.015  -2.499  30.091  0.00  0.00    -0.241 OA
ENDBRANCH   1  13
BRANCH   5  16
ATOM     16  C   UNL A   1     -30.371   0.233  26.138  0.00  0.00    +0.269 C 
ATOM     17  O   UNL A   1     -30.126   0.562  24.895  0.00  0.00    -0.268 OA
BRANCH  16  18
ATOM     18  N   UNL A   1     -31.357  -0.378  26.373  0.00  0.00    -0.178 NA
ATOM     19  C   UNL A   1     -32.265  -0.656  25.975  0.00  0.00    +0.067 C 
BRANCH  19  20
ATOM     20  C   UNL A   1     -33.330  -1.473  26.484  0.00  0.00    +0.070 C 
BRANCH  20  21
ATOM     21  C   UNL A   1     -33.095  -2.058  27.651  0.00  0.00    -0.016 A 
ATOM     22  C   UNL A   1     -34.019  -2.901  28.242  0.00  0.00    -0.004 A 
ATOM     23  C   UNL A   1     -33.754  -3.492  29.537  0.00  0.00    -0.000 A 
ATOM     24  C   UNL A   1     -32.515  -3.216  30.179  0.00  0.00    -0.000 A 
ATOM     25  C   UNL A   1     -31.614  -2.401  29.535  0.00  0.00    -0.000 A 
ATOM     26  C   UNL A   1     -31.855  -1.861  28.312  0.00  0.00    -0.004 A 
ENDBRANCH  20  21
ENDBRANCH  19  20
ENDBRANCH  16  18
ENDBRANCH   5  16
TORSDOF 6
