REMARK  Name = No_4553-gen_results/8p0m/2024-11-26-14-13-15/
REMARK  7 active torsions:
REMARK  status: ('A' for Active; 'I' for Inactive)
REMARK    1  A    between atoms: C_2  and  C_7
REMARK    2  A    between atoms: C_8  and  C_10
REMARK    3  A    between atoms: C_14  and  C_19
REMARK    4  A    between atoms: C_16  and  C_22
REMARK    5  A    between atoms: C_22  and  C_23
REMARK    6  A    between atoms: C_22  and  C_29
REMARK    7  A    between atoms: C_29  and  N_31
REMARK                            x       y       z     vdW  Elec       q    Type
REMARK                         _______ _______ _______ _____ _____    ______ ____
ROOT
ATOM      1  C   UNL A   1     -26.032   2.594  29.191  0.00  0.00    +0.006 A 
ATOM      2  C   UNL A   1     -24.629   2.446  29.309  0.00  0.00    +0.080 A 
ATOM      3  C   UNL A   1     -26.776   2.850  30.405  0.00  0.00    -0.004 A 
ATOM      4  C   UNL A   1     -26.239   2.633  31.662  0.00  0.00    -0.014 A 
ATOM      5  C   UNL A   1     -23.976   2.494  30.635  0.00  0.00    +0.006 A 
ATOM      6  C   UNL A   1     -24.794   2.614  31.799  0.00  0.00    -0.004 A 
ENDROOT
BRANCH   1   8
ATOM      7  C   UNL A   1     -27.106   1.102  27.759  0.00  0.00    +0.000 A 
ATOM      8  C   UNL A   1     -26.716   2.235  27.994  0.00  0.00    +0.000 A 
ATOM      9  C   UNL A   1     -27.681   0.855  26.426  0.00  0.00    +0.000 A 
ATOM     10  C   UNL A   1     -26.861   3.380  27.076  0.00  0.00    +0.000 A 
ATOM     11  C   UNL A   1     -27.457   3.269  25.892  0.00  0.00    +0.000 A 
ATOM     12  C   UNL A   1     -27.876   1.903  25.514  0.00  0.00    +0.000 A 
BRANCH   7  14
ATOM     13  C   UNL A   1     -28.016  -0.814  28.878  0.00  0.00    +0.000 A 
ATOM     14  C   UNL A   1     -27.064  -0.119  28.608  0.00  0.00    +0.000 A 
ATOM     15  C   UNL A   1     -25.792  -0.430  29.076  0.00  0.00    +0.000 A 
ATOM     16  C   UNL A   1     -25.576  -1.565  29.936  0.00  0.00    +0.000 A 
ATOM     17  C   UNL A   1     -26.735  -2.300  30.217  0.00  0.00    +0.000 A 
ATOM     18  C   UNL A   1     -27.918  -1.954  29.763  0.00  0.00    +0.000 A 
ENDBRANCH   7  14
ENDBRANCH   1   8
BRANCH   2  19
ATOM     19  C   UNL A   1     -23.749   2.366  28.172  0.00  0.00    +0.388 C 
ATOM     20  O   UNL A   1     -22.665   1.751  28.235  0.00  0.00    -0.241 OA
ATOM     21  O   UNL A   1     -24.036   3.073  27.139  0.00  0.00    -0.241 OA
ENDBRANCH   2  19
BRANCH   4  22
ATOM     22  C   UNL A   1     -27.027   2.855  32.867  0.00  0.00    +0.098 C 
BRANCH  22  23
ATOM     23  C   UNL A   1     -27.237   1.670  33.541  0.00  0.00    -0.018 A 
ATOM     24  C   UNL A   1     -26.967   0.510  33.058  0.00  0.00    -0.004 A 
ATOM     25  C   UNL A   1     -27.257  -0.716  33.791  0.00  0.00    -0.000 A 
ATOM     26  C   UNL A   1     -27.758  -0.649  35.075  0.00  0.00    -0.000 A 
ATOM     27  C   UNL A   1     -27.946   0.606  35.662  0.00  0.00    -0.005 A 
ATOM     28  C   UNL A   1     -27.706   1.794  34.988  0.00  0.00    -0.025 A 
ATOM     29  C   UNL A   1     -26.263   2.253  35.710  0.00  0.00    +0.031 C 
ENDBRANCH  22  23
BRANCH  22  30
ATOM     30  C   UNL A   1     -27.488   4.112  33.263  0.00  0.00    +0.264 C 
ATOM     31  O   UNL A   1     -27.409   5.072  32.526  0.00  0.00    -0.195 OA
BRANCH  30  32
ATOM     32  N   UNL A   1     -28.323   4.157  34.340  0.00  0.00    -0.209 NA
ATOM     33  C   UNL A   1     -28.560   3.496  35.167  0.00  0.00    +0.266 C 
ATOM     34  F   UNL A   1     -29.269   3.340  36.141  0.00  0.00    -0.179 F 
ENDBRANCH  30  32
ENDBRANCH  22  30
ENDBRANCH   4  22
TORSDOF 7
