MODEL 4554
MODEL 1
REMARK VINA RESULT:    -6.691      0.000      0.000
REMARK INTER + INTRA:          -9.265
REMARK INTER:                  -8.256
REMARK INTRA:                  -1.010
REMARK UNBOUND:                -1.010
REMARK  Name = No_4554-gen_results/8p0m/2024-11-26-14-13-15/
REMARK  4 active torsions:
REMARK  status: ('A' for Active; 'I' for Inactive)
REMARK    1  A    between atoms: C_1  and  C_2
REMARK    2  A    between atoms: C_5  and  C_14
REMARK    3  A    between atoms: C_11  and  O_17
REMARK    4  A    between atoms: O_17  and  C_18
REMARK                            x       y       z     vdW  Elec       q    Type
REMARK                         _______ _______ _______ _____ _____    ______ ____
ROOT
ATOM      1  C   UNL A   1     -10.581  -1.200  37.980  0.00  0.00    +0.030 A 
ATOM      2  C   UNL A   1     -11.875  -1.899  37.925  0.00  0.00    +0.002 A 
ATOM      3  C   UNL A   1     -12.321  -2.537  39.038  0.00  0.00    +0.003 A 
ATOM      4  C   UNL A   1     -11.539  -2.483  40.228  0.00  0.00    +0.039 A 
ATOM      5  C   UNL A   1     -10.472  -1.663  40.365  0.00  0.00    +0.166 A 
ATOM      6  C   UNL A   1     -10.111  -0.889  39.316  0.00  0.00    +0.174 A 
ATOM      7  F   UNL A   1      -9.176   0.003  39.487  0.00  0.00    -0.201 F 
ENDROOT
BRANCH   1   8
ATOM      8  C   UNL A   1     -10.413  -0.387  37.101  0.00  0.00    +0.002 A 
ATOM      9  C   UNL A   1      -9.294  -0.356  36.292  0.00  0.00    +0.000 A 
ATOM     10  C   UNL A   1      -9.010   0.642  35.277  0.00  0.00    +0.007 A 
ATOM     11  C   UNL A   1      -9.945   1.679  35.064  0.00  0.00    +0.080 A 
ATOM     12  C   UNL A   1     -11.110   1.666  35.911  0.00  0.00    +0.007 A 
ATOM     13  C   UNL A   1     -11.340   0.731  36.892  0.00  0.00    +0.000 A 
BRANCH  11  14
ATOM     14  C   UNL A   1      -9.767   2.711  34.068  0.00  0.00    +0.388 C 
ATOM     15  O   UNL A   1      -9.138   2.506  32.993  0.00  0.00    -0.241 OA
ATOM     16  O   UNL A   1     -10.522   3.795  34.164  0.00  0.00    -0.241 OA
ENDBRANCH  11  14
ENDBRANCH   1   8
BRANCH   5  17
ATOM     17  O   UNL A   1      -9.883  -1.439  41.572  0.00  0.00    -0.473 OA
BRANCH  17  18
ATOM     18  C   UNL A   1      -8.979  -2.417  41.946  0.00  0.00    +0.214 C 
ATOM     19  C   UNL A   1      -7.674  -1.742  42.073  0.00  0.00    +0.249 C 
ATOM     20  O   UNL A   1      -6.691  -2.589  42.085  0.00  0.00    -0.469 OA
ATOM     21  C   UNL A   1      -6.580  -3.581  42.812  0.00  0.00    +0.168 C 
ATOM     22  C   UNL A   1      -7.810  -4.331  42.900  0.00  0.00    +0.018 C 
ATOM     23  C   UNL A   1      -9.051  -3.506  42.666  0.00  0.00    +0.077 C 
ENDBRANCH  17  18
ENDBRANCH   5  17
TORSDOF 4
ENDMDL
ENDMDL
