REMARK  Name = No_4554-gen_results/8p0m/2024-11-26-14-13-15/
REMARK  4 active torsions:
REMARK  status: ('A' for Active; 'I' for Inactive)
REMARK    1  A    between atoms: C_1  and  C_2
REMARK    2  A    between atoms: C_5  and  C_14
REMARK    3  A    between atoms: C_11  and  O_17
REMARK    4  A    between atoms: O_17  and  C_18
REMARK                            x       y       z     vdW  Elec       q    Type
REMARK                         _______ _______ _______ _____ _____    ______ ____
ROOT
ATOM      1  C   UNL A   1     -28.016  -0.814  28.878  0.00  0.00    +0.030 A 
ATOM      2  C   UNL A   1     -29.245  -0.068  29.194  0.00  0.00    +0.002 A 
ATOM      3  C   UNL A   1     -30.243  -0.704  29.860  0.00  0.00    +0.003 A 
ATOM      4  C   UNL A   1     -30.057  -2.060  30.257  0.00  0.00    +0.039 A 
ATOM      5  C   UNL A   1     -28.860  -2.686  30.180  0.00  0.00    +0.166 A 
ATOM      6  C   UNL A   1     -27.805  -2.008  29.672  0.00  0.00    +0.174 A 
ATOM      7  F   UNL A   1     -26.623  -2.554  29.727  0.00  0.00    -0.201 F 
ENDROOT
BRANCH   1   8
ATOM      8  C   UNL A   1     -27.064  -0.119  28.608  0.00  0.00    +0.002 A 
ATOM      9  C   UNL A   1     -27.001   0.691  27.491  0.00  0.00    +0.000 A 
ATOM     10  C   UNL A   1     -25.855   1.482  27.083  0.00  0.00    +0.007 A 
ATOM     11  C   UNL A   1     -24.690   1.453  27.881  0.00  0.00    +0.080 A 
ATOM     12  C   UNL A   1     -24.738   0.601  29.042  0.00  0.00    +0.007 A 
ATOM     13  C   UNL A   1     -25.823  -0.169  29.389  0.00  0.00    +0.000 A 
BRANCH  11  14
ATOM     14  C   UNL A   1     -23.502   2.216  27.574  0.00  0.00    +0.388 C 
ATOM     15  O   UNL A   1     -22.390   1.978  28.123  0.00  0.00    -0.241 OA
ATOM     16  O   UNL A   1     -23.524   2.982  26.494  0.00  0.00    -0.241 OA
ENDBRANCH  11  14
ENDBRANCH   1   8
BRANCH   5  17
ATOM     17  O   UNL A   1     -28.633  -3.888  30.780  0.00  0.00    -0.473 OA
BRANCH  17  18
ATOM     18  C   UNL A   1     -29.485  -4.894  30.361  0.00  0.00    +0.214 C 
ATOM     19  C   UNL A   1     -29.907  -5.608  31.580  0.00  0.00    +0.249 C 
ATOM     20  O   UNL A   1     -30.427  -6.765  31.306  0.00  0.00    -0.469 OA
ATOM     21  C   UNL A   1     -31.336  -6.995  30.503  0.00  0.00    +0.168 C 
ATOM     22  C   UNL A   1     -31.152  -6.288  29.258  0.00  0.00    +0.018 C 
ATOM     23  C   UNL A   1     -30.345  -5.020  29.384  0.00  0.00    +0.077 C 
ENDBRANCH  17  18
ENDBRANCH   5  17
TORSDOF 4
