MODEL 4555
MODEL 1
REMARK VINA RESULT:    -6.619      0.000      0.000
REMARK INTER + INTRA:          -7.361
REMARK INTER:                  -7.006
REMARK INTRA:                  -0.355
REMARK UNBOUND:                -0.355
REMARK  Name = No_4555-gen_results/8p0m/2024-11-26-14-13-15/
REMARK  1 active torsions:
REMARK  status: ('A' for Active; 'I' for Inactive)
REMARK    1  A    between atoms: C_2  and  C_7
REMARK                            x       y       z     vdW  Elec       q    Type
REMARK                         _______ _______ _______ _____ _____    ______ ____
ROOT
ATOM      1  C   UNL A   1     -25.620  -2.528  29.551  0.00  0.00    +0.000 A 
ATOM      2  C   UNL A   1     -24.510  -2.657  29.089  0.00  0.00    +0.000 A 
ATOM      3  C   UNL A   1     -24.014  -3.911  28.752  0.00  0.00    +0.000 A 
ATOM      4  C   UNL A   1     -24.790  -5.102  28.985  0.00  0.00    +0.000 A 
ATOM      5  C   UNL A   1     -26.052  -4.864  29.544  0.00  0.00    +0.000 A 
ATOM      6  C   UNL A   1     -26.468  -3.659  29.860  0.00  0.00    +0.000 A 
ENDROOT
BRANCH   2   7
ATOM      7  C   UNL A   1     -23.563  -1.545  28.807  0.00  0.00    +0.000 A 
ATOM      8  C   UNL A   1     -22.633  -1.330  29.172  0.00  0.00    +0.000 A 
ATOM      9  C   UNL A   1     -21.735  -0.139  28.936  0.00  0.00    +0.000 A 
ATOM     10  C   UNL A   1     -22.236   0.880  28.150  0.00  0.00    +0.000 A 
ATOM     11  C   UNL A   1     -23.533   0.763  27.644  0.00  0.00    +0.000 A 
ATOM     12  C   UNL A   1     -24.242  -0.374  27.896  0.00  0.00    +0.000 A 
ENDBRANCH   2   7
TORSDOF 1
ENDMDL
ENDMDL
