REMARK  Name = No_4556-gen_results/8p0m/2024-11-26-14-13-15/
REMARK  1 active torsions:
REMARK  status: ('A' for Active; 'I' for Inactive)
REMARK    1  A    between atoms: C_2  and  C_3
REMARK                            x       y       z     vdW  Elec       q    Type
REMARK                         _______ _______ _______ _____ _____    ______ ____
ROOT
ATOM      1  C   UNL A   1     -28.184   0.565  29.042  0.00  0.00    +0.044 A 
ATOM      2  C   UNL A   1     -27.713   1.125  27.678  0.00  0.00    +0.001 A 
ATOM      3  C   UNL A   1     -27.561   2.342  27.256  0.00  0.00    -0.000 A 
ATOM      4  C   UNL A   1     -27.823   3.420  28.264  0.00  0.00    -0.000 A 
ATOM      5  C   UNL A   1     -28.226   3.040  29.519  0.00  0.00    -0.000 A 
ATOM      6  C   UNL A   1     -28.344   1.756  29.865  0.00  0.00    +0.001 A 
ENDROOT
BRANCH   1   8
ATOM      7  F   UNL A   1     -28.073  -1.254  28.532  0.00  0.00    -0.193 F 
ATOM      8  C   UNL A   1     -28.266  -0.421  29.193  0.00  0.00    +0.341 C 
ATOM      9  F   UNL A   1     -29.519  -0.633  29.912  0.00  0.00    -0.193 F 
ENDBRANCH   1   8
TORSDOF 1
