MODEL 4556
MODEL 1
REMARK VINA RESULT:    -5.269      0.000      0.000
REMARK INTER + INTRA:          -5.735
REMARK INTER:                  -5.577
REMARK INTRA:                  -0.158
REMARK UNBOUND:                -0.158
REMARK  Name = No_4556-gen_results/8p0m/2024-11-26-14-13-15/
REMARK  1 active torsions:
REMARK  status: ('A' for Active; 'I' for Inactive)
REMARK    1  A    between atoms: C_2  and  C_3
REMARK                            x       y       z     vdW  Elec       q    Type
REMARK                         _______ _______ _______ _____ _____    ______ ____
ROOT
ATOM      1  C   UNL A   1      -8.112  -9.584  19.894  0.00  0.00    +0.044 A 
ATOM      2  C   UNL A   1      -8.058 -10.487  18.638  0.00  0.00    +0.001 A 
ATOM      3  C   UNL A   1      -8.979 -10.848  17.800  0.00  0.00    -0.000 A 
ATOM      4  C   UNL A   1     -10.336 -10.253  18.025  0.00  0.00    -0.000 A 
ATOM      5  C   UNL A   1     -10.499  -9.416  19.099  0.00  0.00    -0.000 A 
ATOM      6  C   UNL A   1      -9.484  -9.093  19.904  0.00  0.00    +0.001 A 
ENDROOT
BRANCH   1   8
ATOM      7  F   UNL A   1      -6.308  -9.087  20.172  0.00  0.00    -0.193 F 
ATOM      8  C   UNL A   1      -7.295  -9.426  20.450  0.00  0.00    +0.341 C 
ATOM      9  F   UNL A   1      -7.196 -10.548  21.379  0.00  0.00    -0.193 F 
ENDBRANCH   1   8
TORSDOF 1
ENDMDL
ENDMDL
