MODEL 4557
MODEL 1
REMARK VINA RESULT:    -6.045      0.000      0.000
REMARK INTER + INTRA:          -7.984
REMARK INTER:                  -7.459
REMARK INTRA:                  -0.525
REMARK UNBOUND:                -0.525
REMARK  Name = No_4557-gen_results/8p0m/2024-11-26-14-13-15/
REMARK  4 active torsions:
REMARK  status: ('A' for Active; 'I' for Inactive)
REMARK    1  A    between atoms: C_2  and  C_3
REMARK    2  A    between atoms: C_3  and  C_5
REMARK    3  A    between atoms: C_6  and  C_7
REMARK    4  A    between atoms: C_6  and  C_9
REMARK                            x       y       z     vdW  Elec       q    Type
REMARK                         _______ _______ _______ _____ _____    ______ ____
ROOT
ATOM      1  C   UNL A   1     -23.937  -2.229  29.897  0.00  0.00    -0.017 C 
ATOM      2  C   UNL A   1     -23.481  -1.380  30.216  0.00  0.00    +0.007 C 
ENDROOT
BRANCH   2   3
ATOM      3  C   UNL A   1     -22.692  -0.526  29.167  0.00  0.00    -0.002 A 
ATOM      4  C   UNL A   1     -21.658  -0.510  29.032  0.00  0.00    -0.000 A 
ATOM      5  C   UNL A   1     -20.899   0.092  28.486  0.00  0.00    -0.000 A 
ATOM      6  C   UNL A   1     -21.572   1.168  27.715  0.00  0.00    -0.000 A 
ATOM      7  C   UNL A   1     -22.866   1.375  27.778  0.00  0.00    -0.000 A 
ATOM      8  C   UNL A   1     -23.560   0.585  28.526  0.00  0.00    -0.000 A 
ENDBRANCH   2   3
BRANCH   2   9
ATOM      9  C   UNL A   1     -23.299  -0.748  31.568  0.00  0.00    +0.208 C 
ATOM     10  O   UNL A   1     -22.405  -1.136  32.370  0.00  0.00    -0.215 OA
ENDBRANCH   2   9
BRANCH   1  11
ATOM     11  C   UNL A   1     -24.065  -3.065  28.731  0.00  0.00    +0.127 C 
BRANCH  11  13
ATOM     12  O   UNL A   1     -23.756  -5.205  28.152  0.00  0.00    -0.259 OA
ATOM     13  C   UNL A   1     -24.300  -4.322  28.825  0.00  0.00    +0.315 C 
ATOM     14  F   UNL A   1     -25.331  -4.751  29.662  0.00  0.00    -0.163 F 
ENDBRANCH  11  13
ENDBRANCH   1  11
TORSDOF 4
ENDMDL
ENDMDL
