REMARK  Name = No_4557-gen_results/8p0m/2024-11-26-14-13-15/
REMARK  4 active torsions:
REMARK  status: ('A' for Active; 'I' for Inactive)
REMARK    1  A    between atoms: C_2  and  C_3
REMARK    2  A    between atoms: C_3  and  C_5
REMARK    3  A    between atoms: C_6  and  C_7
REMARK    4  A    between atoms: C_6  and  C_9
REMARK                            x       y       z     vdW  Elec       q    Type
REMARK                         _______ _______ _______ _____ _____    ______ ____
ROOT
ATOM      1  C   UNL A   1     -25.695   0.713  30.061  0.00  0.00    -0.017 C 
ATOM      2  C   UNL A   1     -25.007   1.345  29.663  0.00  0.00    +0.007 C 
ENDROOT
BRANCH   2   3
ATOM      3  C   UNL A   1     -25.344   2.040  28.300  0.00  0.00    -0.002 A 
ATOM      4  C   UNL A   1     -26.004   1.691  27.572  0.00  0.00    -0.000 A 
ATOM      5  C   UNL A   1     -26.278   1.919  26.519  0.00  0.00    -0.000 A 
ATOM      6  C   UNL A   1     -25.478   3.070  26.030  0.00  0.00    -0.000 A 
ATOM      7  C   UNL A   1     -24.542   3.636  26.756  0.00  0.00    -0.000 A 
ATOM      8  C   UNL A   1     -24.348   3.172  27.944  0.00  0.00    -0.000 A 
ENDBRANCH   2   3
BRANCH   2   9
ATOM      9  C   UNL A   1     -23.609   1.735  30.054  0.00  0.00    +0.208 C 
ATOM     10  O   UNL A   1     -22.881   2.445  29.305  0.00  0.00    -0.215 OA
ENDBRANCH   2   9
BRANCH   1  11
ATOM     11  C   UNL A   1     -26.959   0.093  29.758  0.00  0.00    +0.127 C 
BRANCH  11  13
ATOM     12  O   UNL A   1     -28.123  -1.335  28.487  0.00  0.00    -0.259 OA
ATOM     13  C   UNL A   1     -27.064  -0.824  28.869  0.00  0.00    +0.315 C 
ATOM     14  F   UNL A   1     -25.900  -1.397  28.355  0.00  0.00    -0.163 F 
ENDBRANCH  11  13
ENDBRANCH   1  11
TORSDOF 4
