REMARK  Name = No_4558-gen_results/8p0m/2024-11-26-14-13-15/
REMARK  1 active torsions:
REMARK  status: ('A' for Active; 'I' for Inactive)
REMARK    1  A    between atoms: C_2  and  C_17
REMARK                            x       y       z     vdW  Elec       q    Type
REMARK                         _______ _______ _______ _____ _____    ______ ____
ROOT
ATOM      1  C   UNL A   1     -28.016  -0.814  28.878  0.00  0.00    +0.046 A 
ATOM      2  C   UNL A   1     -28.469  -0.785  29.829  0.00  0.00    -0.007 A 
ATOM      3  C   UNL A   1     -28.196   0.348  28.055  0.00  0.00    -0.009 A 
ATOM      4  C   UNL A   1     -29.019   1.350  28.378  0.00  0.00    -0.003 A 
ATOM      5  C   UNL A   1     -29.411   0.180  30.378  0.00  0.00    -0.003 A 
ATOM      6  C   UNL A   1     -29.606   1.250  29.619  0.00  0.00    -0.001 A 
ATOM      7  C   UNL A   1     -27.460   0.380  26.709  0.00  0.00    +0.032 C 
ATOM      8  C   UNL A   1     -26.009   0.332  26.724  0.00  0.00    +0.032 C 
ATOM      9  C   UNL A   1     -25.305   0.024  27.853  0.00  0.00    -0.007 A 
ATOM     10  C   UNL A   1     -23.915   0.156  27.895  0.00  0.00    -0.003 A 
ATOM     11  C   UNL A   1     -23.148  -0.252  29.052  0.00  0.00    +0.001 A 
ATOM     12  C   UNL A   1     -23.781  -0.994  30.018  0.00  0.00    +0.017 A 
ATOM     13  C   UNL A   1     -25.102  -1.268  29.948  0.00  0.00    +0.079 A 
ATOM     14  C   UNL A   1     -25.842  -0.800  28.916  0.00  0.00    +0.064 A 
ATOM     15  N   UNL A   1     -27.050  -1.143  29.245  0.00  0.00    -0.261 N 
ATOM     16  C   UNL A   1     -27.061  -2.534  29.741  0.00  0.00    +0.254 C 
ATOM     17  C   UNL A   1     -26.017  -2.980  30.621  0.00  0.00    +0.167 C 
ATOM     18  O   UNL A   1     -27.526  -3.498  28.957  0.00  0.00    -0.198 OA
ATOM     19  N   UNL A   1     -25.269  -2.508  30.593  0.00  0.00    -0.232 NA
ENDROOT
BRANCH   2  20
ATOM     20  C   UNL A   1     -28.548  -2.062  30.719  0.00  0.00    +0.056 C 
ATOM     21  C   UNL A   1     -29.524  -3.082  30.520  0.00  0.00    +0.039 C 
ATOM     22  C   UNL A   1     -28.206  -1.882  32.193  0.00  0.00    +0.146 C 
ATOM     23  O   UNL A   1     -29.164  -1.626  31.631  0.00  0.00    -0.353 OA
ATOM     24  C   UNL A   1     -30.324  -2.451  31.985  0.00  0.00    +0.143 C 
ENDBRANCH   2  20
TORSDOF 1
