MODEL 4558
MODEL 1
REMARK VINA RESULT:    -7.541      0.000      0.000
REMARK INTER + INTRA:          -3.450
REMARK INTER:                  -7.982
REMARK INTRA:                   4.532
REMARK UNBOUND:                 4.532
REMARK  Name = No_4558-gen_results/8p0m/2024-11-26-14-13-15/
REMARK  1 active torsions:
REMARK  status: ('A' for Active; 'I' for Inactive)
REMARK    1  A    between atoms: C_2  and  C_17
REMARK                            x       y       z     vdW  Elec       q    Type
REMARK                         _______ _______ _______ _____ _____    ______ ____
ROOT
ATOM      1  C   UNL A   1     -23.162   0.815  28.705  0.00  0.00    +0.046 A 
ATOM      2  C   UNL A   1     -23.091  -0.001  29.369  0.00  0.00    -0.007 A 
ATOM      3  C   UNL A   1     -21.998   1.089  27.911  0.00  0.00    -0.009 A 
ATOM      4  C   UNL A   1     -20.827   0.472  28.096  0.00  0.00    -0.003 A 
ATOM      5  C   UNL A   1     -21.927  -0.791  29.744  0.00  0.00    -0.003 A 
ATOM      6  C   UNL A   1     -20.837  -0.535  29.034  0.00  0.00    -0.001 A 
ATOM      7  C   UNL A   1     -22.107   2.202  26.860  0.00  0.00    +0.032 C 
ATOM      8  C   UNL A   1     -23.080   2.041  25.795  0.00  0.00    +0.032 C 
ATOM      9  C   UNL A   1     -24.042   1.073  25.831  0.00  0.00    -0.007 A 
ATOM     10  C   UNL A   1     -24.853   0.819  24.722  0.00  0.00    -0.003 A 
ATOM     11  C   UNL A   1     -25.935  -0.140  24.776  0.00  0.00    +0.001 A 
ATOM     12  C   UNL A   1     -26.308  -0.625  26.005  0.00  0.00    +0.017 A 
ATOM     13  C   UNL A   1     -25.638  -0.294  27.130  0.00  0.00    +0.079 A 
ATOM     14  C   UNL A   1     -24.561   0.524  27.067  0.00  0.00    +0.064 A 
ATOM     15  N   UNL A   1     -24.114   0.511  28.286  0.00  0.00    -0.261 N 
ATOM     16  C   UNL A   1     -25.237   0.650  29.235  0.00  0.00    +0.254 C 
ATOM     17  C   UNL A   1     -26.455  -0.075  29.002  0.00  0.00    +0.167 C 
ATOM     18  O   UNL A   1     -25.434   1.815  29.840  0.00  0.00    -0.198 OA
ATOM     19  N   UNL A   1     -26.589  -0.334  28.167  0.00  0.00    -0.232 NA
ENDROOT
BRANCH   2  20
ATOM     20  C   UNL A   1     -24.187  -0.256  30.446  0.00  0.00    +0.056 C 
ATOM     21  C   UNL A   1     -24.269   0.492  31.657  0.00  0.00    +0.039 C 
ATOM     22  C   UNL A   1     -24.619  -1.705  30.642  0.00  0.00    +0.146 C 
ATOM     23  O   UNL A   1     -23.689  -1.164  31.020  0.00  0.00    -0.353 OA
ATOM     24  C   UNL A   1     -23.640  -0.966  32.472  0.00  0.00    +0.143 C 
ENDBRANCH   2  20
TORSDOF 1
ENDMDL
ENDMDL
