MODEL 4559
MODEL 1
REMARK VINA RESULT:    -4.409      0.000      0.000
REMARK INTER + INTRA:          -4.409
REMARK INTER:                  -4.409
REMARK INTRA:                   0.000
REMARK UNBOUND:                 0.000
REMARK  Name = No_4559-gen_results/8p0m/2024-11-26-14-13-15/
REMARK  0 active torsions:
REMARK  status: ('A' for Active; 'I' for Inactive)
REMARK                            x       y       z     vdW  Elec       q    Type
REMARK                         _______ _______ _______ _____ _____    ______ ____
ROOT
ATOM      1  C   UNL A   1     -24.978  -5.160  29.015  0.00  0.00    +0.001 A 
ATOM      2  C   UNL A   1     -24.111  -4.338  28.821  0.00  0.00    +0.011 A 
ATOM      3  C   UNL A   1     -24.230  -2.995  29.173  0.00  0.00    +0.058 A 
ATOM      4  C   UNL A   1     -25.473  -2.523  29.752  0.00  0.00    +0.011 A 
ATOM      5  C   UNL A   1     -26.440  -3.535  29.941  0.00  0.00    +0.001 A 
ATOM      6  C   UNL A   1     -26.240  -4.775  29.571  0.00  0.00    +0.000 A 
ATOM      7 CL   UNL A   1     -23.033  -1.792  28.923  0.00  0.00    -0.082 Cl
ENDROOT
TORSDOF 0
ENDMDL
ENDMDL
