MODEL 455
MODEL 1
REMARK VINA RESULT:    -7.228      0.000      0.000
REMARK INTER + INTRA:          -8.234
REMARK INTER:                  -8.073
REMARK INTRA:                  -0.161
REMARK UNBOUND:                -0.161
REMARK  Name = No_455-gen_results/8p0m/2024-11-26-14-13-15/
REMARK  2 active torsions:
REMARK  status: ('A' for Active; 'I' for Inactive)
REMARK    1  A    between atoms: C_5  and  C_8
REMARK    2  A    between atoms: N_9  and  C_11
REMARK                            x       y       z     vdW  Elec       q    Type
REMARK                         _______ _______ _______ _____ _____    ______ ____
ROOT
ATOM      1  C   UNL A   1     -26.395   0.916  24.932  0.00  0.00    +0.269 C 
ATOM      2  N   UNL A   1     -26.120   1.874  25.704  0.00  0.00    -0.175 NA
ATOM      3  O   UNL A   1     -25.576  -0.021  24.798  0.00  0.00    -0.268 OA
ENDROOT
BRANCH   2   4
ATOM      4  C   UNL A   1     -24.738   2.003  26.365  0.00  0.00    +0.074 A 
ATOM      5  C   UNL A   1     -24.716   1.228  27.614  0.00  0.00    +0.017 A 
ATOM      6  C   UNL A   1     -23.601   0.680  27.973  0.00  0.00    +0.001 A 
ATOM      7  C   UNL A   1     -22.307   1.215  27.492  0.00  0.00    +0.000 A 
ATOM      8  C   UNL A   1     -22.448   2.086  26.379  0.00  0.00    +0.001 A 
ATOM      9  C   UNL A   1     -23.665   2.338  25.790  0.00  0.00    +0.017 A 
ATOM     10  C   UNL A   1     -21.198   0.665  28.206  0.00  0.00    +0.000 A 
ATOM     11  C   UNL A   1     -21.162  -0.386  28.713  0.00  0.00    +0.000 A 
ATOM     12  C   UNL A   1     -22.455  -0.975  29.262  0.00  0.00    +0.000 A 
ATOM     13  C   UNL A   1     -23.588  -0.393  28.905  0.00  0.00    +0.000 A 
ENDBRANCH   2   4
BRANCH   1  18
ATOM     14 CL   UNL A   1     -31.571   0.811  22.614  0.00  0.00    -0.082 Cl
ATOM     15  C   UNL A   1     -30.367   0.851  23.249  0.00  0.00    +0.058 A 
ATOM     16  C   UNL A   1     -29.723   1.961  23.412  0.00  0.00    +0.011 A 
ATOM     17  C   UNL A   1     -28.379   2.081  23.979  0.00  0.00    +0.005 A 
ATOM     18  C   UNL A   1     -27.739   0.877  24.365  0.00  0.00    +0.055 A 
ATOM     19  C   UNL A   1     -28.409  -0.314  24.120  0.00  0.00    +0.005 A 
ATOM     20  C   UNL A   1     -29.641  -0.363  23.545  0.00  0.00    +0.011 A 
ENDBRANCH   1  18
TORSDOF 2
ENDMDL
ENDMDL
