REMARK  Name = No_456-gen_results/8p0m/2024-11-26-14-13-15/
REMARK  5 active torsions:
REMARK  status: ('A' for Active; 'I' for Inactive)
REMARK    1  A    between atoms: C_2  and  C_7
REMARK    2  A    between atoms: C_7  and  O_9
REMARK    3  A    between atoms: O_9  and  C_11
REMARK    4  A    between atoms: C_12  and  C_13
REMARK    5  A    between atoms: C_17  and  C_19
REMARK                            x       y       z     vdW  Elec       q    Type
REMARK                         _______ _______ _______ _____ _____    ______ ____
ROOT
ATOM      1  C   UNL A   1     -31.633   0.634  29.123  0.00  0.00    +0.183 C 
ATOM      2  C   UNL A   1     -31.795   1.930  28.626  0.00  0.00    +0.041 C 
ENDROOT
BRANCH   2   3
ATOM      3  C   UNL A   1     -30.905   2.876  28.960  0.00  0.00    +0.003 A 
ATOM      4  C   UNL A   1     -31.090   4.254  28.621  0.00  0.00    +0.000 A 
ATOM      5  C   UNL A   1     -30.129   5.271  29.041  0.00  0.00    +0.000 A 
ATOM      6  C   UNL A   1     -28.979   4.852  29.734  0.00  0.00    +0.000 A 
ATOM      7  C   UNL A   1     -28.782   3.493  30.056  0.00  0.00    +0.000 A 
ATOM      8  C   UNL A   1     -29.697   2.605  29.681  0.00  0.00    +0.000 A 
BRANCH   7   9
ATOM      9  C   UNL A   1     -27.536   3.149  30.805  0.00  0.00    +0.000 A 
ATOM     10  C   UNL A   1     -27.059   3.974  31.821  0.00  0.00    +0.000 A 
ATOM     11  C   UNL A   1     -25.966   3.500  32.575  0.00  0.00    +0.000 A 
ATOM     12  C   UNL A   1     -25.264   2.347  32.191  0.00  0.00    +0.000 A 
ATOM     13  C   UNL A   1     -25.609   1.689  31.079  0.00  0.00    +0.000 A 
ATOM     14  C   UNL A   1     -26.795   2.070  30.395  0.00  0.00    +0.000 A 
ENDBRANCH   7   9
ENDBRANCH   2   3
BRANCH   1  15
ATOM     15  O   UNL A   1     -30.623   0.384  29.633  0.00  0.00    -0.418 OA
BRANCH  15  16
ATOM     16  C   UNL A   1     -30.074  -0.836  29.861  0.00  0.00    +0.346 C 
ATOM     17  O   UNL A   1     -30.689  -1.655  30.223  0.00  0.00    -0.244 OA
BRANCH  16  19
ATOM     18  C   UNL A   1     -28.016  -0.814  28.878  0.00  0.00    +0.018 A 
ATOM     19  C   UNL A   1     -28.469  -0.785  29.829  0.00  0.00    +0.077 A 
ATOM     20  C   UNL A   1     -26.504  -0.778  28.877  0.00  0.00    +0.058 A 
ATOM     21  C   UNL A   1     -25.810  -0.853  30.103  0.00  0.00    +0.011 A 
ATOM     22  C   UNL A   1     -27.991  -0.892  31.226  0.00  0.00    +0.006 A 
ATOM     23  C   UNL A   1     -26.604  -0.868  31.265  0.00  0.00    +0.001 A 
ATOM     24 CL   UNL A   1     -25.690  -0.623  27.391  0.00  0.00    -0.082 Cl
ENDBRANCH  16  19
ENDBRANCH  15  16
ENDBRANCH   1  15
TORSDOF 5
