MODEL 4560
MODEL 1
REMARK VINA RESULT:    -7.140      0.000      0.000
REMARK INTER + INTRA:          -8.365
REMARK INTER:                  -7.975
REMARK INTRA:                  -0.390
REMARK UNBOUND:                -0.390
REMARK  Name = No_4560-gen_results/8p0m/2024-11-26-14-13-15/
REMARK  2 active torsions:
REMARK  status: ('A' for Active; 'I' for Inactive)
REMARK    1  A    between atoms: C_1  and  C_2
REMARK    2  A    between atoms: C_1  and  C_8
REMARK                            x       y       z     vdW  Elec       q    Type
REMARK                         _______ _______ _______ _____ _____    ______ ____
ROOT
ATOM      1  C   UNL A   1     -23.264  -0.543  29.346  0.00  0.00    +0.071 C 
ATOM      2  C   UNL A   1     -23.203  -1.869  28.930  0.00  0.00    +0.034 C 
ATOM      3  C   UNL A   1     -24.278  -2.891  29.086  0.00  0.00    -0.025 A 
ATOM      4  C   UNL A   1     -25.402  -2.499  29.872  0.00  0.00    -0.019 A 
ATOM      5  C   UNL A   1     -25.416  -1.167  30.335  0.00  0.00    +0.080 C 
ATOM      6  C   UNL A   1     -24.438  -0.276  30.115  0.00  0.00    +0.154 C 
ATOM      7  C   UNL A   1     -26.482  -3.447  30.023  0.00  0.00    -0.004 A 
ATOM      8  C   UNL A   1     -26.241  -4.839  29.703  0.00  0.00    -0.000 A 
ATOM      9  C   UNL A   1     -25.071  -5.209  28.998  0.00  0.00    -0.000 A 
ATOM     10  C   UNL A   1     -24.029  -4.233  28.717  0.00  0.00    -0.005 A 
ATOM     11  C   UNL A   1     -26.644  -0.765  31.055  0.00  0.00    +0.013 C 
ATOM     12  O   UNL A   1     -24.527   0.953  30.552  0.00  0.00    -0.296 OA
ENDROOT
BRANCH   1  13
ATOM     13  C   UNL A   1     -22.337   0.212  29.164  0.00  0.00    +0.111 C 
BRANCH  13  14
ATOM     14  C   UNL A   1     -22.447   0.994  27.857  0.00  0.00    +0.398 C 
ATOM     15  F   UNL A   1     -23.053   0.722  27.016  0.00  0.00    -0.170 F 
ATOM     16  F   UNL A   1     -21.097   1.104  27.406  0.00  0.00    -0.170 F 
ATOM     17  F   UNL A   1     -22.727   2.329  28.262  0.00  0.00    -0.170 F 
ENDBRANCH  13  14
ENDBRANCH   1  13
TORSDOF 2
ENDMDL
ENDMDL
