REMARK  Name = No_4560-gen_results/8p0m/2024-11-26-14-13-15/
REMARK  2 active torsions:
REMARK  status: ('A' for Active; 'I' for Inactive)
REMARK    1  A    between atoms: C_1  and  C_2
REMARK    2  A    between atoms: C_1  and  C_8
REMARK                            x       y       z     vdW  Elec       q    Type
REMARK                         _______ _______ _______ _____ _____    ______ ____
ROOT
ATOM      1  C   UNL A   1     -27.064  -0.119  28.608  0.00  0.00    +0.071 C 
ATOM      2  C   UNL A   1     -25.792  -0.430  29.076  0.00  0.00    +0.034 C 
ATOM      3  C   UNL A   1     -24.546   0.349  28.823  0.00  0.00    -0.025 A 
ATOM      4  C   UNL A   1     -24.659   1.420  27.888  0.00  0.00    -0.019 A 
ATOM      5  C   UNL A   1     -25.947   1.681  27.379  0.00  0.00    +0.080 C 
ATOM      6  C   UNL A   1     -27.044   0.974  27.687  0.00  0.00    +0.154 C 
ATOM      7  C   UNL A   1     -23.483   2.222  27.637  0.00  0.00    -0.004 A 
ATOM      8  C   UNL A   1     -22.188   1.709  28.035  0.00  0.00    -0.000 A 
ATOM      9  C   UNL A   1     -22.107   0.589  28.895  0.00  0.00    -0.000 A 
ATOM     10  C   UNL A   1     -23.301  -0.153  29.270  0.00  0.00    -0.005 A 
ATOM     11  C   UNL A   1     -26.046   2.864  26.495  0.00  0.00    +0.013 C 
ATOM     12  O   UNL A   1     -28.215   1.287  27.198  0.00  0.00    -0.296 OA
ENDROOT
BRANCH   1  13
ATOM     13  C   UNL A   1     -28.016  -0.814  28.878  0.00  0.00    +0.111 C 
BRANCH  13  14
ATOM     14  C   UNL A   1     -28.670  -0.446  30.208  0.00  0.00    +0.398 C 
ATOM     15  F   UNL A   1     -28.525   0.471  30.742  0.00  0.00    -0.170 F 
ATOM     16  F   UNL A   1     -28.312  -1.520  31.077  0.00  0.00    -0.170 F 
ATOM     17  F   UNL A   1     -30.057  -0.690  30.003  0.00  0.00    -0.170 F 
ENDBRANCH  13  14
ENDBRANCH   1  13
TORSDOF 2
