REMARK  Name = No_4562-gen_results/8p0m/2024-11-26-14-13-15/
REMARK  1 active torsions:
REMARK  status: ('A' for Active; 'I' for Inactive)
REMARK    1  A    between atoms: C_2  and  C_7
REMARK                            x       y       z     vdW  Elec       q    Type
REMARK                         _______ _______ _______ _____ _____    ______ ____
ROOT
ATOM      1  C   UNL A   1     -30.061  -0.737  29.902  0.00  0.00    +0.249 C 
ATOM      2  O   UNL A   1     -30.725  -1.554  30.270  0.00  0.00    -0.270 OA
ATOM      3  N   UNL A   1     -30.556   0.424  29.312  0.00  0.00    -0.276 N 
ATOM      4  C   UNL A   1     -31.965   0.564  29.163  0.00  0.00    +0.094 C 
ATOM      5  C   UNL A   1     -32.334   1.559  28.757  0.00  0.00    +0.022 C 
ATOM      6  C   UNL A   1     -31.438   2.638  28.268  0.00  0.00    +0.004 C 
ATOM      7  C   UNL A   1     -30.045   2.423  28.360  0.00  0.00    +0.022 C 
ATOM      8  C   UNL A   1     -29.599   1.375  28.916  0.00  0.00    +0.094 C 
ENDROOT
BRANCH   1  10
ATOM      9  C   UNL A   1     -28.016  -0.814  28.878  0.00  0.00    +0.004 A 
ATOM     10  C   UNL A   1     -28.469  -0.785  29.829  0.00  0.00    +0.054 A 
ATOM     11  C   UNL A   1     -26.546  -0.876  28.850  0.00  0.00    +0.000 A 
ATOM     12  C   UNL A   1     -25.804  -1.032  30.057  0.00  0.00    +0.000 A 
ATOM     13  C   UNL A   1     -27.944  -0.987  31.207  0.00  0.00    +0.004 A 
ATOM     14  C   UNL A   1     -26.582  -1.039  31.223  0.00  0.00    +0.000 A 
ENDBRANCH   1  10
TORSDOF 1
