MODEL 4562
MODEL 1
REMARK VINA RESULT:    -6.356      0.000      0.000
REMARK INTER + INTRA:          -6.267
REMARK INTER:                  -6.727
REMARK INTRA:                   0.460
REMARK UNBOUND:                 0.460
REMARK  Name = No_4562-gen_results/8p0m/2024-11-26-14-13-15/
REMARK  1 active torsions:
REMARK  status: ('A' for Active; 'I' for Inactive)
REMARK    1  A    between atoms: C_2  and  C_7
REMARK                            x       y       z     vdW  Elec       q    Type
REMARK                         _______ _______ _______ _____ _____    ______ ____
ROOT
ATOM      1  C   UNL A   1     -23.495  -1.299  29.172  0.00  0.00    +0.249 C 
ATOM      2  O   UNL A   1     -22.623  -1.113  29.842  0.00  0.00    -0.270 OA
ATOM      3  N   UNL A   1     -23.845  -0.434  28.137  0.00  0.00    -0.276 N 
ATOM      4  C   UNL A   1     -23.064   0.740  27.939  0.00  0.00    +0.094 C 
ATOM      5  C   UNL A   1     -23.327   1.375  27.034  0.00  0.00    +0.022 C 
ATOM      6  C   UNL A   1     -24.493   1.116  26.151  0.00  0.00    +0.004 C 
ATOM      7  C   UNL A   1     -25.289  -0.016  26.433  0.00  0.00    +0.022 C 
ATOM      8  C   UNL A   1     -24.955  -0.812  27.362  0.00  0.00    +0.094 C 
ENDROOT
BRANCH   1  10
ATOM      9  C   UNL A   1     -25.460  -2.241  29.871  0.00  0.00    +0.004 A 
ATOM     10  C   UNL A   1     -24.576  -2.459  29.341  0.00  0.00    +0.054 A 
ATOM     11  C   UNL A   1     -26.426  -3.340  30.023  0.00  0.00    +0.000 A 
ATOM     12  C   UNL A   1     -26.097  -4.659  29.593  0.00  0.00    +0.000 A 
ATOM     13  C   UNL A   1     -23.977  -3.731  28.852  0.00  0.00    +0.004 A 
ATOM     14  C   UNL A   1     -24.848  -4.773  28.967  0.00  0.00    +0.000 A 
ENDBRANCH   1  10
TORSDOF 1
ENDMDL
ENDMDL
