MODEL 4563
MODEL 1
REMARK VINA RESULT:    -6.517      0.000      0.000
REMARK INTER + INTRA:          -6.517
REMARK INTER:                  -6.517
REMARK INTRA:                   0.000
REMARK UNBOUND:                 0.000
REMARK  Name = No_4563-gen_results/8p0m/2024-11-26-14-13-15/
REMARK  0 active torsions:
REMARK  status: ('A' for Active; 'I' for Inactive)
REMARK                            x       y       z     vdW  Elec       q    Type
REMARK                         _______ _______ _______ _____ _____    ______ ____
ROOT
ATOM      1  C   UNL A   1     -24.126   1.119  29.336  0.00  0.00    -0.000 A 
ATOM      2  C   UNL A   1     -24.699   0.055  29.360  0.00  0.00    -0.004 A 
ATOM      3  C   UNL A   1     -24.011  -1.136  29.152  0.00  0.00    -0.000 A 
ATOM      4  C   UNL A   1     -24.603  -2.505  29.147  0.00  0.00    -0.000 A 
ATOM      5  C   UNL A   1     -23.878  -3.725  28.909  0.00  0.00    -0.000 A 
ATOM      6  C   UNL A   1     -22.723   1.192  28.898  0.00  0.00    -0.000 A 
ATOM      7  C   UNL A   1     -21.945   0.083  28.742  0.00  0.00    -0.000 A 
ATOM      8  C   UNL A   1     -22.580  -1.164  28.868  0.00  0.00    -0.000 A 
ATOM      9  C   UNL A   1     -24.562  -4.906  28.950  0.00  0.00    -0.000 A 
ATOM     10  C   UNL A   1     -25.806  -5.130  29.444  0.00  0.00    -0.000 A 
ATOM     11  C   UNL A   1     -25.959  -2.717  29.629  0.00  0.00    -0.000 A 
ATOM     12  C   UNL A   1     -26.703  -1.588  30.024  0.00  0.00    -0.004 A 
ATOM     13  C   UNL A   1     -26.538  -3.985  29.795  0.00  0.00    -0.000 A 
ATOM     14  C   UNL A   1     -26.116  -0.153  29.831  0.00  0.00    -0.022 A 
ATOM     15  C   UNL A   1     -26.893   0.986  30.165  0.00  0.00    +0.031 C 
ENDROOT
TORSDOF 0
ENDMDL
ENDMDL
