MODEL 4564
MODEL 1
REMARK VINA RESULT:    -7.150      0.000      0.000
REMARK INTER + INTRA:         -13.116
REMARK INTER:                 -11.749
REMARK INTRA:                  -1.367
REMARK UNBOUND:                -1.367
REMARK  Name = No_4564-gen_results/8p0m/2024-11-26-14-13-15/
REMARK  11 active torsions:
REMARK  status: ('A' for Active; 'I' for Inactive)
REMARK    1  A    between atoms: C_2  and  C_14
REMARK    2  A    between atoms: C_4  and  C_5
REMARK    3  A    between atoms: C_5  and  C_8
REMARK    4  A    between atoms: C_6  and  O_9
REMARK    5  A    between atoms: C_8  and  C_18
REMARK    6  A    between atoms: O_9  and  C_10
REMARK    7  A    between atoms: C_10  and  C_11
REMARK    8  A    between atoms: C_19  and  C_20
REMARK    9  A    between atoms: N_21  and  C_23
REMARK   10  A    between atoms: C_23  and  C_24
REMARK   11  A    between atoms: C_24  and  C_25
REMARK                            x       y       z     vdW  Elec       q    Type
REMARK                         _______ _______ _______ _____ _____    ______ ____
ROOT
ATOM      1  C   UNL A   1     -31.300   0.327  23.491  0.00  0.00    +0.041 A 
ATOM      2  C   UNL A   1     -30.821   1.379  23.135  0.00  0.00    +0.074 A 
ATOM      3  C   UNL A   1     -29.474   1.704  23.287  0.00  0.00    -0.000 A 
ATOM      4  C   UNL A   1     -28.593   0.768  23.959  0.00  0.00    -0.019 A 
ATOM      5  C   UNL A   1     -30.551  -0.647  24.239  0.00  0.00    +0.139 A 
ATOM      6  C   UNL A   1     -29.205  -0.430  24.468  0.00  0.00    +0.033 A 
ENDROOT
BRANCH   2   7
ATOM      7  C   UNL A   1     -31.581   2.386  22.312  0.00  0.00    +0.419 C 
ATOM      8  F   UNL A   1     -31.327   2.463  21.208  0.00  0.00    -0.166 F 
ATOM      9  F   UNL A   1     -31.373   3.595  22.893  0.00  0.00    -0.166 F 
ATOM     10  F   UNL A   1     -32.933   2.144  22.512  0.00  0.00    -0.166 F 
ENDBRANCH   2   7
BRANCH   4  11
ATOM     11  C   UNL A   1     -27.259   0.953  24.216  0.00  0.00    +0.031 C 
BRANCH  11  12
ATOM     12  C   UNL A   1     -26.567  -0.224  24.595  0.00  0.00    +0.031 C 
BRANCH  12  13
ATOM     13  C   UNL A   1     -25.270  -0.049  25.324  0.00  0.00    -0.021 C 
ATOM     14  C   UNL A   1     -25.257   0.175  26.638  0.00  0.00    +0.055 C 
BRANCH  14  15
ATOM     15  C   UNL A   1     -24.092   0.599  27.432  0.00  0.00    +0.265 C 
ATOM     16  N   UNL A   1     -24.129   0.519  28.791  0.00  0.00    -0.201 NA
ATOM     17  O   UNL A   1     -23.174   1.181  26.889  0.00  0.00    -0.268 OA
BRANCH  16  18
ATOM     18  C   UNL A   1     -25.250  -0.128  29.497  0.00  0.00    +0.120 C 
BRANCH  18  19
ATOM     19  C   UNL A   1     -24.792  -1.239  30.211  0.00  0.00    +0.050 C 
BRANCH  19  20
ATOM     20  C   UNL A   1     -24.867  -2.529  29.739  0.00  0.00    -0.020 A 
ATOM     21  C   UNL A   1     -23.951  -3.164  28.878  0.00  0.00    -0.004 A 
ATOM     22  C   UNL A   1     -24.032  -4.538  28.647  0.00  0.00    -0.000 A 
ATOM     23  C   UNL A   1     -26.073  -3.322  29.967  0.00  0.00    -0.004 A 
ATOM     24  C   UNL A   1     -26.181  -4.647  29.658  0.00  0.00    -0.000 A 
ATOM     25  C   UNL A   1     -25.155  -5.255  28.934  0.00  0.00    -0.000 A 
ENDBRANCH  19  20
ENDBRANCH  18  19
ENDBRANCH  16  18
ENDBRANCH  14  15
ENDBRANCH  12  13
ENDBRANCH  11  12
ENDBRANCH   4  11
BRANCH   5  26
ATOM     26  O   UNL A   1     -31.094  -1.793  24.749  0.00  0.00    -0.464 OA
BRANCH  26  27
ATOM     27  C   UNL A   1     -32.280  -2.284  24.343  0.00  0.00    +0.319 C 
BRANCH  27  28
ATOM     28  C   UNL A   1     -32.606  -3.528  25.154  0.00  0.00    +0.408 C 
ATOM     29  O   UNL A   1     -31.699  -3.703  25.999  0.00  0.00    -0.241 OA
ATOM     30  O   UNL A   1     -33.478  -4.276  24.923  0.00  0.00    -0.241 OA
ENDBRANCH  27  28
ENDBRANCH  26  27
ENDBRANCH   5  26
TORSDOF 11
ENDMDL
ENDMDL
