REMARK  Name = No_4564-gen_results/8p0m/2024-11-26-14-13-15/
REMARK  11 active torsions:
REMARK  status: ('A' for Active; 'I' for Inactive)
REMARK    1  A    between atoms: C_2  and  C_14
REMARK    2  A    between atoms: C_4  and  C_5
REMARK    3  A    between atoms: C_5  and  C_8
REMARK    4  A    between atoms: C_6  and  O_9
REMARK    5  A    between atoms: C_8  and  C_18
REMARK    6  A    between atoms: O_9  and  C_10
REMARK    7  A    between atoms: C_10  and  C_11
REMARK    8  A    between atoms: C_19  and  C_20
REMARK    9  A    between atoms: N_21  and  C_23
REMARK   10  A    between atoms: C_23  and  C_24
REMARK   11  A    between atoms: C_24  and  C_25
REMARK                            x       y       z     vdW  Elec       q    Type
REMARK                         _______ _______ _______ _____ _____    ______ ____
ROOT
ATOM      1  C   UNL A   1     -28.016  -0.814  28.878  0.00  0.00    +0.041 A 
ATOM      2  C   UNL A   1     -27.064  -0.119  28.608  0.00  0.00    +0.074 A 
ATOM      3  C   UNL A   1     -25.765  -0.390  29.036  0.00  0.00    -0.000 A 
ATOM      4  C   UNL A   1     -25.530  -1.530  29.901  0.00  0.00    -0.019 A 
ATOM      5  C   UNL A   1     -27.927  -1.923  29.790  0.00  0.00    +0.139 A 
ATOM      6  C   UNL A   1     -26.691  -2.281  30.295  0.00  0.00    +0.033 A 
ENDROOT
BRANCH   2   7
ATOM      7  C   UNL A   1     -27.134   1.015  27.619  0.00  0.00    +0.419 C 
ATOM      8  F   UNL A   1     -26.317   1.080  26.834  0.00  0.00    -0.166 F 
ATOM      9  F   UNL A   1     -27.134   2.161  28.346  0.00  0.00    -0.166 F 
ATOM     10  F   UNL A   1     -28.397   0.981  27.044  0.00  0.00    -0.166 F 
ENDBRANCH   2   7
BRANCH   4  11
ATOM     11  C   UNL A   1     -24.324  -1.908  30.432  0.00  0.00    +0.031 C 
BRANCH  11  12
ATOM     12  C   UNL A   1     -23.281  -2.039  29.481  0.00  0.00    +0.031 C 
BRANCH  12  13
ATOM     13  C   UNL A   1     -22.383  -0.856  29.285  0.00  0.00    -0.021 C 
ATOM     14  C   UNL A   1     -22.838   0.247  28.690  0.00  0.00    +0.055 C 
BRANCH  14  15
ATOM     15  C   UNL A   1     -22.020   1.377  28.221  0.00  0.00    +0.265 C 
ATOM     16  N   UNL A   1     -22.621   2.483  27.700  0.00  0.00    -0.201 NA
ATOM     17  O   UNL A   1     -20.814   1.252  28.134  0.00  0.00    -0.268 OA
BRANCH  16  18
ATOM     18  C   UNL A   1     -24.085   2.654  27.732  0.00  0.00    +0.120 C 
BRANCH  18  19
ATOM     19  C   UNL A   1     -24.448   3.507  28.778  0.00  0.00    +0.050 C 
BRANCH  19  20
ATOM     20  C   UNL A   1     -25.211   4.638  28.605  0.00  0.00    -0.020 A 
ATOM     21  C   UNL A   1     -25.730   5.466  29.619  0.00  0.00    -0.004 A 
ATOM     22  C   UNL A   1     -26.307   6.697  29.303  0.00  0.00    -0.000 A 
ATOM     23  C   UNL A   1     -25.721   4.980  27.279  0.00  0.00    -0.004 A 
ATOM     24  C   UNL A   1     -26.365   6.149  26.990  0.00  0.00    -0.000 A 
ATOM     25  C   UNL A   1     -26.711   7.003  28.037  0.00  0.00    -0.000 A 
ENDBRANCH  19  20
ENDBRANCH  18  19
ENDBRANCH  16  18
ENDBRANCH  14  15
ENDBRANCH  12  13
ENDBRANCH  11  12
ENDBRANCH   4  11
BRANCH   5  26
ATOM     26  O   UNL A   1     -29.005  -2.657  30.199  0.00  0.00    -0.464 OA
BRANCH  26  27
ATOM     27  C   UNL A   1     -28.907  -3.939  30.600  0.00  0.00    +0.319 C 
BRANCH  27  28
ATOM     28  C   UNL A   1     -30.200  -4.665  30.261  0.00  0.00    +0.408 C 
ATOM     29  O   UNL A   1     -30.264  -5.709  30.949  0.00  0.00    -0.241 OA
ATOM     30  O   UNL A   1     -30.932  -4.372  29.395  0.00  0.00    -0.241 OA
ENDBRANCH  27  28
ENDBRANCH  26  27
ENDBRANCH   5  26
TORSDOF 11
