REMARK  Name = No_4565-gen_results/8p0m/2024-11-26-14-13-15/
REMARK  12 active torsions:
REMARK  status: ('A' for Active; 'I' for Inactive)
REMARK    1  A    between atoms: C_3  and  C_8
REMARK    2  A    between atoms: C_6  and  O_7
REMARK    3  A    between atoms: O_7  and  C_14
REMARK    4  A    between atoms: C_14  and  C_15
REMARK    5  A    between atoms: C_15  and  C_16
REMARK    6  A    between atoms: C_16  and  C_18
REMARK    7  A    between atoms: C_18  and  O_19
REMARK    8  A    between atoms: O_19  and  C_20
REMARK    9  A    between atoms: C_20  and  C_21
REMARK   10  A    between atoms: C_21  and  C_22
REMARK   11  A    between atoms: C_22  and  C_25
REMARK   12  A    between atoms: C_25  and  C_26
REMARK                            x       y       z     vdW  Elec       q    Type
REMARK                         _______ _______ _______ _____ _____    ______ ____
ROOT
ATOM      1  C   UNL A   1     -29.359  -2.817  31.443  0.00  0.00    +0.224 C 
ENDROOT
BRANCH   1   2
ATOM      2  C   UNL A   1     -29.782  -4.127  31.747  0.00  0.00    +0.138 C 
ATOM      3  N   UNL A   1     -29.023  -4.573  32.930  0.00  0.00    -0.129 NA
BRANCH   2   4
ATOM      4  C   UNL A   1     -29.840  -5.056  30.807  0.00  0.00    +0.055 C 
BRANCH   4   5
ATOM      5  C   UNL A   1     -30.483  -4.824  29.575  0.00  0.00    +0.147 C 
BRANCH   5   6
ATOM      6  O   UNL A   1     -30.539  -5.846  28.716  0.00  0.00    -0.325 OA
BRANCH   6   7
ATOM      7  C   UNL A   1     -31.801  -5.995  28.092  0.00  0.00    +0.309 C 
ATOM      8  F   UNL A   1     -31.703  -6.794  27.017  0.00  0.00    -0.201 F 
BRANCH   7   9
ATOM      9  C   UNL A   1     -32.858  -5.681  28.809  0.00  0.00    +0.213 C 
ATOM     10  O   UNL A   1     -32.862  -4.204  28.885  0.00  0.00    -0.217 OA
BRANCH   9  11
ATOM     11  C   UNL A   1     -33.077  -6.182  29.910  0.00  0.00    +0.043 C 
BRANCH  11  12
ATOM     12  C   UNL A   1     -33.870  -5.495  30.856  0.00  0.00    +0.029 C 
BRANCH  12  13
ATOM     13  C   UNL A   1     -33.861  -5.908  32.216  0.00  0.00    -0.031 C 
ATOM     14  C   UNL A   1     -34.285  -5.023  33.214  0.00  0.00    -0.030 C 
ATOM     15  C   UNL A   1     -34.129  -5.270  34.578  0.00  0.00    +0.030 C 
ENDBRANCH  12  13
ENDBRANCH  11  12
ENDBRANCH   9  11
ENDBRANCH   7   9
ENDBRANCH   6   7
ENDBRANCH   5   6
ENDBRANCH   4   5
ENDBRANCH   2   4
ENDBRANCH   1   2
BRANCH   1  16
ATOM     16  O   UNL A   1     -29.000  -2.701  30.115  0.00  0.00    -0.474 OA
BRANCH  16  22
ATOM     17  C   UNL A   1     -28.016  -0.814  28.878  0.00  0.00    +0.037 A 
ATOM     18  C   UNL A   1     -27.064  -0.119  28.608  0.00  0.00    +0.003 A 
ATOM     19  C   UNL A   1     -25.792  -0.430  29.076  0.00  0.00    +0.000 A 
ATOM     20  C   UNL A   1     -25.576  -1.565  29.936  0.00  0.00    +0.003 A 
ATOM     21  C   UNL A   1     -26.735  -2.300  30.217  0.00  0.00    +0.037 A 
ATOM     22  C   UNL A   1     -27.918  -1.954  29.763  0.00  0.00    +0.139 A 
BRANCH  19  23
ATOM     23  C   UNL A   1     -24.529   0.349  28.800  0.00  0.00    +0.000 A 
ATOM     24  C   UNL A   1     -23.344   0.006  29.166  0.00  0.00    +0.000 A 
ATOM     25  C   UNL A   1     -22.178   0.781  28.778  0.00  0.00    +0.000 A 
ATOM     26  C   UNL A   1     -22.322   1.750  27.773  0.00  0.00    +0.000 A 
ATOM     27  C   UNL A   1     -24.610   1.356  27.748  0.00  0.00    +0.000 A 
ATOM     28  C   UNL A   1     -23.515   2.034  27.307  0.00  0.00    +0.000 A 
ENDBRANCH  19  23
ENDBRANCH  16  22
ENDBRANCH   1  16
TORSDOF 12
