REMARK  Name = No_4566-gen_results/8p0m/2024-11-26-14-13-15/
REMARK  5 active torsions:
REMARK  status: ('A' for Active; 'I' for Inactive)
REMARK    1  A    between atoms: C_1  and  C_3
REMARK    2  A    between atoms: C_5  and  C_14
REMARK    3  A    between atoms: N_15  and  C_16
REMARK    4  A    between atoms: C_19  and  C_23
REMARK    5  A    between atoms: C_23  and  C_25
REMARK                            x       y       z     vdW  Elec       q    Type
REMARK                         _______ _______ _______ _____ _____    ______ ____
ROOT
ATOM      1  C   UNL A   1     -28.182   0.428  28.113  0.00  0.00    +0.000 A 
ATOM      2  C   UNL A   1     -27.450   0.643  26.850  0.00  0.00    +0.005 A 
ATOM      3  C   UNL A   1     -27.860   1.457  25.908  0.00  0.00    +0.055 A 
ATOM      4  C   UNL A   1     -28.972   2.347  26.122  0.00  0.00    +0.005 A 
ATOM      5  C   UNL A   1     -29.623   2.220  27.332  0.00  0.00    +0.000 A 
ATOM      6  C   UNL A   1     -29.285   1.235  28.272  0.00  0.00    +0.000 A 
ENDROOT
BRANCH   1   7
ATOM      7  C   UNL A   1     -28.016  -0.814  28.878  0.00  0.00    +0.001 A 
ATOM      8  C   UNL A   1     -28.469  -0.785  29.829  0.00  0.00    +0.000 A 
ATOM      9  C   UNL A   1     -28.308  -1.988  30.863  0.00  0.00    +0.001 A 
ATOM     10  C   UNL A   1     -27.528  -3.019  30.360  0.00  0.00    +0.011 A 
ATOM     11  C   UNL A   1     -26.739  -2.848  29.272  0.00  0.00    +0.058 A 
ATOM     12  C   UNL A   1     -26.909  -1.658  28.534  0.00  0.00    +0.011 A 
ATOM     13 CL   UNL A   1     -25.553  -3.986  28.899  0.00  0.00    -0.082 Cl
ENDBRANCH   1   7
BRANCH   3  14
ATOM     14  C   UNL A   1     -27.038   1.661  24.686  0.00  0.00    +0.269 C 
ATOM     15  N   UNL A   1     -25.821   1.445  24.901  0.00  0.00    -0.175 NA
ATOM     16  O   UNL A   1     -27.509   2.173  23.720  0.00  0.00    -0.268 OA
BRANCH  15  17
ATOM     17  C   UNL A   1     -24.980   2.221  25.672  0.00  0.00    +0.073 A 
ATOM     18  C   UNL A   1     -23.608   1.870  25.936  0.00  0.00    +0.017 A 
ATOM     19  C   UNL A   1     -25.435   3.490  26.250  0.00  0.00    +0.014 A 
ATOM     20  C   UNL A   1     -24.545   4.239  27.075  0.00  0.00    +0.001 A 
ATOM     21  C   UNL A   1     -22.771   2.490  26.825  0.00  0.00    +0.001 A 
ATOM     22  C   UNL A   1     -23.308   3.682  27.404  0.00  0.00    -0.003 A 
BRANCH  20  23
ATOM     23  C   UNL A   1     -25.051   5.442  27.721  0.00  0.00    +0.167 C 
ATOM     24 CL   UNL A   1     -24.934   6.816  26.928  0.00  0.00    -0.102 Cl
BRANCH  23  25
ATOM     25  C   UNL A   1     -25.732   5.384  28.957  0.00  0.00    +0.228 C 
ATOM     26  O   UNL A   1     -26.219   4.434  29.391  0.00  0.00    -0.287 OA
ENDBRANCH  23  25
ENDBRANCH  20  23
ENDBRANCH  15  17
ENDBRANCH   3  14
TORSDOF 5
