MODEL 4566
MODEL 1
REMARK VINA RESULT:    -8.084      0.000      0.000
REMARK INTER + INTRA:         -11.906
REMARK INTER:                 -10.447
REMARK INTRA:                  -1.459
REMARK UNBOUND:                -1.459
REMARK  Name = No_4566-gen_results/8p0m/2024-11-26-14-13-15/
REMARK  5 active torsions:
REMARK  status: ('A' for Active; 'I' for Inactive)
REMARK    1  A    between atoms: C_1  and  C_3
REMARK    2  A    between atoms: C_5  and  C_14
REMARK    3  A    between atoms: N_15  and  C_16
REMARK    4  A    between atoms: C_19  and  C_23
REMARK    5  A    between atoms: C_23  and  C_25
REMARK                            x       y       z     vdW  Elec       q    Type
REMARK                         _______ _______ _______ _____ _____    ______ ____
ROOT
ATOM      1  C   UNL A   1     -23.762  -1.355  29.890  0.00  0.00    +0.000 A 
ATOM      2  C   UNL A   1     -23.459  -0.473  28.747  0.00  0.00    +0.005 A 
ATOM      3  C   UNL A   1     -23.438   0.835  28.832  0.00  0.00    +0.055 A 
ATOM      4  C   UNL A   1     -23.530   1.503  30.104  0.00  0.00    +0.005 A 
ATOM      5  C   UNL A   1     -23.733   0.690  31.200  0.00  0.00    +0.000 A 
ATOM      6  C   UNL A   1     -23.920  -0.696  31.088  0.00  0.00    +0.000 A 
ENDROOT
BRANCH   1   7
ATOM      7  C   UNL A   1     -24.289  -2.709  29.678  0.00  0.00    +0.001 A 
ATOM      8  C   UNL A   1     -23.719  -3.280  29.000  0.00  0.00    +0.000 A 
ATOM      9  C   UNL A   1     -24.183  -4.735  28.543  0.00  0.00    +0.001 A 
ATOM     10  C   UNL A   1     -25.379  -5.119  29.132  0.00  0.00    +0.011 A 
ATOM     11  C   UNL A   1     -26.194  -4.223  29.738  0.00  0.00    +0.058 A 
ATOM     12  C   UNL A   1     -25.680  -2.926  29.949  0.00  0.00    +0.011 A 
ATOM     13 CL   UNL A   1     -27.778  -4.646  30.125  0.00  0.00    -0.082 Cl
ENDBRANCH   1   7
BRANCH   3  14
ATOM     14  C   UNL A   1     -23.070   1.655  27.647  0.00  0.00    +0.269 C 
ATOM     15  N   UNL A   1     -24.082   2.124  27.072  0.00  0.00    -0.175 NA
ATOM     16  O   UNL A   1     -21.956   1.647  27.229  0.00  0.00    -0.268 OA
BRANCH  15  17
ATOM     17  C   UNL A   1     -25.021   1.404  26.361  0.00  0.00    +0.073 A 
ATOM     18  C   UNL A   1     -24.673   0.471  25.319  0.00  0.00    +0.017 A 
ATOM     19  C   UNL A   1     -26.453   1.527  26.654  0.00  0.00    +0.014 A 
ATOM     20  C   UNL A   1     -27.390   0.796  25.866  0.00  0.00    +0.001 A 
ATOM     21  C   UNL A   1     -25.544  -0.142  24.459  0.00  0.00    +0.001 A 
ATOM     22  C   UNL A   1     -26.924   0.080  24.763  0.00  0.00    -0.003 A 
BRANCH  20  23
ATOM     23  C   UNL A   1     -28.810   1.012  26.107  0.00  0.00    +0.167 C 
ATOM     24 CL   UNL A   1     -29.728   1.376  24.861  0.00  0.00    -0.102 Cl
BRANCH  23  25
ATOM     25  C   UNL A   1     -29.384   0.790  27.379  0.00  0.00    +0.228 C 
ATOM     26  O   UNL A   1     -29.874  -0.199  27.711  0.00  0.00    -0.287 OA
ENDBRANCH  23  25
ENDBRANCH  20  23
ENDBRANCH  15  17
ENDBRANCH   3  14
TORSDOF 5
ENDMDL
ENDMDL
