REMARK  Name = No_4567-gen_results/8p0m/2024-11-26-14-13-15/
REMARK  8 active torsions:
REMARK  status: ('A' for Active; 'I' for Inactive)
REMARK    1  A    between atoms: C_9  and  C_11
REMARK    2  A    between atoms: N_12  and  C_14
REMARK    3  A    between atoms: C_14  and  C_15
REMARK    4  A    between atoms: C_15  and  C_16
REMARK    5  A    between atoms: C_16  and  C_18
REMARK    6  A    between atoms: C_18  and  C_19
REMARK    7  A    between atoms: C_20  and  C_21
REMARK    8  A    between atoms: C_22  and  C_23
REMARK                            x       y       z     vdW  Elec       q    Type
REMARK                         _______ _______ _______ _____ _____    ______ ____
ROOT
ATOM      1  C   UNL A   1     -25.201   3.896  27.172  0.00  0.00    +0.265 C 
ATOM      2  N   UNL A   1     -25.163   4.949  27.880  0.00  0.00    -0.202 NA
ATOM      3  O   UNL A   1     -24.262   3.752  26.242  0.00  0.00    -0.268 OA
ENDROOT
BRANCH   1  12
ATOM      4  C   UNL A   1     -28.016  -0.814  28.878  0.00  0.00    +0.000 A 
ATOM      5  C   UNL A   1     -28.469  -0.785  29.829  0.00  0.00    +0.000 A 
ATOM      6  C   UNL A   1     -27.136   0.236  28.535  0.00  0.00    +0.000 A 
ATOM      7  C   UNL A   1     -26.875   1.282  29.398  0.00  0.00    +0.000 A 
ATOM      8  C   UNL A   1     -27.507   1.238  30.630  0.00  0.00    +0.000 A 
ATOM      9  C   UNL A   1     -28.329   0.174  30.935  0.00  0.00    +0.000 A 
ATOM     10  C   UNL A   1     -26.385   0.521  27.253  0.00  0.00    +0.000 A 
ATOM     11  C   UNL A   1     -26.169   1.495  26.768  0.00  0.00    +0.005 A 
ATOM     12  C   UNL A   1     -25.855   2.666  27.682  0.00  0.00    +0.055 A 
ATOM     13  C   UNL A   1     -26.404   2.578  28.977  0.00  0.00    +0.005 A 
ENDBRANCH   1  12
BRANCH   2  14
ATOM     14  C   UNL A   1     -24.588   6.260  27.407  0.00  0.00    +0.116 C 
BRANCH  14  15
ATOM     15  C   UNL A   1     -25.585   7.392  27.523  0.00  0.00    +0.035 C 
BRANCH  15  16
ATOM     16  C   UNL A   1     -25.836   7.758  28.852  0.00  0.00    +0.063 C 
ATOM     17 BR   UNL A   1     -24.664   7.977  29.920  0.00  0.00    -0.081 Br
BRANCH  16  18
ATOM     18  C   UNL A   1     -27.235   7.903  29.179  0.00  0.00    +0.037 C 
BRANCH  18  19
ATOM     19  C   UNL A   1     -27.548   7.852  30.514  0.00  0.00    -0.025 C 
ATOM     20  C   UNL A   1     -26.852   8.063  31.379  0.00  0.00    -0.004 C 
BRANCH  20  21
ATOM     21  C   UNL A   1     -27.186   7.974  32.847  0.00  0.00    -0.000 C 
ATOM     22  C   UNL A   1     -26.222   8.200  33.855  0.00  0.00    -0.000 C 
BRANCH  22  23
ATOM     23  C   UNL A   1     -24.872   8.371  33.474  0.00  0.00    -0.000 C 
ATOM     24  C   UNL A   1     -24.529   8.408  32.231  0.00  0.00    -0.000 C 
ENDBRANCH  22  23
ENDBRANCH  20  21
ENDBRANCH  18  19
ENDBRANCH  16  18
ENDBRANCH  15  16
ENDBRANCH  14  15
ENDBRANCH   2  14
TORSDOF 8
