MODEL 4567
MODEL 1
REMARK VINA RESULT:    -6.279      0.000      0.000
REMARK INTER + INTRA:         -11.095
REMARK INTER:                  -9.215
REMARK INTRA:                  -1.879
REMARK UNBOUND:                -1.879
REMARK  Name = No_4567-gen_results/8p0m/2024-11-26-14-13-15/
REMARK  8 active torsions:
REMARK  status: ('A' for Active; 'I' for Inactive)
REMARK    1  A    between atoms: C_9  and  C_11
REMARK    2  A    between atoms: N_12  and  C_14
REMARK    3  A    between atoms: C_14  and  C_15
REMARK    4  A    between atoms: C_15  and  C_16
REMARK    5  A    between atoms: C_16  and  C_18
REMARK    6  A    between atoms: C_18  and  C_19
REMARK    7  A    between atoms: C_20  and  C_21
REMARK    8  A    between atoms: C_22  and  C_23
REMARK                            x       y       z     vdW  Elec       q    Type
REMARK                         _______ _______ _______ _____ _____    ______ ____
ROOT
ATOM      1  C   UNL A   1     -31.973  -9.759  10.371  0.00  0.00    +0.265 C 
ATOM      2  N   UNL A   1     -31.967  -8.768  11.164  0.00  0.00    -0.202 NA
ATOM      3  O   UNL A   1     -31.893  -9.500   9.069  0.00  0.00    -0.268 OA
ENDROOT
BRANCH   1  12
ATOM      4  C   UNL A   1     -29.892 -14.798  12.185  0.00  0.00    +0.000 A 
ATOM      5  C   UNL A   1     -29.866 -15.587  11.487  0.00  0.00    +0.000 A 
ATOM      6  C   UNL A   1     -30.601 -13.629  11.833  0.00  0.00    +0.000 A 
ATOM      7  C   UNL A   1     -31.236 -13.499  10.613  0.00  0.00    +0.000 A 
ATOM      8  C   UNL A   1     -31.158 -14.586   9.758  0.00  0.00    +0.000 A 
ATOM      9  C   UNL A   1     -30.485 -15.721  10.160  0.00  0.00    +0.000 A 
ATOM     10  C   UNL A   1     -30.778 -12.318  12.567  0.00  0.00    +0.000 A 
ATOM     11  C   UNL A   1     -30.821 -11.287  12.161  0.00  0.00    +0.005 A 
ATOM     12  C   UNL A   1     -31.530 -11.098  10.831  0.00  0.00    +0.055 A 
ATOM     13  C   UNL A   1     -31.551 -12.234   9.998  0.00  0.00    +0.005 A 
ENDBRANCH   1  12
BRANCH   2  14
ATOM     14  C   UNL A   1     -32.473  -7.396  10.798  0.00  0.00    +0.116 C 
BRANCH  14  15
ATOM     15  C   UNL A   1     -31.422  -6.328  11.010  0.00  0.00    +0.035 C 
BRANCH  15  16
ATOM     16  C   UNL A   1     -31.125  -5.621   9.838  0.00  0.00    +0.063 C 
ATOM     17 BR   UNL A   1     -31.650  -4.133   9.573  0.00  0.00    -0.081 Br
BRANCH  16  18
ATOM     18  C   UNL A   1     -30.322  -6.353   8.885  0.00  0.00    +0.037 C 
BRANCH  18  19
ATOM     19  C   UNL A   1     -29.153  -6.884   9.368  0.00  0.00    -0.025 C 
ATOM     20  C   UNL A   1     -28.486  -7.633   8.847  0.00  0.00    -0.004 C 
BRANCH  20  21
ATOM     21  C   UNL A   1     -27.219  -8.243   9.391  0.00  0.00    -0.000 C 
ATOM     22  C   UNL A   1     -27.094  -9.629   9.637  0.00  0.00    -0.000 C 
BRANCH  22  23
ATOM     23  C   UNL A   1     -28.239 -10.446   9.505  0.00  0.00    -0.000 C 
ATOM     24  C   UNL A   1     -28.255 -11.447   8.692  0.00  0.00    -0.000 C 
ENDBRANCH  22  23
ENDBRANCH  20  21
ENDBRANCH  18  19
ENDBRANCH  16  18
ENDBRANCH  15  16
ENDBRANCH  14  15
ENDBRANCH   2  14
TORSDOF 8
ENDMDL
ENDMDL
