MODEL 4568
MODEL 1
REMARK VINA RESULT:    -5.447      0.000      0.000
REMARK INTER + INTRA:         -10.895
REMARK INTER:                  -8.313
REMARK INTRA:                  -2.582
REMARK UNBOUND:                -2.582
REMARK  Name = No_4568-gen_results/8p0m/2024-11-26-14-13-15/
REMARK  9 active torsions:
REMARK  status: ('A' for Active; 'I' for Inactive)
REMARK    1  A    between atoms: C_2  and  C_11
REMARK    2  A    between atoms: C_4  and  C_5
REMARK    3  A    between atoms: C_5  and  N_8
REMARK    4  A    between atoms: C_6  and  O_15
REMARK    5  A    between atoms: N_8  and  C_9
REMARK    6  A    between atoms: C_9  and  C_17
REMARK    7  A    between atoms: C_17  and  C_18
REMARK    8  A    between atoms: C_18  and  C_19
REMARK    9  A    between atoms: C_20  and  C_21
REMARK                            x       y       z     vdW  Elec       q    Type
REMARK                         _______ _______ _______ _____ _____    ______ ____
ROOT
ATOM      1  C   UNL A   1     -26.938   0.882  26.326  0.00  0.00    +0.041 A 
ATOM      2  C   UNL A   1     -25.942   0.215  26.171  0.00  0.00    +0.074 A 
ATOM      3  C   UNL A   1     -25.160  -0.260  27.223  0.00  0.00    +0.001 A 
ATOM      4  C   UNL A   1     -25.509   0.104  28.583  0.00  0.00    -0.003 A 
ATOM      5  C   UNL A   1     -27.343   1.375  27.616  0.00  0.00    +0.138 A 
ATOM      6  C   UNL A   1     -26.635   0.984  28.737  0.00  0.00    +0.034 A 
ENDROOT
BRANCH   2   7
ATOM      7  C   UNL A   1     -25.632  -0.123  24.758  0.00  0.00    +0.419 C 
ATOM      8  F   UNL A   1     -24.524   0.035  24.346  0.00  0.00    -0.166 F 
ATOM      9  F   UNL A   1     -26.037  -1.464  24.506  0.00  0.00    -0.166 F 
ATOM     10  F   UNL A   1     -26.566   0.551  23.920  0.00  0.00    -0.166 F 
ENDBRANCH   2   7
BRANCH   5  11
ATOM     11  O   UNL A   1     -28.388   2.204  27.739  0.00  0.00    -0.471 OA
ATOM     12  C   UNL A   1     -28.270   3.450  28.319  0.00  0.00    +0.253 C 
ENDBRANCH   5  11
BRANCH   4  13
ATOM     13  C   UNL A   1     -24.826  -0.252  29.716  0.00  0.00    +0.099 C 
BRANCH  13  14
ATOM     14  N   UNL A   1     -23.715  -0.944  29.628  0.00  0.00    -0.268 NA
ATOM     15  C   UNL A   1     -23.811  -2.437  29.713  0.00  0.00    +0.090 C 
BRANCH  14  16
ATOM     16  C   UNL A   1     -22.413  -0.472  29.819  0.00  0.00    +0.073 C 
BRANCH  16  17
ATOM     17  C   UNL A   1     -21.630  -0.426  28.606  0.00  0.00    +0.022 C 
BRANCH  17  18
ATOM     18  C   UNL A   1     -21.203   0.891  28.152  0.00  0.00    +0.028 C 
BRANCH  18  19
ATOM     19  C   UNL A   1     -22.228   1.736  27.635  0.00  0.00    -0.026 C 
ATOM     20  C   UNL A   1     -22.431   1.890  26.236  0.00  0.00    -0.005 C 
BRANCH  20  21
ATOM     21  C   UNL A   1     -23.431   2.791  25.771  0.00  0.00    -0.005 C 
ATOM     22  C   UNL A   1     -24.288   3.408  26.782  0.00  0.00    -0.026 C 
ATOM     23  C   UNL A   1     -25.041   4.540  26.610  0.00  0.00    +0.031 C 
ENDBRANCH  20  21
ENDBRANCH  18  19
ENDBRANCH  17  18
ENDBRANCH  16  17
ENDBRANCH  14  16
ENDBRANCH  13  14
ENDBRANCH   4  13
TORSDOF 9
ENDMDL
ENDMDL
