MODEL 456
MODEL 1
REMARK VINA RESULT:    -7.333      0.000      0.000
REMARK INTER + INTRA:         -12.132
REMARK INTER:                  -9.476
REMARK INTRA:                  -2.656
REMARK UNBOUND:                -2.656
REMARK  Name = No_456-gen_results/8p0m/2024-11-26-14-13-15/
REMARK  5 active torsions:
REMARK  status: ('A' for Active; 'I' for Inactive)
REMARK    1  A    between atoms: C_2  and  C_7
REMARK    2  A    between atoms: C_7  and  O_9
REMARK    3  A    between atoms: O_9  and  C_11
REMARK    4  A    between atoms: C_12  and  C_13
REMARK    5  A    between atoms: C_17  and  C_19
REMARK                            x       y       z     vdW  Elec       q    Type
REMARK                         _______ _______ _______ _____ _____    ______ ____
ROOT
ATOM      1  C   UNL A   1     -24.568   3.032  27.409  0.00  0.00    +0.183 C 
ATOM      2  C   UNL A   1     -24.142   1.860  26.778  0.00  0.00    +0.041 C 
ENDROOT
BRANCH   2   3
ATOM      3  C   UNL A   1     -23.574   0.891  27.511  0.00  0.00    +0.003 A 
ATOM      4  C   UNL A   1     -22.231   0.985  27.996  0.00  0.00    +0.000 A 
ATOM      5  C   UNL A   1     -21.655  -0.063  28.834  0.00  0.00    +0.000 A 
ATOM      6  C   UNL A   1     -22.434  -1.204  29.101  0.00  0.00    +0.000 A 
ATOM      7  C   UNL A   1     -23.753  -1.311  28.612  0.00  0.00    +0.000 A 
ATOM      8  C   UNL A   1     -24.248  -0.319  27.878  0.00  0.00    +0.000 A 
BRANCH   7   9
ATOM      9  C   UNL A   1     -24.504  -2.554  28.959  0.00  0.00    +0.000 A 
ATOM     10  C   UNL A   1     -25.709  -2.493  29.655  0.00  0.00    +0.000 A 
ATOM     11  C   UNL A   1     -26.425  -3.698  29.809  0.00  0.00    +0.000 A 
ATOM     12  C   UNL A   1     -25.856  -4.932  29.456  0.00  0.00    +0.000 A 
ATOM     13  C   UNL A   1     -24.604  -4.985  28.989  0.00  0.00    +0.000 A 
ATOM     14  C   UNL A   1     -23.929  -3.771  28.692  0.00  0.00    +0.000 A 
ENDBRANCH   7   9
ENDBRANCH   2   3
BRANCH   1  15
ATOM     15  O   UNL A   1     -24.602   3.029  28.567  0.00  0.00    -0.418 OA
BRANCH  15  16
ATOM     16  C   UNL A   1     -25.690   3.020  29.378  0.00  0.00    +0.346 C 
ATOM     17  O   UNL A   1     -26.364   3.872  29.401  0.00  0.00    -0.244 OA
BRANCH  16  19
ATOM     18  C   UNL A   1     -26.564   1.371  30.690  0.00  0.00    +0.018 A 
ATOM     19  C   UNL A   1     -25.641   1.809  30.432  0.00  0.00    +0.077 A 
ATOM     20  C   UNL A   1     -26.490   0.242  31.694  0.00  0.00    +0.058 A 
ATOM     21  C   UNL A   1     -25.257  -0.051  32.315  0.00  0.00    +0.011 A 
ATOM     22  C   UNL A   1     -24.254   1.718  30.942  0.00  0.00    +0.006 A 
ATOM     23  C   UNL A   1     -24.148   0.694  31.873  0.00  0.00    +0.001 A 
ATOM     24 CL   UNL A   1     -27.898  -0.654  32.023  0.00  0.00    -0.082 Cl
ENDBRANCH  16  19
ENDBRANCH  15  16
ENDBRANCH   1  15
TORSDOF 5
ENDMDL
ENDMDL
