REMARK  Name = No_457-gen_results/8p0m/2024-11-26-14-13-15/
REMARK  11 active torsions:
REMARK  status: ('A' for Active; 'I' for Inactive)
REMARK    1  A    between atoms: C_2  and  O_7
REMARK    2  A    between atoms: C_4  and  C_28
REMARK    3  A    between atoms: C_5  and  C_16
REMARK    4  A    between atoms: O_7  and  C_8
REMARK    5  A    between atoms: C_8  and  C_9
REMARK    6  A    between atoms: C_10  and  C_19
REMARK    7  A    between atoms: C_19  and  O_21
REMARK    8  A    between atoms: O_21  and  C_22
REMARK    9  A    between atoms: C_28  and  C_29
REMARK   10  A    between atoms: C_30  and  C_31
REMARK   11  A    between atoms: C_32  and  C_33
REMARK                            x       y       z     vdW  Elec       q    Type
REMARK                         _______ _______ _______ _____ _____    ______ ____
ROOT
ATOM      1  O   UNL A   1     -26.038  -0.848  27.960  0.00  0.00    -0.421 OA
ENDROOT
BRANCH   1   3
ATOM      2  C   UNL A   1     -28.016  -0.814  28.878  0.00  0.00    +0.044 A 
ATOM      3  C   UNL A   1     -27.064  -0.119  28.608  0.00  0.00    +0.149 A 
ATOM      4  C   UNL A   1     -26.876   1.133  28.913  0.00  0.00    +0.034 A 
ATOM      5  C   UNL A   1     -27.901   1.807  29.644  0.00  0.00    -0.015 A 
ATOM      6  C   UNL A   1     -29.046  -0.232  29.718  0.00  0.00    +0.083 A 
ATOM      7  C   UNL A   1     -28.940   1.052  30.060  0.00  0.00    +0.003 A 
BRANCH   6   8
ATOM      8  C   UNL A   1     -30.207  -1.091  30.164  0.00  0.00    +0.388 C 
ATOM      9  O   UNL A   1     -30.227  -1.876  30.987  0.00  0.00    -0.241 OA
ATOM     10  O   UNL A   1     -31.339  -0.640  29.642  0.00  0.00    -0.241 OA
ENDBRANCH   6   8
BRANCH   5  11
ATOM     11  C   UNL A   1     -27.799   3.260  30.024  0.00  0.00    +0.052 C 
BRANCH  11  12
ATOM     12  C   UNL A   1     -28.497   4.133  29.159  0.00  0.00    -0.021 C 
ATOM     13  C   UNL A   1     -28.491   5.459  29.505  0.00  0.00    -0.004 C 
BRANCH  13  14
ATOM     14  C   UNL A   1     -27.667   5.965  30.531  0.00  0.00    -0.000 C 
ATOM     15  C   UNL A   1     -27.685   7.351  30.855  0.00  0.00    -0.000 C 
BRANCH  15  16
ATOM     16  C   UNL A   1     -28.544   8.134  30.147  0.00  0.00    -0.000 C 
ATOM     17  C   UNL A   1     -29.337   7.736  29.157  0.00  0.00    -0.000 C 
ENDBRANCH  15  16
ENDBRANCH  13  14
ENDBRANCH  11  12
ENDBRANCH   5  11
ENDBRANCH   1   3
BRANCH   1  18
ATOM     18  C   UNL A   1     -25.006  -1.408  28.738  0.00  0.00    +0.346 C 
ATOM     19  O   UNL A   1     -25.170  -2.678  29.016  0.00  0.00    -0.244 OA
BRANCH  18  20
ATOM     20  C   UNL A   1     -23.832  -0.686  28.933  0.00  0.00    +0.082 A 
ATOM     21  C   UNL A   1     -23.426  -0.074  29.789  0.00  0.00    +0.082 A 
ATOM     22  C   UNL A   1     -22.066   0.422  29.889  0.00  0.00    +0.007 A 
ATOM     23  C   UNL A   1     -21.139   0.104  28.882  0.00  0.00    +0.000 A 
ATOM     24  C   UNL A   1     -21.568  -0.726  27.871  0.00  0.00    +0.000 A 
ATOM     25  C   UNL A   1     -22.810  -1.105  27.914  0.00  0.00    +0.007 A 
BRANCH  21  26
ATOM     26  C   UNL A   1     -24.300   0.397  30.980  0.00  0.00    +0.346 C 
ATOM     27  O   UNL A   1     -24.349  -0.210  31.961  0.00  0.00    -0.244 OA
BRANCH  26  28
ATOM     28  O   UNL A   1     -24.562   1.710  31.072  0.00  0.00    -0.421 OA
BRANCH  28  29
ATOM     29  C   UNL A   1     -25.279   2.212  32.080  0.00  0.00    +0.149 A 
ATOM     30  C   UNL A   1     -25.234   3.666  32.222  0.00  0.00    +0.038 A 
ATOM     31  C   UNL A   1     -25.854   4.303  33.297  0.00  0.00    +0.003 A 
ATOM     32  C   UNL A   1     -26.703   3.500  34.114  0.00  0.00    +0.000 A 
ATOM     33  C   UNL A   1     -26.767   2.142  33.937  0.00  0.00    +0.003 A 
ATOM     34  C   UNL A   1     -26.067   1.520  32.951  0.00  0.00    +0.038 A 
ENDBRANCH  28  29
ENDBRANCH  26  28
ENDBRANCH  21  26
ENDBRANCH  18  20
ENDBRANCH   1  18
TORSDOF 11
