REMARK  Name = No_4570-gen_results/8p0m/2024-11-26-14-13-15/
REMARK  2 active torsions:
REMARK  status: ('A' for Active; 'I' for Inactive)
REMARK    1  A    between atoms: C_3  and  O_12
REMARK    2  A    between atoms: O_12  and  C_13
REMARK                            x       y       z     vdW  Elec       q    Type
REMARK                         _______ _______ _______ _____ _____    ______ ____
ROOT
ATOM      1  C   UNL A   1     -28.016  -0.814  28.878  0.00  0.00    +0.049 A 
ATOM      2  C   UNL A   1     -28.469  -0.785  29.829  0.00  0.00    +0.061 A 
ATOM      3  C   UNL A   1     -26.546  -0.876  28.850  0.00  0.00    +0.146 A 
ATOM      4  C   UNL A   1     -25.804  -1.032  30.057  0.00  0.00    +0.035 A 
ATOM      5  C   UNL A   1     -27.944  -0.987  31.207  0.00  0.00    +0.012 A 
ATOM      6  C   UNL A   1     -26.582  -1.039  31.223  0.00  0.00    +0.004 A 
ATOM      7  C   UNL A   1     -24.381  -1.108  30.085  0.00  0.00    +0.003 A 
ATOM      8  C   UNL A   1     -23.759  -1.132  30.896  0.00  0.00    +0.000 A 
ATOM      9  C   UNL A   1     -24.356  -0.770  32.249  0.00  0.00    +0.000 A 
ATOM     10  C   UNL A   1     -25.765  -0.895  32.403  0.00  0.00    +0.000 A 
ATOM     11 CL   UNL A   1     -30.317  -0.772  29.849  0.00  0.00    -0.082 Cl
ENDROOT
BRANCH   3  12
ATOM     12  O   UNL A   1     -25.741  -0.947  27.762  0.00  0.00    -0.451 OA
BRANCH  12  13
ATOM     13  C   UNL A   1     -25.542   0.313  27.093  0.00  0.00    +0.175 C 
ATOM     14  C   UNL A   1     -24.445   0.996  27.387  0.00  0.00    +0.015 C 
ATOM     15  C   UNL A   1     -24.091   2.144  26.640  0.00  0.00    +0.034 C 
ENDBRANCH  12  13
ENDBRANCH   3  12
TORSDOF 2
