MODEL 4570
MODEL 1
REMARK VINA RESULT:    -6.445      0.000      0.000
REMARK INTER + INTRA:          -7.478
REMARK INTER:                  -7.199
REMARK INTRA:                  -0.279
REMARK UNBOUND:                -0.279
REMARK  Name = No_4570-gen_results/8p0m/2024-11-26-14-13-15/
REMARK  2 active torsions:
REMARK  status: ('A' for Active; 'I' for Inactive)
REMARK    1  A    between atoms: C_3  and  O_12
REMARK    2  A    between atoms: O_12  and  C_13
REMARK                            x       y       z     vdW  Elec       q    Type
REMARK                         _______ _______ _______ _____ _____    ______ ____
ROOT
ATOM      1  C   UNL A   1     -25.415  -0.572  30.534  0.00  0.00    +0.049 A 
ATOM      2  C   UNL A   1     -26.328  -1.021  30.807  0.00  0.00    +0.061 A 
ATOM      3  C   UNL A   1     -24.443  -1.427  29.834  0.00  0.00    +0.146 A 
ATOM      4  C   UNL A   1     -24.798  -2.748  29.431  0.00  0.00    +0.035 A 
ATOM      5  C   UNL A   1     -26.955  -2.327  30.467  0.00  0.00    +0.012 A 
ATOM      6  C   UNL A   1     -26.080  -3.153  29.825  0.00  0.00    +0.004 A 
ATOM      7  C   UNL A   1     -23.899  -3.613  28.742  0.00  0.00    +0.003 A 
ATOM      8  C   UNL A   1     -24.026  -4.595  28.490  0.00  0.00    +0.000 A 
ATOM      9  C   UNL A   1     -25.178  -5.344  29.145  0.00  0.00    +0.000 A 
ATOM     10  C   UNL A   1     -26.259  -4.574  29.658  0.00  0.00    +0.000 A 
ATOM     11 CL   UNL A   1     -27.563   0.082  31.628  0.00  0.00    -0.082 Cl
ENDROOT
BRANCH   3  12
ATOM     12  O   UNL A   1     -23.222  -1.077  29.362  0.00  0.00    -0.451 OA
BRANCH  12  13
ATOM     13  C   UNL A   1     -23.177   0.226  28.750  0.00  0.00    +0.175 C 
ATOM     14  C   UNL A   1     -22.043   0.592  28.171  0.00  0.00    +0.015 C 
ATOM     15  C   UNL A   1     -21.981   1.773  27.395  0.00  0.00    +0.034 C 
ENDBRANCH  12  13
ENDBRANCH   3  12
TORSDOF 2
ENDMDL
ENDMDL
