REMARK  Name = No_4571-gen_results/8p0m/2024-11-26-14-13-15/
REMARK  1 active torsions:
REMARK  status: ('A' for Active; 'I' for Inactive)
REMARK    1  A    between atoms: C_2  and  N_7
REMARK                            x       y       z     vdW  Elec       q    Type
REMARK                         _______ _______ _______ _____ _____    ______ ____
ROOT
ATOM      1  C   UNL A   1     -28.016  -0.814  28.878  0.00  0.00    +0.015 A 
ATOM      2  C   UNL A   1     -28.469  -0.785  29.829  0.00  0.00    +0.048 A 
ATOM      3  C   UNL A   1     -26.546  -0.876  28.850  0.00  0.00    +0.001 A 
ATOM      4  C   UNL A   1     -25.804  -1.032  30.057  0.00  0.00    +0.000 A 
ATOM      5  C   UNL A   1     -27.944  -0.987  31.207  0.00  0.00    +0.015 A 
ATOM      6  C   UNL A   1     -26.582  -1.039  31.223  0.00  0.00    +0.001 A 
ENDROOT
BRANCH   2   7
ATOM      7  N   UNL A   1     -29.944  -0.683  29.685  0.00  0.00    -0.307 N 
ATOM      8  C   UNL A   1     -30.473   0.015  28.817  0.00  0.00    +0.091 C 
ATOM      9  C   UNL A   1     -31.818  -0.229  28.523  0.00  0.00    +0.021 C 
ATOM     10  C   UNL A   1     -30.825  -1.533  30.484  0.00  0.00    +0.091 C 
ATOM     11  C   UNL A   1     -32.116  -1.697  30.226  0.00  0.00    +0.021 C 
ATOM     12  C   UNL A   1     -32.647  -0.981  29.244  0.00  0.00    +0.004 C 
ENDBRANCH   2   7
TORSDOF 1
