MODEL 4571
MODEL 1
REMARK VINA RESULT:    -6.030      0.000      0.000
REMARK INTER + INTRA:          -6.684
REMARK INTER:                  -6.383
REMARK INTRA:                  -0.302
REMARK UNBOUND:                -0.302
REMARK  Name = No_4571-gen_results/8p0m/2024-11-26-14-13-15/
REMARK  1 active torsions:
REMARK  status: ('A' for Active; 'I' for Inactive)
REMARK    1  A    between atoms: C_2  and  N_7
REMARK                            x       y       z     vdW  Elec       q    Type
REMARK                         _______ _______ _______ _____ _____    ______ ____
ROOT
ATOM      1  C   UNL A   1     -23.829  -3.396  28.729  0.00  0.00    +0.015 A 
ATOM      2  C   UNL A   1     -24.414  -2.598  29.094  0.00  0.00    +0.048 A 
ATOM      3  C   UNL A   1     -24.379  -4.750  28.903  0.00  0.00    +0.001 A 
ATOM      4  C   UNL A   1     -25.697  -4.937  29.411  0.00  0.00    +0.000 A 
ATOM      5  C   UNL A   1     -25.811  -2.517  29.600  0.00  0.00    +0.015 A 
ATOM      6  C   UNL A   1     -26.352  -3.755  29.784  0.00  0.00    +0.001 A 
ENDROOT
BRANCH   2   7
ATOM      7  N   UNL A   1     -23.706  -1.310  28.880  0.00  0.00    -0.307 N 
ATOM      8  C   UNL A   1     -22.595  -1.082  29.366  0.00  0.00    +0.091 C 
ATOM      9  C   UNL A   1     -21.860  -0.023  28.826  0.00  0.00    +0.021 C 
ATOM     10  C   UNL A   1     -24.244  -0.316  27.954  0.00  0.00    +0.091 C 
ATOM     11  C   UNL A   1     -23.548   0.721  27.506  0.00  0.00    +0.021 C 
ATOM     12  C   UNL A   1     -22.330   0.907  27.998  0.00  0.00    +0.004 C 
ENDBRANCH   2   7
TORSDOF 1
ENDMDL
ENDMDL
