MODEL 4572
MODEL 1
REMARK VINA RESULT:    -7.710      0.000      0.000
REMARK INTER + INTRA:          -9.484
REMARK INTER:                  -9.062
REMARK INTRA:                  -0.421
REMARK UNBOUND:                -0.421
REMARK  Name = No_4572-gen_results/8p0m/2024-11-26-14-13-15/
REMARK  3 active torsions:
REMARK  status: ('A' for Active; 'I' for Inactive)
REMARK    1  A    between atoms: C_6  and  C_14
REMARK    2  A    between atoms: C_9  and  C_11
REMARK    3  A    between atoms: C_17  and  C_18
REMARK                            x       y       z     vdW  Elec       q    Type
REMARK                         _______ _______ _______ _____ _____    ______ ____
ROOT
ATOM      1  C   UNL A   1      -6.883  -0.205  10.396  0.00  0.00    +0.007 A 
ATOM      2  C   UNL A   1      -7.555   0.666  10.897  0.00  0.00    +0.028 A 
ATOM      3  C   UNL A   1      -8.155   1.649  10.118  0.00  0.00    +0.002 A 
ATOM      4  C   UNL A   1      -7.957   1.686   8.691  0.00  0.00    +0.000 A 
ATOM      5  C   UNL A   1      -7.147   0.656   8.198  0.00  0.00    +0.005 A 
ATOM      6  C   UNL A   1      -6.589  -0.240   8.980  0.00  0.00    +0.056 A 
ATOM      7  C   UNL A   1      -7.842   0.799  12.351  0.00  0.00    +0.140 A 
ATOM      8  C   UNL A   1      -8.935   1.298  12.810  0.00  0.00    +0.029 A 
ATOM      9  C   UNL A   1      -9.638   2.355  11.966  0.00  0.00    +0.030 A 
ATOM     10  C   UNL A   1      -9.327   2.421  10.614  0.00  0.00    -0.000 A 
ATOM     11  F   UNL A   1      -6.801   0.822  13.002  0.00  0.00    -0.204 F 
ENDROOT
BRANCH   6  12
ATOM     12  C   UNL A   1      -5.629  -1.181   8.350  0.00  0.00    +0.272 C 
ATOM     13  N   UNL A   1      -4.372  -1.274   8.750  0.00  0.00    -0.137 NA
ATOM     14  O   UNL A   1      -5.868  -1.572   7.153  0.00  0.00    -0.268 OA
ATOM     15  C   UNL A   1      -3.306  -1.987   8.124  0.00  0.00    +0.272 C 
ATOM     16  O   UNL A   1      -2.890  -3.006   8.745  0.00  0.00    -0.268 OA
BRANCH  15  17
ATOM     17  C   UNL A   1      -2.816  -1.424   7.007  0.00  0.00    +0.056 A 
ATOM     18  C   UNL A   1      -1.985  -2.176   6.224  0.00  0.00    +0.007 A 
ATOM     19  C   UNL A   1      -1.298  -1.543   5.089  0.00  0.00    +0.030 A 
ATOM     20  C   UNL A   1      -1.477  -0.136   4.883  0.00  0.00    +0.140 A 
ATOM     21  C   UNL A   1      -2.278   0.594   5.760  0.00  0.00    +0.030 A 
ATOM     22  C   UNL A   1      -2.863  -0.006   6.837  0.00  0.00    +0.007 A 
ATOM     23  F   UNL A   1      -0.856   0.374   3.850  0.00  0.00    -0.204 F 
ENDBRANCH  15  17
ENDBRANCH   6  12
BRANCH   9  24
ATOM     24  C   UNL A   1     -10.686   3.191  12.536  0.00  0.00    +0.274 C 
ATOM     25  N   UNL A   1     -10.882   4.438  12.216  0.00  0.00    -0.090 NA
ATOM     26  F   UNL A   1     -11.342   2.677  13.505  0.00  0.00    -0.211 F 
ENDBRANCH   9  24
TORSDOF 3
ENDMDL
ENDMDL
