REMARK  Name = No_4572-gen_results/8p0m/2024-11-26-14-13-15/
REMARK  3 active torsions:
REMARK  status: ('A' for Active; 'I' for Inactive)
REMARK    1  A    between atoms: C_6  and  C_14
REMARK    2  A    between atoms: C_9  and  C_11
REMARK    3  A    between atoms: C_17  and  C_18
REMARK                            x       y       z     vdW  Elec       q    Type
REMARK                         _______ _______ _______ _____ _____    ______ ____
ROOT
ATOM      1  C   UNL A   1     -28.016  -0.814  28.878  0.00  0.00    +0.007 A 
ATOM      2  C   UNL A   1     -27.064  -0.119  28.608  0.00  0.00    +0.028 A 
ATOM      3  C   UNL A   1     -25.792  -0.430  29.076  0.00  0.00    +0.002 A 
ATOM      4  C   UNL A   1     -25.576  -1.565  29.936  0.00  0.00    +0.000 A 
ATOM      5  C   UNL A   1     -26.735  -2.300  30.217  0.00  0.00    +0.005 A 
ATOM      6  C   UNL A   1     -27.918  -1.954  29.763  0.00  0.00    +0.056 A 
ATOM      7  C   UNL A   1     -27.106   1.102  27.759  0.00  0.00    +0.140 A 
ATOM      8  C   UNL A   1     -26.122   1.482  27.023  0.00  0.00    +0.029 A 
ATOM      9  C   UNL A   1     -24.714   1.130  27.489  0.00  0.00    +0.030 A 
ATOM     10  C   UNL A   1     -24.572   0.097  28.407  0.00  0.00    -0.000 A 
ATOM     11  F   UNL A   1     -27.939   1.900  28.182  0.00  0.00    -0.204 F 
ENDROOT
BRANCH   6  12
ATOM     12  C   UNL A   1     -29.084  -2.725  30.262  0.00  0.00    +0.272 C 
ATOM     13  N   UNL A   1     -29.020  -4.027  30.489  0.00  0.00    -0.137 NA
ATOM     14  O   UNL A   1     -30.255  -2.249  30.050  0.00  0.00    -0.268 OA
ATOM     15  C   UNL A   1     -30.096  -4.916  30.785  0.00  0.00    +0.272 C 
ATOM     16  O   UNL A   1     -30.117  -5.378  31.962  0.00  0.00    -0.268 OA
BRANCH  15  17
ATOM     17  C   UNL A   1     -30.888  -5.226  29.745  0.00  0.00    +0.056 A 
ATOM     18  C   UNL A   1     -31.562  -6.415  29.788  0.00  0.00    +0.007 A 
ATOM     19  C   UNL A   1     -32.303  -6.865  28.600  0.00  0.00    +0.030 A 
ATOM     20  C   UNL A   1     -32.236  -6.066  27.412  0.00  0.00    +0.140 A 
ATOM     21  C   UNL A   1     -31.470  -4.901  27.406  0.00  0.00    +0.030 A 
ATOM     22  C   UNL A   1     -30.749  -4.531  28.504  0.00  0.00    +0.007 A 
ATOM     23  F   UNL A   1     -32.925  -6.503  26.390  0.00  0.00    -0.204 F 
ENDBRANCH  15  17
ENDBRANCH   6  12
BRANCH   9  24
ATOM     24  C   UNL A   1     -23.549   1.779  26.903  0.00  0.00    +0.274 C 
ATOM     25  N   UNL A   1     -23.504   2.239  25.685  0.00  0.00    -0.090 NA
ATOM     26  F   UNL A   1     -22.483   1.751  27.608  0.00  0.00    -0.211 F 
ENDBRANCH   9  24
TORSDOF 3
