REMARK  Name = No_4573-gen_results/8p0m/2024-11-26-14-13-15/
REMARK  1 active torsions:
REMARK  status: ('A' for Active; 'I' for Inactive)
REMARK    1  A    between atoms: C_11  and  C_12
REMARK                            x       y       z     vdW  Elec       q    Type
REMARK                         _______ _______ _______ _____ _____    ______ ____
ROOT
ATOM      1  C   UNL A   1     -28.016  -0.814  28.878  0.00  0.00    +0.000 A 
ATOM      2  C   UNL A   1     -28.469  -0.785  29.829  0.00  0.00    +0.000 A 
ATOM      3  C   UNL A   1     -27.136   0.236  28.535  0.00  0.00    +0.000 A 
ATOM      4  C   UNL A   1     -26.875   1.282  29.398  0.00  0.00    +0.003 A 
ATOM      5  C   UNL A   1     -27.507   1.238  30.630  0.00  0.00    +0.000 A 
ATOM      6  C   UNL A   1     -28.329   0.174  30.935  0.00  0.00    +0.000 A 
ATOM      7  C   UNL A   1     -26.408   0.307  27.226  0.00  0.00    -0.000 A 
ATOM      8  C   UNL A   1     -25.713   1.490  26.921  0.00  0.00    -0.004 A 
ATOM      9  C   UNL A   1     -25.455   2.491  27.886  0.00  0.00    -0.019 A 
ATOM     10  C   UNL A   1     -24.643   3.668  27.593  0.00  0.00    +0.031 C 
ATOM     11  C   UNL A   1     -26.106   2.399  29.167  0.00  0.00    +0.038 A 
ENDROOT
BRANCH  11  12
ATOM     12  C   UNL A   1     -25.800   3.484  30.153  0.00  0.00    +0.234 C 
ATOM     13  O   UNL A   1     -25.929   4.672  29.784  0.00  0.00    -0.283 OA
ENDBRANCH  11  12
TORSDOF 1
