REMARK  Name = No_4574-gen_results/8p0m/2024-11-26-14-13-15/
REMARK  2 active torsions:
REMARK  status: ('A' for Active; 'I' for Inactive)
REMARK    1  A    between atoms: C_2  and  C_7
REMARK    2  A    between atoms: C_3  and  C_11
REMARK                            x       y       z     vdW  Elec       q    Type
REMARK                         _______ _______ _______ _____ _____    ______ ____
ROOT
ATOM      1  C   UNL A   1     -25.636  -0.710  27.673  0.00  0.00    +0.253 C 
ATOM      2  N   UNL A   1     -25.951   0.079  26.679  0.00  0.00    -0.256 N 
ATOM      3  C   UNL A   1     -26.529   0.068  25.822  0.00  0.00    +0.050 A 
ATOM      4  C   UNL A   1     -27.360  -0.900  25.401  0.00  0.00    +0.015 A 
ATOM      5  C   UNL A   1     -28.230  -0.781  24.252  0.00  0.00    +0.001 A 
ATOM      6  C   UNL A   1     -28.283   0.454  23.634  0.00  0.00    -0.000 A 
ATOM      7  C   UNL A   1     -27.470   1.511  24.012  0.00  0.00    -0.003 A 
ATOM      8  C   UNL A   1     -26.640   1.422  25.115  0.00  0.00    -0.008 A 
ATOM      9  C   UNL A   1     -24.923   1.308  26.868  0.00  0.00    +0.099 C 
ATOM     10  C   UNL A   1     -25.290   2.364  26.444  0.00  0.00    +0.027 C 
ATOM     11  C   UNL A   1     -25.938   2.544  25.498  0.00  0.00    +0.029 C 
ATOM     12  O   UNL A   1     -24.640  -1.381  27.823  0.00  0.00    -0.270 OA
ENDROOT
BRANCH   1  15
ATOM     13  C   UNL A   1     -28.016  -0.814  28.878  0.00  0.00    +0.008 A 
ATOM     14  C   UNL A   1     -28.469  -0.785  29.829  0.00  0.00    +0.072 A 
ATOM     15  C   UNL A   1     -26.504  -0.778  28.877  0.00  0.00    +0.054 A 
ATOM     16  C   UNL A   1     -25.810  -0.853  30.103  0.00  0.00    +0.004 A 
ATOM     17  C   UNL A   1     -27.991  -0.892  31.226  0.00  0.00    +0.004 A 
ATOM     18  C   UNL A   1     -26.604  -0.868  31.265  0.00  0.00    +0.000 A 
BRANCH  14  19
ATOM     19  C   UNL A   1     -30.074  -0.836  29.861  0.00  0.00    +0.419 C 
ATOM     20  F   UNL A   1     -30.563  -0.024  30.807  0.00  0.00    -0.166 F 
ATOM     21  F   UNL A   1     -30.480  -2.089  30.056  0.00  0.00    -0.166 F 
ATOM     22  F   UNL A   1     -30.482  -0.458  28.686  0.00  0.00    -0.166 F 
ENDBRANCH  14  19
ENDBRANCH   1  15
TORSDOF 2
