REMARK  Name = No_4575-gen_results/8p0m/2024-11-26-14-13-15/
REMARK  8 active torsions:
REMARK  status: ('A' for Active; 'I' for Inactive)
REMARK    1  A    between atoms: C_3  and  C_13
REMARK    2  A    between atoms: C_5  and  C_8
REMARK    3  A    between atoms: N_9  and  C_11
REMARK    4  A    between atoms: C_14  and  C_15
REMARK    5  A    between atoms: C_19  and  C_25
REMARK    6  A    between atoms: N_26  and  C_27
REMARK    7  A    between atoms: C_27  and  P_29
REMARK    8  A    between atoms: C_28  and  C_34
REMARK                            x       y       z     vdW  Elec       q    Type
REMARK                         _______ _______ _______ _____ _____    ______ ____
ROOT
ATOM      1  C   UNL A   1     -27.826   1.977  29.737  0.00  0.00    +0.001 A 
ATOM      2  C   UNL A   1     -28.436   1.833  30.744  0.00  0.00    +0.000 A 
ATOM      3  C   UNL A   1     -28.108   3.051  28.763  0.00  0.00    +0.000 A 
ATOM      4  C   UNL A   1     -29.208   3.705  28.908  0.00  0.00    +0.000 A 
ATOM      5  C   UNL A   1     -29.948   3.568  30.136  0.00  0.00    +0.000 A 
ATOM      6  C   UNL A   1     -29.594   2.689  31.091  0.00  0.00    +0.000 A 
ENDROOT
BRANCH   1   9
ATOM      7 CL   UNL A   1     -28.149  -0.820  28.908  0.00  0.00    -0.082 Cl
ATOM      8  C   UNL A   1     -26.912  -0.080  28.945  0.00  0.00    +0.058 A 
ATOM      9  C   UNL A   1     -26.738   1.044  29.253  0.00  0.00    +0.011 A 
ATOM     10  C   UNL A   1     -25.439   1.712  29.276  0.00  0.00    +0.005 A 
ATOM     11  C   UNL A   1     -24.281   0.989  28.854  0.00  0.00    +0.055 A 
ATOM     12  C   UNL A   1     -24.487  -0.304  28.496  0.00  0.00    +0.005 A 
ATOM     13  C   UNL A   1     -25.705  -0.867  28.524  0.00  0.00    +0.011 A 
BRANCH  11  14
ATOM     14  C   UNL A   1     -22.969   1.635  28.798  0.00  0.00    +0.269 C 
ATOM     15  N   UNL A   1     -21.893   0.937  28.540  0.00  0.00    -0.174 NA
ATOM     16  O   UNL A   1     -22.913   2.905  28.666  0.00  0.00    -0.268 OA
BRANCH  15  17
ATOM     17  C   UNL A   1     -21.720  -0.445  28.706  0.00  0.00    +0.089 C 
ATOM     18  C   UNL A   1     -20.474  -0.694  29.240  0.00  0.00    +0.019 C 
ENDBRANCH  15  17
ENDBRANCH  11  14
ENDBRANCH   1   9
BRANCH   2  19
ATOM     19  C   UNL A   1     -28.085   0.830  31.789  0.00  0.00    +0.000 A 
ATOM     20  C   UNL A   1     -26.924   0.469  32.025  0.00  0.00    +0.000 A 
ATOM     21  C   UNL A   1     -26.595  -0.421  33.207  0.00  0.00    +0.000 A 
ATOM     22  C   UNL A   1     -27.688  -0.872  33.882  0.00  0.00    +0.005 A 
ATOM     23  C   UNL A   1     -28.945  -0.549  33.612  0.00  0.00    +0.055 A 
ATOM     24  C   UNL A   1     -29.215   0.349  32.624  0.00  0.00    +0.005 A 
BRANCH  23  25
ATOM     25  C   UNL A   1     -30.071  -1.065  34.442  0.00  0.00    +0.269 C 
ATOM     26  N   UNL A   1     -30.451  -0.456  35.398  0.00  0.00    -0.173 NA
ATOM     27  O   UNL A   1     -30.530  -2.219  34.194  0.00  0.00    -0.268 OA
BRANCH  26  28
ATOM     28  C   UNL A   1     -31.193   0.069  35.906  0.00  0.00    +0.102 C 
ATOM     29  C   UNL A   1     -32.484   0.133  35.270  0.00  0.00    +0.019 C 
BRANCH  28  30
ATOM     30  P   UNL A   1     -31.108   1.171  37.374  0.00  0.00    +0.155 P 
ATOM     31  O   UNL A   1     -32.120   1.510  37.896  0.00  0.00    -0.353 OA
ATOM     32  O   UNL A   1     -30.224   2.326  36.914  0.00  0.00    -0.454 OA
ATOM     33  O   UNL A   1     -30.140   0.243  38.223  0.00  0.00    -0.353 OA
ENDBRANCH  28  30
BRANCH  29  34
ATOM     34  C   UNL A   1     -33.257  -0.946  35.350  0.00  0.00    +0.001 C 
ATOM     35  C   UNL A   1     -33.289  -1.719  36.345  0.00  0.00    +0.000 C 
ENDBRANCH  29  34
ENDBRANCH  26  28
ENDBRANCH  23  25
ENDBRANCH   2  19
TORSDOF 8
