MODEL 4575
MODEL 1
REMARK VINA RESULT:    -7.955      0.000      0.000
REMARK INTER + INTRA:         -14.333
REMARK INTER:                 -11.675
REMARK INTRA:                  -2.658
REMARK UNBOUND:                -2.658
REMARK  Name = No_4575-gen_results/8p0m/2024-11-26-14-13-15/
REMARK  8 active torsions:
REMARK  status: ('A' for Active; 'I' for Inactive)
REMARK    1  A    between atoms: C_3  and  C_13
REMARK    2  A    between atoms: C_5  and  C_8
REMARK    3  A    between atoms: N_9  and  C_11
REMARK    4  A    between atoms: C_14  and  C_15
REMARK    5  A    between atoms: C_19  and  C_25
REMARK    6  A    between atoms: N_26  and  C_27
REMARK    7  A    between atoms: C_27  and  P_29
REMARK    8  A    between atoms: C_28  and  C_34
REMARK                            x       y       z     vdW  Elec       q    Type
REMARK                         _______ _______ _______ _____ _____    ______ ____
ROOT
ATOM      1  C   UNL A   1     -31.802 -14.873   9.762  0.00  0.00    +0.001 A 
ATOM      2  C   UNL A   1     -31.354 -15.371   8.784  0.00  0.00    +0.000 A 
ATOM      3  C   UNL A   1     -33.214 -15.015  10.172  0.00  0.00    +0.000 A 
ATOM      4  C   UNL A   1     -34.033 -15.503   9.307  0.00  0.00    +0.000 A 
ATOM      5  C   UNL A   1     -33.508 -16.140   8.126  0.00  0.00    +0.000 A 
ATOM      6  C   UNL A   1     -32.195 -16.138   7.836  0.00  0.00    +0.000 A 
ENDROOT
BRANCH   1   9
ATOM      7 CL   UNL A   1     -30.113 -15.664  12.029  0.00  0.00    -0.082 Cl
ATOM      8  C   UNL A   1     -30.379 -14.315  11.595  0.00  0.00    +0.058 A 
ATOM      9  C   UNL A   1     -31.034 -13.952  10.684  0.00  0.00    +0.011 A 
ATOM     10  C   UNL A   1     -31.263 -12.555  10.325  0.00  0.00    +0.005 A 
ATOM     11  C   UNL A   1     -30.621 -11.530  11.086  0.00  0.00    +0.055 A 
ATOM     12  C   UNL A   1     -29.864 -11.953  12.130  0.00  0.00    +0.005 A 
ATOM     13  C   UNL A   1     -29.717 -13.254  12.425  0.00  0.00    +0.011 A 
BRANCH  11  14
ATOM     14  C   UNL A   1     -30.768 -10.120  10.724  0.00  0.00    +0.269 C 
ATOM     15  N   UNL A   1     -30.089  -9.613   9.726  0.00  0.00    -0.174 NA
ATOM     16  O   UNL A   1     -31.786  -9.477  11.151  0.00  0.00    -0.268 OA
BRANCH  15  17
ATOM     17  C   UNL A   1     -28.901 -10.110   9.171  0.00  0.00    +0.089 C 
ATOM     18  C   UNL A   1     -27.886  -9.196   9.357  0.00  0.00    +0.019 C 
ENDBRANCH  15  17
ENDBRANCH  11  14
ENDBRANCH   1   9
BRANCH   2  19
ATOM     19  C   UNL A   1     -29.908 -15.335   8.423  0.00  0.00    +0.000 A 
ATOM     20  C   UNL A   1     -29.368 -14.370   7.867  0.00  0.00    +0.000 A 
ATOM     21  C   UNL A   1     -27.866 -14.304   7.674  0.00  0.00    +0.000 A 
ATOM     22  C   UNL A   1     -27.209 -15.437   8.047  0.00  0.00    +0.005 A 
ATOM     23  C   UNL A   1     -27.772 -16.507   8.589  0.00  0.00    +0.055 A 
ATOM     24  C   UNL A   1     -29.105 -16.502   8.869  0.00  0.00    +0.005 A 
BRANCH  23  25
ATOM     25  C   UNL A   1     -26.955 -17.684   9.004  0.00  0.00    +0.269 C 
ATOM     26  N   UNL A   1     -27.064 -18.731   8.437  0.00  0.00    -0.173 NA
ATOM     27  O   UNL A   1     -26.241 -17.591  10.046  0.00  0.00    -0.268 OA
BRANCH  26  28
ATOM     28  C   UNL A   1     -26.664 -19.496   7.856  0.00  0.00    +0.102 C 
ATOM     29  C   UNL A   1     -27.572 -20.542   7.459  0.00  0.00    +0.019 C 
BRANCH  28  30
ATOM     30  P   UNL A   1     -24.925 -19.915   7.434  0.00  0.00    +0.155 P 
ATOM     31  O   UNL A   1     -24.713 -20.864   6.752  0.00  0.00    -0.353 OA
ATOM     32  O   UNL A   1     -24.218 -19.946   8.786  0.00  0.00    -0.454 OA
ATOM     33  O   UNL A   1     -24.555 -18.497   6.824  0.00  0.00    -0.353 OA
ENDBRANCH  28  30
BRANCH  29  34
ATOM     34  C   UNL A   1     -28.405 -20.279   6.457  0.00  0.00    +0.001 C 
ATOM     35  C   UNL A   1     -29.571 -20.747   6.367  0.00  0.00    +0.000 C 
ENDBRANCH  29  34
ENDBRANCH  26  28
ENDBRANCH  23  25
ENDBRANCH   2  19
TORSDOF 8
ENDMDL
ENDMDL
