REMARK  Name = No_4576-gen_results/8p0m/2024-11-26-14-13-15/
REMARK  1 active torsions:
REMARK  status: ('A' for Active; 'I' for Inactive)
REMARK    1  A    between atoms: C_7  and  C_15
REMARK                            x       y       z     vdW  Elec       q    Type
REMARK                         _______ _______ _______ _____ _____    ______ ____
ROOT
ATOM      1  C   UNL A   1     -28.016  -0.814  28.878  0.00  0.00    -0.000 A 
ATOM      2  C   UNL A   1     -27.064  -0.119  28.608  0.00  0.00    -0.000 A 
ATOM      3  C   UNL A   1     -25.792  -0.430  29.076  0.00  0.00    -0.000 A 
ATOM      4  C   UNL A   1     -25.576  -1.565  29.936  0.00  0.00    -0.000 A 
ATOM      5  C   UNL A   1     -26.735  -2.300  30.217  0.00  0.00    +0.000 A 
ATOM      6  C   UNL A   1     -27.918  -1.954  29.763  0.00  0.00    -0.000 A 
ATOM      7  C   UNL A   1     -27.106   1.102  27.759  0.00  0.00    -0.000 A 
ATOM      8  C   UNL A   1     -26.122   1.482  27.023  0.00  0.00    -0.000 A 
ATOM      9  C   UNL A   1     -26.093   2.619  26.181  0.00  0.00    -0.000 A 
ATOM     10  C   UNL A   1     -24.898   3.156  25.610  0.00  0.00    -0.000 A 
ATOM     11  C   UNL A   1     -23.683   2.442  25.846  0.00  0.00    +0.000 A 
ATOM     12  C   UNL A   1     -23.691   1.325  26.699  0.00  0.00    -0.000 A 
ATOM     13  C   UNL A   1     -24.810   0.859  27.280  0.00  0.00    -0.000 A 
ATOM     14  C   UNL A   1     -24.716  -0.167  28.291  0.00  0.00    -0.000 A 
ENDROOT
BRANCH   7  15
ATOM     15  C   UNL A   1     -28.498   1.575  27.471  0.00  0.00    -0.005 C 
ATOM     16  C   UNL A   1     -29.257   1.027  26.586  0.00  0.00    -0.026 C 
ATOM     17  C   UNL A   1     -30.533   1.524  26.348  0.00  0.00    +0.031 C 
ENDBRANCH   7  15
TORSDOF 1
