MODEL 4576
MODEL 1
REMARK VINA RESULT:    -6.929      0.000      0.000
REMARK INTER + INTRA:          -7.473
REMARK INTER:                  -7.334
REMARK INTRA:                  -0.139
REMARK UNBOUND:                -0.139
REMARK  Name = No_4576-gen_results/8p0m/2024-11-26-14-13-15/
REMARK  1 active torsions:
REMARK  status: ('A' for Active; 'I' for Inactive)
REMARK    1  A    between atoms: C_7  and  C_15
REMARK                            x       y       z     vdW  Elec       q    Type
REMARK                         _______ _______ _______ _____ _____    ______ ____
ROOT
ATOM      1  C   UNL A   1     -23.839  -3.375  28.852  0.00  0.00    -0.000 A 
ATOM      2  C   UNL A   1     -24.607  -2.551  29.292  0.00  0.00    -0.000 A 
ATOM      3  C   UNL A   1     -25.866  -2.917  29.755  0.00  0.00    -0.000 A 
ATOM      4  C   UNL A   1     -26.313  -4.285  29.683  0.00  0.00    -0.000 A 
ATOM      5  C   UNL A   1     -25.371  -5.167  29.139  0.00  0.00    +0.000 A 
ATOM      6  C   UNL A   1     -24.200  -4.767  28.700  0.00  0.00    -0.000 A 
ATOM      7  C   UNL A   1     -24.326  -1.095  29.416  0.00  0.00    -0.000 A 
ATOM      8  C   UNL A   1     -24.826  -0.358  30.344  0.00  0.00    -0.000 A 
ATOM      9  C   UNL A   1     -24.594   1.025  30.535  0.00  0.00    -0.000 A 
ATOM     10  C   UNL A   1     -25.382   1.854  31.392  0.00  0.00    -0.000 A 
ATOM     11  C   UNL A   1     -26.407   1.215  32.156  0.00  0.00    +0.000 A 
ATOM     12  C   UNL A   1     -26.666  -0.153  31.961  0.00  0.00    -0.000 A 
ATOM     13  C   UNL A   1     -25.957  -0.915  31.109  0.00  0.00    -0.000 A 
ATOM     14  C   UNL A   1     -26.399  -2.257  30.816  0.00  0.00    -0.000 A 
ENDROOT
BRANCH   7  15
ATOM     15  C   UNL A   1     -23.087  -0.668  28.690  0.00  0.00    -0.005 C 
ATOM     16  C   UNL A   1     -21.941  -0.549  29.267  0.00  0.00    -0.026 C 
ATOM     17  C   UNL A   1     -20.830  -0.127  28.545  0.00  0.00    +0.031 C 
ENDBRANCH   7  15
TORSDOF 1
ENDMDL
ENDMDL
