MODEL 4577
MODEL 1
REMARK VINA RESULT:    -4.196      0.000      0.000
REMARK INTER + INTRA:          -4.196
REMARK INTER:                  -4.196
REMARK INTRA:                   0.000
REMARK UNBOUND:                 0.000
REMARK  Name = No_4577-gen_results/8p0m/2024-11-26-14-13-15/
REMARK  0 active torsions:
REMARK  status: ('A' for Active; 'I' for Inactive)
REMARK                            x       y       z     vdW  Elec       q    Type
REMARK                         _______ _______ _______ _____ _____    ______ ____
ROOT
ATOM      1  C   UNL A   1     -24.724  -2.597  29.443  0.00  0.00    +0.000 A 
ATOM      2  C   UNL A   1     -24.048  -3.187  28.889  0.00  0.00    +0.000 A 
ATOM      3  C   UNL A   1     -25.967  -3.253  29.877  0.00  0.00    +0.000 A 
ATOM      4  C   UNL A   1     -26.161  -4.650  29.671  0.00  0.00    +0.000 A 
ATOM      5  C   UNL A   1     -23.983  -4.644  28.593  0.00  0.00    +0.000 A 
ATOM      6  C   UNL A   1     -25.124  -5.285  28.972  0.00  0.00    +0.000 A 
ENDROOT
TORSDOF 0
ENDMDL
ENDMDL
