REMARK  Name = No_4578-gen_results/8p0m/2024-11-26-14-13-15/
REMARK  7 active torsions:
REMARK  status: ('A' for Active; 'I' for Inactive)
REMARK    1  A    between atoms: C_2  and  C_3
REMARK    2  A    between atoms: N_4  and  C_10
REMARK    3  A    between atoms: N_4  and  C_11
REMARK    4  A    between atoms: C_6  and  C_20
REMARK    5  A    between atoms: C_15  and  C_17
REMARK    6  A    between atoms: C_23  and  C_24
REMARK    7  A    between atoms: C_24  and  C_25
REMARK                            x       y       z     vdW  Elec       q    Type
REMARK                         _______ _______ _______ _____ _____    ______ ____
ROOT
ATOM      1  O   UNL A   1     -28.123  -1.335  28.487  0.00  0.00    -0.269 OA
ATOM      2  C   UNL A   1     -27.481  -0.404  28.709  0.00  0.00    +0.257 C 
ATOM      3  N   UNL A   1     -27.666   0.447  29.899  0.00  0.00    -0.233 N 
ENDROOT
BRANCH   2   4
ATOM      4  C   UNL A   1     -26.380  -0.087  27.939  0.00  0.00    +0.054 A 
ATOM      5  C   UNL A   1     -26.409   0.857  26.880  0.00  0.00    +0.004 A 
ATOM      6  C   UNL A   1     -25.082  -0.697  28.170  0.00  0.00    +0.000 A 
ATOM      7  C   UNL A   1     -25.284   1.049  26.047  0.00  0.00    +0.000 A 
ATOM      8  C   UNL A   1     -23.916  -0.344  27.444  0.00  0.00    -0.000 A 
ATOM      9  C   UNL A   1     -24.062   0.529  26.371  0.00  0.00    -0.000 A 
BRANCH   6  10
ATOM     10  C   UNL A   1     -24.847  -1.609  29.301  0.00  0.00    -0.022 C 
ATOM     11  C   UNL A   1     -23.779  -2.104  29.747  0.00  0.00    -0.005 C 
ATOM     12  C   UNL A   1     -26.090  -2.281  29.867  0.00  0.00    +0.031 C 
ENDBRANCH   6  10
ENDBRANCH   2   4
BRANCH   3  13
ATOM     13  C   UNL A   1     -26.845   1.525  30.221  0.00  0.00    +0.059 A 
ATOM     14  C   UNL A   1     -26.088   1.482  31.046  0.00  0.00    +0.015 A 
ATOM     15  C   UNL A   1     -25.075   2.603  31.274  0.00  0.00    +0.002 A 
ATOM     16  C   UNL A   1     -25.108   3.622  30.358  0.00  0.00    +0.007 A 
ATOM     17  C   UNL A   1     -25.997   3.576  29.271  0.00  0.00    +0.081 A 
ATOM     18  C   UNL A   1     -26.898   2.505  29.162  0.00  0.00    +0.022 A 
BRANCH  17  19
ATOM     19  C   UNL A   1     -25.883   4.707  28.314  0.00  0.00    +0.388 C 
ATOM     20  O   UNL A   1     -25.225   4.775  27.509  0.00  0.00    -0.241 OA
ATOM     21  O   UNL A   1     -27.100   5.469  28.337  0.00  0.00    -0.241 OA
ENDBRANCH  17  19
ENDBRANCH   3  13
BRANCH   3  22
ATOM     22  C   UNL A   1     -28.778   0.103  30.787  0.00  0.00    +0.068 C 
ATOM     23  C   UNL A   1     -28.574   0.355  31.940  0.00  0.00    -0.005 C 
BRANCH  23  24
ATOM     24  C   UNL A   1     -29.104   0.229  33.013  0.00  0.00    +0.053 C 
BRANCH  24  25
ATOM     25  C   UNL A   1     -28.738   0.491  34.411  0.00  0.00    -0.026 C 
ATOM     26  C   UNL A   1     -27.461   0.954  34.617  0.00  0.00    -0.030 C 
ATOM     27  C   UNL A   1     -26.649   1.155  33.527  0.00  0.00    +0.030 C 
ENDBRANCH  24  25
ENDBRANCH  23  24
ENDBRANCH   3  22
TORSDOF 7
