MODEL 4579
MODEL 1
REMARK VINA RESULT:    -4.360      0.000      0.000
REMARK INTER + INTRA:          -4.360
REMARK INTER:                  -4.360
REMARK INTRA:                   0.000
REMARK UNBOUND:                 0.000
REMARK  Name = No_4579-gen_results/8p0m/2024-11-26-14-13-15/
REMARK  0 active torsions:
REMARK  status: ('A' for Active; 'I' for Inactive)
REMARK                            x       y       z     vdW  Elec       q    Type
REMARK                         _______ _______ _______ _____ _____    ______ ____
ROOT
ATOM      1  C   UNL A   1     -25.347  -2.526  29.841  0.00  0.00    +0.011 A 
ATOM      2  C   UNL A   1     -24.341  -2.908  29.290  0.00  0.00    +0.058 A 
ATOM      3  C   UNL A   1     -24.065  -4.111  28.873  0.00  0.00    +0.011 A 
ATOM      4  C   UNL A   1     -25.038  -5.134  29.084  0.00  0.00    +0.001 A 
ATOM      5  C   UNL A   1     -26.428  -3.483  29.987  0.00  0.00    +0.001 A 
ATOM      6  C   UNL A   1     -26.221  -4.742  29.603  0.00  0.00    +0.000 A 
ATOM      7 CL   UNL A   1     -23.040  -1.745  28.976  0.00  0.00    -0.082 Cl
ENDROOT
TORSDOF 0
ENDMDL
ENDMDL
