MODEL 457
MODEL 1
REMARK VINA RESULT:    -6.442      0.000      0.000
REMARK INTER + INTRA:         -14.946
REMARK INTER:                 -10.585
REMARK INTRA:                  -4.362
REMARK UNBOUND:                -4.362
REMARK  Name = No_457-gen_results/8p0m/2024-11-26-14-13-15/
REMARK  11 active torsions:
REMARK  status: ('A' for Active; 'I' for Inactive)
REMARK    1  A    between atoms: C_2  and  O_7
REMARK    2  A    between atoms: C_4  and  C_28
REMARK    3  A    between atoms: C_5  and  C_16
REMARK    4  A    between atoms: O_7  and  C_8
REMARK    5  A    between atoms: C_8  and  C_9
REMARK    6  A    between atoms: C_10  and  C_19
REMARK    7  A    between atoms: C_19  and  O_21
REMARK    8  A    between atoms: O_21  and  C_22
REMARK    9  A    between atoms: C_28  and  C_29
REMARK   10  A    between atoms: C_30  and  C_31
REMARK   11  A    between atoms: C_32  and  C_33
REMARK                            x       y       z     vdW  Elec       q    Type
REMARK                         _______ _______ _______ _____ _____    ______ ____
ROOT
ATOM      1  O   UNL A   1     -31.908  -9.699   8.298  0.00  0.00    -0.421 OA
ENDROOT
BRANCH   1   3
ATOM      2  C   UNL A   1     -30.647 -11.428   7.879  0.00  0.00    +0.044 A 
ATOM      3  C   UNL A   1     -31.053 -10.723   8.773  0.00  0.00    +0.149 A 
ATOM      4  C   UNL A   1     -30.731 -10.765  10.034  0.00  0.00    +0.034 A 
ATOM      5  C   UNL A   1     -29.797 -11.760  10.456  0.00  0.00    -0.015 A 
ATOM      6  C   UNL A   1     -29.609 -12.387   8.209  0.00  0.00    +0.083 A 
ATOM      7  C   UNL A   1     -29.235 -12.508   9.483  0.00  0.00    +0.003 A 
BRANCH   6   8
ATOM      8  C   UNL A   1     -28.999 -13.223   7.108  0.00  0.00    +0.388 C 
ATOM      9  O   UNL A   1     -28.599 -12.877   6.100  0.00  0.00    -0.241 OA
ATOM     10  O   UNL A   1     -28.727 -14.441   7.553  0.00  0.00    -0.241 OA
ENDBRANCH   6   8
BRANCH   5  11
ATOM     11  C   UNL A   1     -29.377 -11.915  11.893  0.00  0.00    +0.052 C 
BRANCH  11  12
ATOM     12  C   UNL A   1     -30.437 -12.233  12.772  0.00  0.00    -0.021 C 
ATOM     13  C   UNL A   1     -30.641 -13.566  13.015  0.00  0.00    -0.004 C 
BRANCH  13  14
ATOM     14  C   UNL A   1     -29.729 -14.556  12.596  0.00  0.00    -0.000 C 
ATOM     15  C   UNL A   1     -30.051 -15.425  11.515  0.00  0.00    -0.000 C 
BRANCH  15  16
ATOM     16  C   UNL A   1     -31.255 -15.231  10.911  0.00  0.00    -0.000 C 
ATOM     17  C   UNL A   1     -31.521 -15.386   9.618  0.00  0.00    -0.000 C 
ENDBRANCH  15  16
ENDBRANCH  13  14
ENDBRANCH  11  12
ENDBRANCH   5  11
ENDBRANCH   1   3
BRANCH   1  18
ATOM     18  C   UNL A   1     -31.389  -8.400   8.135  0.00  0.00    +0.346 C 
ATOM     19  O   UNL A   1     -31.201  -8.049   6.886  0.00  0.00    -0.244 OA
BRANCH  18  20
ATOM     20  C   UNL A   1     -31.350  -7.540   9.228  0.00  0.00    +0.082 A 
ATOM     21  C   UNL A   1     -30.683  -6.678   9.519  0.00  0.00    +0.082 A 
ATOM     22  C   UNL A   1     -30.944  -5.749  10.603  0.00  0.00    +0.007 A 
ATOM     23  C   UNL A   1     -32.130  -5.872  11.347  0.00  0.00    +0.000 A 
ATOM     24  C   UNL A   1     -33.019  -6.848  10.958  0.00  0.00    +0.000 A 
ATOM     25  C   UNL A   1     -32.660  -7.601   9.962  0.00  0.00    +0.007 A 
BRANCH  21  26
ATOM     26  C   UNL A   1     -29.322  -6.394   8.833  0.00  0.00    +0.346 C 
ATOM     27  O   UNL A   1     -29.169  -5.456   8.177  0.00  0.00    -0.244 OA
BRANCH  26  28
ATOM     28  O   UNL A   1     -28.224  -6.917   9.400  0.00  0.00    -0.421 OA
BRANCH  28  29
ATOM     29  C   UNL A   1     -27.709  -8.078   8.989  0.00  0.00    +0.149 A 
ATOM     30  C   UNL A   1     -27.746  -8.309   7.547  0.00  0.00    +0.038 A 
ATOM     31  C   UNL A   1     -27.336  -9.526   7.002  0.00  0.00    +0.003 A 
ATOM     32  C   UNL A   1     -26.686 -10.437   7.887  0.00  0.00    +0.000 A 
ATOM     33  C   UNL A   1     -26.622 -10.182   9.232  0.00  0.00    +0.003 A 
ATOM     34  C   UNL A   1     -27.127  -9.037   9.764  0.00  0.00    +0.038 A 
ENDBRANCH  28  29
ENDBRANCH  26  28
ENDBRANCH  21  26
ENDBRANCH  18  20
ENDBRANCH   1  18
TORSDOF 11
ENDMDL
ENDMDL
