REMARK  Name = No_458-gen_results/8p0m/2024-11-26-14-13-15/
REMARK  2 active torsions:
REMARK  status: ('A' for Active; 'I' for Inactive)
REMARK    1  A    between atoms: C_2  and  C_8
REMARK    2  A    between atoms: N_10  and  C_11
REMARK                            x       y       z     vdW  Elec       q    Type
REMARK                         _______ _______ _______ _____ _____    ______ ____
ROOT
ATOM      1  C   UNL A   1     -28.016  -0.814  28.878  0.00  0.00    +0.007 A 
ATOM      2  C   UNL A   1     -27.064  -0.119  28.608  0.00  0.00    +0.055 A 
ATOM      3  C   UNL A   1     -26.972   0.714  27.506  0.00  0.00    +0.007 A 
ATOM      4  C   UNL A   1     -28.105   0.774  26.642  0.00  0.00    +0.030 A 
ATOM      5  C   UNL A   1     -29.201   0.104  27.053  0.00  0.00    +0.140 A 
ATOM      6  C   UNL A   1     -29.210  -0.603  28.185  0.00  0.00    +0.030 A 
ATOM      7  F   UNL A   1     -30.281   0.216  26.291  0.00  0.00    -0.204 F 
ENDROOT
BRANCH   2   8
ATOM      8  C   UNL A   1     -25.716  -0.214  29.408  0.00  0.00    +0.265 C 
ATOM      9  O   UNL A   1     -24.683  -0.180  28.880  0.00  0.00    -0.268 OA
ATOM     10  N   UNL A   1     -25.769  -0.004  30.763  0.00  0.00    -0.202 NA
BRANCH  10  11
ATOM     11  C   UNL A   1     -24.609  -0.055  31.548  0.00  0.00    +0.116 C 
ATOM     12  C   UNL A   1     -23.579  -0.127  30.954  0.00  0.00    +0.025 C 
ENDBRANCH  10  11
ENDBRANCH   2   8
TORSDOF 2
