REMARK  Name = No_4580-gen_results/8p0m/2024-11-26-14-13-15/
REMARK  4 active torsions:
REMARK  status: ('A' for Active; 'I' for Inactive)
REMARK    1  A    between atoms: C_6  and  C_8
REMARK    2  A    between atoms: N_9  and  C_11
REMARK    3  A    between atoms: C_13  and  C_14
REMARK    4  A    between atoms: C_14  and  C_15
REMARK                            x       y       z     vdW  Elec       q    Type
REMARK                         _______ _______ _______ _____ _____    ______ ____
ROOT
ATOM      1  C   UNL A   1     -29.033  -2.814  30.151  0.00  0.00    +0.253 C 
ATOM      2  N   UNL A   1     -30.207  -2.250  30.277  0.00  0.00    -0.253 N 
ATOM      3  O   UNL A   1     -28.883  -4.025  30.398  0.00  0.00    -0.270 OA
ATOM      4  C   UNL A   1     -31.099  -3.099  31.160  0.00  0.00    +0.120 C 
ENDROOT
BRANCH   1  10
ATOM      5  C   UNL A   1     -28.016  -0.814  28.878  0.00  0.00    +0.007 A 
ATOM      6  C   UNL A   1     -27.064  -0.119  28.608  0.00  0.00    +0.030 A 
ATOM      7  C   UNL A   1     -25.765  -0.390  29.036  0.00  0.00    +0.140 A 
ATOM      8  C   UNL A   1     -25.530  -1.530  29.901  0.00  0.00    +0.030 A 
ATOM      9  C   UNL A   1     -26.689  -2.289  30.181  0.00  0.00    +0.007 A 
ATOM     10  C   UNL A   1     -27.873  -1.951  29.737  0.00  0.00    +0.054 A 
ATOM     11  F   UNL A   1     -24.699   0.360  28.775  0.00  0.00    -0.204 F 
ENDBRANCH   1  10
BRANCH   2  12
ATOM     12  C   UNL A   1     -30.521  -0.914  30.193  0.00  0.00    +0.064 C 
ATOM     13  C   UNL A   1     -30.918  -0.261  31.411  0.00  0.00    -0.005 C 
BRANCH  13  14
ATOM     14  C   UNL A   1     -30.293   0.208  32.127  0.00  0.00    +0.053 C 
BRANCH  14  15
ATOM     15  C   UNL A   1     -30.704   0.767  33.455  0.00  0.00    -0.026 C 
ATOM     16  C   UNL A   1     -32.027   0.745  33.700  0.00  0.00    -0.030 C 
ATOM     17  C   UNL A   1     -32.844   0.175  32.788  0.00  0.00    +0.030 C 
ENDBRANCH  14  15
ENDBRANCH  13  14
ENDBRANCH   2  12
TORSDOF 4
