MODEL 4581
MODEL 1
REMARK VINA RESULT:    -7.802      0.000      0.000
REMARK INTER + INTRA:         -11.612
REMARK INTER:                  -9.626
REMARK INTRA:                  -1.986
REMARK UNBOUND:                -1.986
REMARK  Name = No_4581-gen_results/8p0m/2024-11-26-14-13-15/
REMARK  4 active torsions:
REMARK  status: ('A' for Active; 'I' for Inactive)
REMARK    1  A    between atoms: C_2  and  C_20
REMARK    2  A    between atoms: C_3  and  C_7
REMARK    3  A    between atoms: C_6  and  C_24
REMARK    4  A    between atoms: C_10  and  C_14
REMARK                            x       y       z     vdW  Elec       q    Type
REMARK                         _______ _______ _______ _____ _____    ______ ____
ROOT
ATOM      1  C   UNL A   1     -23.307   0.110  28.288  0.00  0.00    +0.028 A 
ATOM      2  C   UNL A   1     -22.133   0.133  28.592  0.00  0.00    +0.140 A 
ATOM      3  C   UNL A   1     -21.300   1.307  28.245  0.00  0.00    +0.030 A 
ATOM      4  C   UNL A   1     -23.605   0.782  27.081  0.00  0.00    +0.003 A 
ATOM      5  C   UNL A   1     -22.816   1.733  26.506  0.00  0.00    +0.000 A 
ATOM      6  C   UNL A   1     -21.588   1.999  27.138  0.00  0.00    +0.002 A 
ATOM      7  F   UNL A   1     -21.697  -0.400  29.767  0.00  0.00    -0.204 F 
ENDROOT
BRANCH   4   8
ATOM      8  C   UNL A   1     -24.991   0.619  26.389  0.00  0.00    +0.011 A 
ATOM      9  C   UNL A   1     -26.026   1.488  26.853  0.00  0.00    +0.058 A 
ATOM     10  C   UNL A   1     -25.243  -0.345  25.466  0.00  0.00    +0.001 A 
ATOM     11  C   UNL A   1     -26.065  -0.587  24.911  0.00  0.00    +0.000 A 
ATOM     12  C   UNL A   1     -27.297   0.323  25.092  0.00  0.00    +0.001 A 
ATOM     13  C   UNL A   1     -27.176   1.335  26.043  0.00  0.00    +0.011 A 
ATOM     14 CL   UNL A   1     -25.943   2.729  27.945  0.00  0.00    -0.082 Cl
ENDBRANCH   4   8
BRANCH   1  17
ATOM     15  C   UNL A   1     -23.946  -2.357  28.553  0.00  0.00    +0.007 A 
ATOM     16  C   UNL A   1     -24.645  -3.057  28.917  0.00  0.00    +0.080 A 
ATOM     17  C   UNL A   1     -24.235  -0.986  28.727  0.00  0.00    +0.002 A 
ATOM     18  C   UNL A   1     -25.396  -0.555  29.338  0.00  0.00    +0.004 A 
ATOM     19  C   UNL A   1     -25.940  -2.868  29.600  0.00  0.00    +0.010 A 
ATOM     20  C   UNL A   1     -26.256  -1.567  29.785  0.00  0.00    +0.072 A 
BRANCH  20  21
ATOM     21  C   UNL A   1     -27.557  -1.193  30.438  0.00  0.00    +0.419 C 
ATOM     22  F   UNL A   1     -28.609  -1.547  30.007  0.00  0.00    -0.166 F 
ATOM     23  F   UNL A   1     -27.556   0.222  30.498  0.00  0.00    -0.166 F 
ATOM     24  F   UNL A   1     -27.451  -1.484  31.796  0.00  0.00    -0.166 F 
ENDBRANCH  20  21
BRANCH  16  25
ATOM     25  C   UNL A   1     -24.375  -4.657  28.778  0.00  0.00    +0.388 C 
ATOM     26  O   UNL A   1     -23.635  -5.023  28.043  0.00  0.00    -0.241 OA
ATOM     27  O   UNL A   1     -25.276  -5.463  29.304  0.00  0.00    -0.241 OA
ENDBRANCH  16  25
ENDBRANCH   1  17
TORSDOF 4
ENDMDL
ENDMDL
