REMARK  Name = No_4581-gen_results/8p0m/2024-11-26-14-13-15/
REMARK  4 active torsions:
REMARK  status: ('A' for Active; 'I' for Inactive)
REMARK    1  A    between atoms: C_2  and  C_20
REMARK    2  A    between atoms: C_3  and  C_7
REMARK    3  A    between atoms: C_6  and  C_24
REMARK    4  A    between atoms: C_10  and  C_14
REMARK                            x       y       z     vdW  Elec       q    Type
REMARK                         _______ _______ _______ _____ _____    ______ ____
ROOT
ATOM      1  C   UNL A   1     -26.399   0.295  27.228  0.00  0.00    +0.028 A 
ATOM      2  C   UNL A   1     -26.902   0.728  26.213  0.00  0.00    +0.140 A 
ATOM      3  C   UNL A   1     -26.175   0.636  24.926  0.00  0.00    +0.030 A 
ATOM      4  C   UNL A   1     -24.991   0.412  27.270  0.00  0.00    +0.003 A 
ATOM      5  C   UNL A   1     -24.191   0.566  26.177  0.00  0.00    +0.000 A 
ATOM      6  C   UNL A   1     -24.839   0.687  24.935  0.00  0.00    +0.002 A 
ATOM      7  F   UNL A   1     -28.241   0.617  25.985  0.00  0.00    -0.204 F 
ENDROOT
BRANCH   4   8
ATOM      8  C   UNL A   1     -24.202   0.177  28.592  0.00  0.00    +0.011 A 
ATOM      9  C   UNL A   1     -23.247   1.183  28.936  0.00  0.00    +0.058 A 
ATOM     10  C   UNL A   1     -24.333  -0.952  29.335  0.00  0.00    +0.001 A 
ATOM     11  C   UNL A   1     -23.919  -1.265  30.214  0.00  0.00    +0.000 A 
ATOM     12  C   UNL A   1     -22.963  -0.272  30.906  0.00  0.00    +0.001 A 
ATOM     13  C   UNL A   1     -22.717   0.918  30.221  0.00  0.00    +0.011 A 
ATOM     14 CL   UNL A   1     -22.932   2.628  28.194  0.00  0.00    -0.082 Cl
ENDBRANCH   4   8
BRANCH   1  17
ATOM     15  C   UNL A   1     -28.016  -0.814  28.878  0.00  0.00    +0.007 A 
ATOM     16  C   UNL A   1     -28.469  -0.785  29.829  0.00  0.00    +0.080 A 
ATOM     17  C   UNL A   1     -27.136   0.236  28.535  0.00  0.00    +0.002 A 
ATOM     18  C   UNL A   1     -26.875   1.282  29.398  0.00  0.00    +0.004 A 
ATOM     19  C   UNL A   1     -28.361   0.199  30.924  0.00  0.00    +0.010 A 
ATOM     20  C   UNL A   1     -27.528   1.223  30.636  0.00  0.00    +0.072 A 
BRANCH  20  21
ATOM     21  C   UNL A   1     -27.326   2.333  31.629  0.00  0.00    +0.419 C 
ATOM     22  F   UNL A   1     -27.532   3.474  31.357  0.00  0.00    -0.166 F 
ATOM     23  F   UNL A   1     -25.981   2.215  32.058  0.00  0.00    -0.166 F 
ATOM     24  F   UNL A   1     -27.978   1.975  32.806  0.00  0.00    -0.166 F 
ENDBRANCH  20  21
BRANCH  16  25
ATOM     25  C   UNL A   1     -29.477  -1.970  30.311  0.00  0.00    +0.388 C 
ATOM     26  O   UNL A   1     -30.371  -2.205  29.705  0.00  0.00    -0.241 OA
ATOM     27  O   UNL A   1     -29.371  -2.374  31.561  0.00  0.00    -0.241 OA
ENDBRANCH  16  25
ENDBRANCH   1  17
TORSDOF 4
