MODEL 4582
MODEL 1
REMARK VINA RESULT:    -5.205      0.000      0.000
REMARK INTER + INTRA:          -5.552
REMARK INTER:                  -5.509
REMARK INTRA:                  -0.042
REMARK UNBOUND:                -0.042
REMARK  Name = No_4582-gen_results/8p0m/2024-11-26-14-13-15/
REMARK  1 active torsions:
REMARK  status: ('A' for Active; 'I' for Inactive)
REMARK    1  A    between atoms: C_6  and  C_8
REMARK                            x       y       z     vdW  Elec       q    Type
REMARK                         _______ _______ _______ _____ _____    ______ ____
ROOT
ATOM      1  C   UNL A   1     -28.686 -11.792  30.335  0.00  0.00    +0.012 A 
ATOM      2  C   UNL A   1     -29.489 -10.888  30.338  0.00  0.00    +0.058 A 
ATOM      3  C   UNL A   1     -29.747 -10.108  31.418  0.00  0.00    +0.012 A 
ATOM      4  C   UNL A   1     -29.042 -10.361  32.610  0.00  0.00    +0.007 A 
ATOM      5  C   UNL A   1     -27.861 -12.046  31.488  0.00  0.00    +0.007 A 
ATOM      6  C   UNL A   1     -28.101 -11.309  32.609  0.00  0.00    +0.080 A 
ATOM      7 CL   UNL A   1     -30.406 -10.485  28.914  0.00  0.00    -0.082 Cl
ENDROOT
BRANCH   6   8
ATOM      8  C   UNL A   1     -27.291 -11.593  33.832  0.00  0.00    +0.388 C 
ATOM      9  O   UNL A   1     -27.080 -11.028  34.708  0.00  0.00    -0.241 OA
ATOM     10  O   UNL A   1     -26.737 -12.855  33.728  0.00  0.00    -0.241 OA
ENDBRANCH   6   8
TORSDOF 1
ENDMDL
ENDMDL
