MODEL 4583
MODEL 1
REMARK VINA RESULT:    -6.243      0.000      0.000
REMARK INTER + INTRA:         -15.009
REMARK INTER:                  -9.893
REMARK INTRA:                  -5.116
REMARK UNBOUND:                -5.116
REMARK  Name = No_4583-gen_results/8p0m/2024-11-26-14-13-15/
REMARK  10 active torsions:
REMARK  status: ('A' for Active; 'I' for Inactive)
REMARK    1  A    between atoms: C_2  and  C_12
REMARK    2  A    between atoms: C_4  and  C_7
REMARK    3  A    between atoms: C_9  and  C_10
REMARK    4  A    between atoms: C_12  and  O_14
REMARK    5  A    between atoms: O_14  and  C_18
REMARK    6  A    between atoms: C_18  and  C_19
REMARK    7  A    between atoms: C_22  and  C_26
REMARK    8  A    between atoms: C_26  and  C_27
REMARK    9  A    between atoms: C_28  and  C_29
REMARK   10  A    between atoms: C_29  and  C_30
REMARK                            x       y       z     vdW  Elec       q    Type
REMARK                         _______ _______ _______ _____ _____    ______ ____
ROOT
ATOM      1  C   UNL A   1     -22.974   0.634  29.553  0.00  0.00    +0.236 C 
ENDROOT
BRANCH   1   2
ATOM      2  C   UNL A   1     -23.172   0.887  28.286  0.00  0.00    +0.032 A 
ATOM      3  C   UNL A   1     -22.699   1.850  27.698  0.00  0.00    +0.000 A 
ATOM      4  C   UNL A   1     -24.104   0.047  27.511  0.00  0.00    +0.054 A 
ATOM      5  C   UNL A   1     -24.465   0.340  26.209  0.00  0.00    +0.001 A 
ATOM      6  C   UNL A   1     -22.976   2.237  26.288  0.00  0.00    -0.000 A 
ATOM      7  C   UNL A   1     -23.838   1.428  25.591  0.00  0.00    -0.003 A 
ATOM      8 CL   UNL A   1     -24.870  -1.369  28.152  0.00  0.00    -0.083 Cl
BRANCH   5   9
ATOM      9  C   UNL A   1     -25.394  -0.486  25.429  0.00  0.00    +0.103 C 
BRANCH   9  10
ATOM     10  C   UNL A   1     -26.286   0.247  24.641  0.00  0.00    -0.086 C 
ATOM     11  C   UNL A   1     -27.202   0.588  24.407  0.00  0.00    -0.086 C 
BRANCH  11  12
ATOM     12  C   UNL A   1     -28.246   1.287  23.618  0.00  0.00    +0.102 C 
BRANCH  12  13
ATOM     13  C   UNL A   1     -29.486   0.759  23.507  0.00  0.00    -0.009 A 
ATOM     14  C   UNL A   1     -29.607  -0.738  23.692  0.00  0.00    -0.003 A 
ATOM     15  C   UNL A   1     -30.897  -1.322  23.544  0.00  0.00    -0.000 A 
ATOM     16  C   UNL A   1     -31.999  -0.521  23.124  0.00  0.00    -0.000 A 
ATOM     17  C   UNL A   1     -31.882   0.877  23.014  0.00  0.00    -0.000 A 
ATOM     18  C   UNL A   1     -30.619   1.476  23.114  0.00  0.00    -0.003 A 
ENDBRANCH  12  13
ENDBRANCH  11  12
ENDBRANCH   9  10
ENDBRANCH   5   9
ENDBRANCH   1   2
BRANCH   1  19
ATOM     19  O   UNL A   1     -23.948   0.858  30.434  0.00  0.00    -0.440 OA
BRANCH  19  20
ATOM     20  C   UNL A   1     -24.679   1.885  30.475  0.00  0.00    +0.342 C 
ATOM     21  O   UNL A   1     -24.430   2.866  31.082  0.00  0.00    -0.245 OA
BRANCH  20  23
ATOM     22  C   UNL A   1     -26.713   1.089  29.716  0.00  0.00    +0.006 A 
ATOM     23  C   UNL A   1     -26.029   1.878  29.572  0.00  0.00    +0.076 A 
ATOM     24  C   UNL A   1     -27.941   1.125  28.906  0.00  0.00    +0.000 A 
ATOM     25  C   UNL A   1     -28.107   2.106  27.885  0.00  0.00    +0.002 A 
ATOM     26  C   UNL A   1     -25.936   2.964  28.559  0.00  0.00    +0.006 A 
ATOM     27  C   UNL A   1     -27.062   3.036  27.794  0.00  0.00    +0.000 A 
BRANCH  25  28
ATOM     28  C   UNL A   1     -29.270   2.178  27.064  0.00  0.00    +0.019 A 
ATOM     29  C   UNL A   1     -30.110   1.232  26.924  0.00  0.00    -0.001 A 
ATOM     30  C   UNL A   1     -31.466   1.470  26.771  0.00  0.00    -0.003 A 
ATOM     31  C   UNL A   1     -29.568   3.437  26.345  0.00  0.00    +0.099 A 
ATOM     32  N   UNL A   1     -30.538   3.782  26.205  0.00  0.00    -0.243 NA
ATOM     33  C   UNL A   1     -31.766   2.939  26.353  0.00  0.00    +0.095 A 
BRANCH  30  34
ATOM     34  C   UNL A   1     -32.505   0.560  26.986  0.00  0.00    +0.028 C 
ATOM     35  C   UNL A   1     -31.935  -0.876  27.004  0.00  0.00    +0.005 C 
ENDBRANCH  30  34
ENDBRANCH  25  28
ENDBRANCH  20  23
ENDBRANCH  19  20
ENDBRANCH   1  19
TORSDOF 10
ENDMDL
ENDMDL
