REMARK  Name = No_4584-gen_results/8p0m/2024-11-26-14-13-15/
REMARK  2 active torsions:
REMARK  status: ('A' for Active; 'I' for Inactive)
REMARK    1  A    between atoms: C_5  and  C_11
REMARK    2  A    between atoms: C_6  and  C_7
REMARK                            x       y       z     vdW  Elec       q    Type
REMARK                         _______ _______ _______ _____ _____    ______ ____
ROOT
ATOM      1  O   UNL A   1     -28.123  -1.335  28.487  0.00  0.00    -0.273 OA
ATOM      2  C   UNL A   1     -27.064  -0.824  28.869  0.00  0.00    +0.245 C 
ATOM      3  N   UNL A   1     -25.977  -1.138  28.814  0.00  0.00    -0.205 NA
ATOM      4  C   UNL A   1     -24.767  -0.346  29.163  0.00  0.00    +0.126 C 
ATOM      5  C   UNL A   1     -27.168   0.755  29.289  0.00  0.00    +0.101 C 
ATOM      6  C   UNL A   1     -24.944   0.930  29.540  0.00  0.00    +0.126 C 
ATOM      7  C   UNL A   1     -26.154   1.560  29.588  0.00  0.00    +0.027 C 
ENDROOT
BRANCH   5   8
ATOM      8  C   UNL A   1     -28.611   1.180  29.362  0.00  0.00    -0.014 A 
ATOM      9  C   UNL A   1     -29.197   1.100  30.324  0.00  0.00    -0.002 A 
ATOM     10  C   UNL A   1     -30.577   1.602  30.489  0.00  0.00    +0.029 A 
ATOM     11  C   UNL A   1     -29.159   1.705  28.163  0.00  0.00    -0.002 A 
ATOM     12  C   UNL A   1     -30.442   2.224  28.154  0.00  0.00    +0.029 A 
ATOM     13  C   UNL A   1     -31.146   2.175  29.379  0.00  0.00    +0.140 A 
ATOM     14  F   UNL A   1     -32.376   2.682  29.404  0.00  0.00    -0.204 F 
ENDBRANCH   5   8
BRANCH   6  15
ATOM     15  C   UNL A   1     -23.727   1.802  29.785  0.00  0.00    +0.366 C 
ATOM     16  O   UNL A   1     -23.831   2.788  30.367  0.00  0.00    -0.246 OA
ATOM     17  O   UNL A   1     -22.587   1.613  29.048  0.00  0.00    -0.246 OA
ENDBRANCH   6  15
TORSDOF 2
