MODEL 4584
MODEL 1
REMARK VINA RESULT:    -6.615      0.000      0.000
REMARK INTER + INTRA:          -7.545
REMARK INTER:                  -7.388
REMARK INTRA:                  -0.156
REMARK UNBOUND:                -0.156
REMARK  Name = No_4584-gen_results/8p0m/2024-11-26-14-13-15/
REMARK  2 active torsions:
REMARK  status: ('A' for Active; 'I' for Inactive)
REMARK    1  A    between atoms: C_5  and  C_11
REMARK    2  A    between atoms: C_6  and  C_7
REMARK                            x       y       z     vdW  Elec       q    Type
REMARK                         _______ _______ _______ _____ _____    ______ ____
ROOT
ATOM      1  O   UNL A   1     -31.169 -10.334  30.196  0.00  0.00    -0.273 OA
ATOM      2  C   UNL A   1     -30.255 -10.396  31.027  0.00  0.00    +0.245 C 
ATOM      3  N   UNL A   1     -30.101  -9.953  32.057  0.00  0.00    -0.205 NA
ATOM      4  C   UNL A   1     -29.020 -10.245  33.037  0.00  0.00    +0.126 C 
ATOM      5  C   UNL A   1     -29.150 -11.573  30.754  0.00  0.00    +0.101 C 
ATOM      6  C   UNL A   1     -28.128 -11.195  32.717  0.00  0.00    +0.126 C 
ATOM      7  C   UNL A   1     -28.167 -11.936  31.572  0.00  0.00    +0.027 C 
ENDROOT
BRANCH   5   8
ATOM      8  C   UNL A   1     -29.351 -12.169  29.386  0.00  0.00    -0.014 A 
ATOM      9  C   UNL A   1     -28.996 -11.635  28.457  0.00  0.00    -0.002 A 
ATOM     10  C   UNL A   1     -29.063 -12.215  27.100  0.00  0.00    +0.029 A 
ATOM     11  C   UNL A   1     -29.980 -13.441  29.355  0.00  0.00    -0.002 A 
ATOM     12  C   UNL A   1     -30.112 -14.122  28.158  0.00  0.00    +0.029 A 
ATOM     13  C   UNL A   1     -29.610 -13.471  27.008  0.00  0.00    +0.140 A 
ATOM     14  F   UNL A   1     -29.709 -14.110  25.845  0.00  0.00    -0.204 F 
ENDBRANCH   5   8
BRANCH   6  15
ATOM     15  C   UNL A   1     -27.087 -11.604  33.742  0.00  0.00    +0.366 C 
ATOM     16  O   UNL A   1     -26.773 -12.706  33.838  0.00  0.00    -0.246 OA
ATOM     17  O   UNL A   1     -26.766 -10.757  34.771  0.00  0.00    -0.246 OA
ENDBRANCH   6  15
TORSDOF 2
ENDMDL
ENDMDL
