REMARK  Name = No_4585-gen_results/8p0m/2024-11-26-14-13-15/
REMARK  1 active torsions:
REMARK  status: ('A' for Active; 'I' for Inactive)
REMARK    1  A    between atoms: C_4  and  C_7
REMARK                            x       y       z     vdW  Elec       q    Type
REMARK                         _______ _______ _______ _____ _____    ______ ____
ROOT
ATOM      1  C   UNL A   1     -28.016  -0.814  28.878  0.00  0.00    +0.000 A 
ATOM      2  C   UNL A   1     -28.469  -0.785  29.829  0.00  0.00    +0.000 A 
ATOM      3  C   UNL A   1     -26.546  -0.876  28.850  0.00  0.00    +0.005 A 
ATOM      4  C   UNL A   1     -25.804  -1.032  30.057  0.00  0.00    +0.058 A 
ATOM      5  C   UNL A   1     -26.537  -1.039  31.217  0.00  0.00    +0.005 A 
ATOM      6  C   UNL A   1     -27.884  -0.953  31.186  0.00  0.00    +0.000 A 
ENDROOT
BRANCH   4   7
ATOM      7  C   UNL A   1     -24.355  -1.112  30.035  0.00  0.00    +0.275 C 
ATOM      8  N   UNL A   1     -23.682  -1.318  29.114  0.00  0.00    -0.232 NA
ATOM      9  O   UNL A   1     -23.711  -0.956  31.200  0.00  0.00    -0.266 OA
ATOM     10  C   UNL A   1     -22.163  -1.276  29.046  0.00  0.00    +0.155 C 
ENDBRANCH   4   7
TORSDOF 1
