MODEL 4585
MODEL 1
REMARK VINA RESULT:    -5.491      0.000      0.000
REMARK INTER + INTRA:          -5.856
REMARK INTER:                  -5.812
REMARK INTRA:                  -0.045
REMARK UNBOUND:                -0.045
REMARK  Name = No_4585-gen_results/8p0m/2024-11-26-14-13-15/
REMARK  1 active torsions:
REMARK  status: ('A' for Active; 'I' for Inactive)
REMARK    1  A    between atoms: C_4  and  C_7
REMARK                            x       y       z     vdW  Elec       q    Type
REMARK                         _______ _______ _______ _____ _____    ______ ____
ROOT
ATOM      1  C   UNL A   1     -26.541  -3.934  29.831  0.00  0.00    +0.000 A 
ATOM      2  C   UNL A   1     -26.114  -4.862  29.572  0.00  0.00    +0.000 A 
ATOM      3  C   UNL A   1     -25.690  -2.746  29.661  0.00  0.00    +0.005 A 
ATOM      4  C   UNL A   1     -24.410  -2.854  29.042  0.00  0.00    +0.058 A 
ATOM      5  C   UNL A   1     -24.012  -4.122  28.700  0.00  0.00    +0.005 A 
ATOM      6  C   UNL A   1     -24.824  -5.181  28.903  0.00  0.00    +0.000 A 
ENDROOT
BRANCH   4   7
ATOM      7  C   UNL A   1     -23.573  -1.683  28.854  0.00  0.00    +0.275 C 
ATOM      8  N   UNL A   1     -22.493  -1.529  29.244  0.00  0.00    -0.232 NA
ATOM      9  O   UNL A   1     -24.099  -0.650  28.180  0.00  0.00    -0.266 OA
ATOM     10  C   UNL A   1     -21.555  -0.368  28.947  0.00  0.00    +0.155 C 
ENDBRANCH   4   7
TORSDOF 1
ENDMDL
ENDMDL
