MODEL 4586
MODEL 1
REMARK VINA RESULT:    -6.086      0.000      0.000
REMARK INTER + INTRA:          -6.728
REMARK INTER:                  -6.442
REMARK INTRA:                  -0.286
REMARK UNBOUND:                -0.286
REMARK  Name = No_4586-gen_results/8p0m/2024-11-26-14-13-15/
REMARK  1 active torsions:
REMARK  status: ('A' for Active; 'I' for Inactive)
REMARK    1  A    between atoms: C_4  and  C_7
REMARK                            x       y       z     vdW  Elec       q    Type
REMARK                         _______ _______ _______ _____ _____    ______ ____
ROOT
ATOM      1  C   UNL A   1     -26.561  -3.947  29.929  0.00  0.00    -0.000 A 
ATOM      2  C   UNL A   1     -26.127  -4.873  29.674  0.00  0.00    -0.000 A 
ATOM      3  C   UNL A   1     -25.726  -2.752  29.732  0.00  0.00    -0.000 A 
ATOM      4  C   UNL A   1     -24.455  -2.852  29.095  0.00  0.00    -0.004 A 
ATOM      5  C   UNL A   1     -24.048  -4.120  28.763  0.00  0.00    -0.000 A 
ATOM      6  C   UNL A   1     -24.844  -5.186  28.990  0.00  0.00    -0.000 A 
ENDROOT
BRANCH   4   7
ATOM      7  C   UNL A   1     -23.632  -1.691  28.877  0.00  0.00    -0.018 C 
ATOM      8  C   UNL A   1     -22.758  -1.444  29.335  0.00  0.00    -0.004 C 
ATOM      9  C   UNL A   1     -21.994  -0.105  29.251  0.00  0.00    -0.004 C 
ATOM     10  C   UNL A   1     -22.841   0.760  28.524  0.00  0.00    -0.021 C 
ATOM     11  C   UNL A   1     -24.205  -0.512  28.092  0.00  0.00    +0.052 C 
ENDBRANCH   4   7
TORSDOF 1
ENDMDL
ENDMDL
