MODEL 4587
MODEL 1
REMARK VINA RESULT:    -7.243      0.000      0.000
REMARK INTER + INTRA:          -8.911
REMARK INTER:                  -8.513
REMARK INTRA:                  -0.398
REMARK UNBOUND:                -0.398
REMARK  Name = No_4587-gen_results/8p0m/2024-11-26-14-13-15/
REMARK  3 active torsions:
REMARK  status: ('A' for Active; 'I' for Inactive)
REMARK    1  A    between atoms: C_3  and  O_13
REMARK    2  A    between atoms: O_13  and  C_14
REMARK    3  A    between atoms: C_14  and  C_15
REMARK                            x       y       z     vdW  Elec       q    Type
REMARK                         _______ _______ _______ _____ _____    ______ ____
ROOT
ATOM      1  F   UNL A   1     -22.953  -2.585  28.768  0.00  0.00    -0.201 F 
ATOM      2  C   UNL A   1     -24.082  -3.055  28.953  0.00  0.00    +0.174 A 
ATOM      3  C   UNL A   1     -24.976  -2.347  29.448  0.00  0.00    +0.166 A 
ATOM      4  C   UNL A   1     -26.285  -2.815  29.862  0.00  0.00    +0.037 A 
ATOM      5  C   UNL A   1     -26.534  -4.192  29.719  0.00  0.00    +0.003 A 
ATOM      6  C   UNL A   1     -25.511  -4.985  29.233  0.00  0.00    +0.003 A 
ATOM      7  C   UNL A   1     -24.352  -4.439  28.889  0.00  0.00    +0.033 A 
ATOM      8  C   UNL A   1     -27.360  -1.984  30.403  0.00  0.00    +0.015 A 
ATOM      9  C   UNL A   1     -28.416  -2.594  31.079  0.00  0.00    +0.058 A 
ATOM     10  C   UNL A   1     -28.571  -4.031  30.994  0.00  0.00    +0.011 A 
ATOM     11  C   UNL A   1     -27.746  -4.759  30.316  0.00  0.00    +0.001 A 
ATOM     12 CL   UNL A   1     -29.681  -1.619  31.712  0.00  0.00    -0.082 Cl
ENDROOT
BRANCH   3  13
ATOM     13  O   UNL A   1     -24.814  -1.009  29.649  0.00  0.00    -0.468 OA
BRANCH  13  14
ATOM     14  C   UNL A   1     -25.278  -0.080  28.817  0.00  0.00    +0.232 C 
BRANCH  14  15
ATOM     15  C   UNL A   1     -24.433   0.325  27.851  0.00  0.00    +0.021 A 
ATOM     16  C   UNL A   1     -24.939   0.524  26.541  0.00  0.00    -0.001 A 
ATOM     17  C   UNL A   1     -24.102   1.250  25.583  0.00  0.00    -0.000 A 
ATOM     18  C   UNL A   1     -23.039   1.987  26.222  0.00  0.00    -0.000 A 
ATOM     19  C   UNL A   1     -22.607   1.918  27.512  0.00  0.00    -0.000 A 
ATOM     20  C   UNL A   1     -23.259   1.055  28.273  0.00  0.00    -0.001 A 
ENDBRANCH  14  15
ENDBRANCH  13  14
ENDBRANCH   3  13
TORSDOF 3
ENDMDL
ENDMDL
