REMARK  Name = No_4587-gen_results/8p0m/2024-11-26-14-13-15/
REMARK  3 active torsions:
REMARK  status: ('A' for Active; 'I' for Inactive)
REMARK    1  A    between atoms: C_3  and  O_13
REMARK    2  A    between atoms: O_13  and  C_14
REMARK    3  A    between atoms: C_14  and  C_15
REMARK                            x       y       z     vdW  Elec       q    Type
REMARK                         _______ _______ _______ _____ _____    ______ ____
ROOT
ATOM      1  F   UNL A   1     -28.073  -1.254  28.532  0.00  0.00    -0.201 F 
ATOM      2  C   UNL A   1     -27.061  -0.629  28.872  0.00  0.00    +0.174 A 
ATOM      3  C   UNL A   1     -26.358  -0.071  28.012  0.00  0.00    +0.166 A 
ATOM      4  C   UNL A   1     -25.072   0.553  28.256  0.00  0.00    +0.037 A 
ATOM      5  C   UNL A   1     -24.577   0.480  29.570  0.00  0.00    +0.003 A 
ATOM      6  C   UNL A   1     -25.332  -0.203  30.506  0.00  0.00    +0.003 A 
ATOM      7  C   UNL A   1     -26.496  -0.736  30.161  0.00  0.00    +0.033 A 
ATOM      8  C   UNL A   1     -24.257   1.252  27.262  0.00  0.00    +0.015 A 
ATOM      9  C   UNL A   1     -22.910   1.490  27.534  0.00  0.00    +0.058 A 
ATOM     10  C   UNL A   1     -22.418   1.296  28.882  0.00  0.00    +0.011 A 
ATOM     11  C   UNL A   1     -23.196   0.895  29.832  0.00  0.00    +0.001 A 
ATOM     12 CL   UNL A   1     -21.953   2.314  26.369  0.00  0.00    -0.082 Cl
ENDROOT
BRANCH   3  13
ATOM     13  O   UNL A   1     -26.744   0.023  26.709  0.00  0.00    -0.468 OA
BRANCH  13  14
ATOM     14  C   UNL A   1     -27.808   0.713  26.306  0.00  0.00    +0.232 C 
BRANCH  14  15
ATOM     15  C   UNL A   1     -28.263   0.432  25.071  0.00  0.00    +0.021 A 
ATOM     16  C   UNL A   1     -27.712  -0.675  24.376  0.00  0.00    -0.001 A 
ATOM     17  C   UNL A   1     -28.414  -1.157  23.184  0.00  0.00    -0.000 A 
ATOM     18  C   UNL A   1     -29.770  -0.674  23.105  0.00  0.00    -0.000 A 
ATOM     19  C   UNL A   1     -30.375   0.298  23.843  0.00  0.00    -0.000 A 
ATOM     20  C   UNL A   1     -29.604   0.869  24.753  0.00  0.00    -0.001 A 
ENDBRANCH  14  15
ENDBRANCH  13  14
ENDBRANCH   3  13
TORSDOF 3
