MODEL 4588
MODEL 1
REMARK VINA RESULT:    -4.306      0.000      0.000
REMARK INTER + INTRA:          -4.306
REMARK INTER:                  -4.306
REMARK INTRA:                   0.000
REMARK UNBOUND:                 0.000
REMARK  Name = No_4588-gen_results/8p0m/2024-11-26-14-13-15/
REMARK  0 active torsions:
REMARK  status: ('A' for Active; 'I' for Inactive)
REMARK                            x       y       z     vdW  Elec       q    Type
REMARK                         _______ _______ _______ _____ _____    ______ ____
ROOT
ATOM      1  C   UNL A   1     -24.067  -4.723  28.556  0.00  0.00    +0.000 A 
ATOM      2  C   UNL A   1     -24.047  -3.673  28.647  0.00  0.00    +0.000 A 
ATOM      3  C   UNL A   1     -25.214  -5.347  29.215  0.00  0.00    +0.000 A 
ATOM      4  C   UNL A   1     -26.090  -4.730  29.655  0.00  0.00    +0.000 A 
ATOM      5  C   UNL A   1     -24.977  -2.687  29.162  0.00  0.00    +0.000 A 
ATOM      6  C   UNL A   1     -26.099  -3.334  29.747  0.00  0.00    +0.000 A 
ENDROOT
TORSDOF 0
ENDMDL
ENDMDL
