REMARK  Name = No_4589-gen_results/8p0m/2024-11-26-14-13-15/
REMARK  4 active torsions:
REMARK  status: ('A' for Active; 'I' for Inactive)
REMARK    1  A    between atoms: C_2  and  C_7
REMARK    2  A    between atoms: C_4  and  C_16
REMARK    3  A    between atoms: C_11  and  C_13
REMARK    4  A    between atoms: C_16  and  C_17
REMARK                            x       y       z     vdW  Elec       q    Type
REMARK                         _______ _______ _______ _____ _____    ______ ____
ROOT
ATOM      1  C   UNL A   1     -30.042  -0.769  29.653  0.00  0.00    +0.000 A 
ATOM      2  C   UNL A   1     -30.723   0.351  30.147  0.00  0.00    +0.000 A 
ATOM      3  C   UNL A   1     -32.093   0.414  29.960  0.00  0.00    +0.000 A 
ATOM      4  C   UNL A   1     -32.723  -0.687  29.327  0.00  0.00    +0.006 A 
ATOM      5  C   UNL A   1     -32.035  -1.765  28.897  0.00  0.00    +0.080 A 
ATOM      6  C   UNL A   1     -30.681  -1.836  29.134  0.00  0.00    +0.007 A 
ATOM      7  C   UNL A   1     -32.853   1.587  30.397  0.00  0.00    +0.000 A 
ATOM      8  C   UNL A   1     -33.833   1.962  30.028  0.00  0.00    +0.000 A 
ATOM      9  C   UNL A   1     -34.545   2.934  30.269  0.00  0.00    +0.000 A 
ATOM     10  C   UNL A   1     -35.852   3.326  29.739  0.00  0.00    +0.000 A 
ATOM     11  C   UNL A   1     -36.316   2.400  28.801  0.00  0.00    +0.000 A 
ATOM     12  C   UNL A   1     -35.675   1.311  28.441  0.00  0.00    +0.000 A 
ATOM     13  C   UNL A   1     -34.548   1.067  28.973  0.00  0.00    +0.000 A 
ATOM     14  C   UNL A   1     -33.823  -0.222  28.695  0.00  0.00    +0.000 A 
ENDROOT
BRANCH   1  16
ATOM     15  C   UNL A   1     -28.016  -0.814  28.878  0.00  0.00    +0.011 A 
ATOM     16  C   UNL A   1     -28.469  -0.785  29.829  0.00  0.00    +0.001 A 
ATOM     17  C   UNL A   1     -26.504  -0.778  28.877  0.00  0.00    +0.054 A 
ATOM     18  C   UNL A   1     -25.810  -0.853  30.103  0.00  0.00    -0.007 A 
ATOM     19  C   UNL A   1     -27.991  -0.892  31.226  0.00  0.00    -0.000 A 
ATOM     20  C   UNL A   1     -26.604  -0.868  31.265  0.00  0.00    -0.003 A 
ATOM     21 CL   UNL A   1     -25.627  -0.658  27.420  0.00  0.00    -0.083 Cl
BRANCH  18  22
ATOM     22  C   UNL A   1     -24.380  -0.822  30.131  0.00  0.00    +0.052 C 
BRANCH  22  23
ATOM     23  C   UNL A   1     -23.822   0.516  30.043  0.00  0.00    +0.002 C 
ATOM     24  C   UNL A   1     -24.178   1.500  30.601  0.00  0.00    +0.015 C 
ATOM     25  C   UNL A   1     -23.657   2.853  30.253  0.00  0.00    +0.095 C 
ATOM     26  N   UNL A   1     -22.846   2.687  29.232  0.00  0.00    -0.247 NA
ATOM     27  C   UNL A   1     -22.816   0.962  29.031  0.00  0.00    +0.212 C 
ATOM     28  N   UNL A   1     -22.177   0.406  28.123  0.00  0.00    -0.102 NA
ENDBRANCH  22  23
ENDBRANCH  18  22
ENDBRANCH   1  16
BRANCH   5  29
ATOM     29  C   UNL A   1     -32.660  -2.917  28.249  0.00  0.00    +0.388 C 
ATOM     30  O   UNL A   1     -33.855  -3.147  28.574  0.00  0.00    -0.241 OA
ATOM     31  O   UNL A   1     -32.065  -3.658  27.429  0.00  0.00    -0.241 OA
ENDBRANCH   5  29
TORSDOF 4
