MODEL 4589
MODEL 1
REMARK VINA RESULT:    -8.800      0.000      0.000
REMARK INTER + INTRA:         -12.042
REMARK INTER:                 -10.858
REMARK INTRA:                  -1.184
REMARK UNBOUND:                -1.184
REMARK  Name = No_4589-gen_results/8p0m/2024-11-26-14-13-15/
REMARK  4 active torsions:
REMARK  status: ('A' for Active; 'I' for Inactive)
REMARK    1  A    between atoms: C_2  and  C_7
REMARK    2  A    between atoms: C_4  and  C_16
REMARK    3  A    between atoms: C_11  and  C_13
REMARK    4  A    between atoms: C_16  and  C_17
REMARK                            x       y       z     vdW  Elec       q    Type
REMARK                         _______ _______ _______ _____ _____    ______ ____
ROOT
ATOM      1  C   UNL A   1     -28.440   1.074  24.712  0.00  0.00    +0.000 A 
ATOM      2  C   UNL A   1     -28.936   2.027  23.812  0.00  0.00    +0.000 A 
ATOM      3  C   UNL A   1     -30.219   1.854  23.323  0.00  0.00    +0.000 A 
ATOM      4  C   UNL A   1     -30.966   0.750  23.808  0.00  0.00    +0.006 A 
ATOM      5  C   UNL A   1     -30.464  -0.126  24.703  0.00  0.00    +0.080 A 
ATOM      6  C   UNL A   1     -29.206   0.087  25.218  0.00  0.00    +0.007 A 
ATOM      7  C   UNL A   1     -30.772   2.779  22.332  0.00  0.00    +0.000 A 
ATOM      8  C   UNL A   1     -31.586   2.608  21.593  0.00  0.00    +0.000 A 
ATOM      9  C   UNL A   1     -32.105   3.267  20.695  0.00  0.00    +0.000 A 
ATOM     10  C   UNL A   1     -33.207   2.954  19.785  0.00  0.00    +0.000 A 
ATOM     11  C   UNL A   1     -33.712   1.673  20.023  0.00  0.00    +0.000 A 
ATOM     12  C   UNL A   1     -33.268   0.852  20.948  0.00  0.00    +0.000 A 
ATOM     13  C   UNL A   1     -32.309   1.233  21.687  0.00  0.00    +0.000 A 
ATOM     14  C   UNL A   1     -31.838   0.389  22.841  0.00  0.00    +0.000 A 
ENDROOT
BRANCH   1  16
ATOM     15  C   UNL A   1     -26.766   2.293  25.360  0.00  0.00    +0.011 A 
ATOM     16  C   UNL A   1     -26.949   1.266  25.208  0.00  0.00    +0.001 A 
ATOM     17  C   UNL A   1     -25.392   2.636  25.890  0.00  0.00    +0.054 A 
ATOM     18  C   UNL A   1     -24.423   1.618  26.008  0.00  0.00    -0.007 A 
ATOM     19  C   UNL A   1     -26.124   0.037  25.219  0.00  0.00    -0.000 A 
ATOM     20  C   UNL A   1     -24.851   0.315  25.696  0.00  0.00    -0.003 A 
ATOM     21 CL   UNL A   1     -24.995   4.232  26.339  0.00  0.00    -0.083 Cl
BRANCH  18  22
ATOM     22  C   UNL A   1     -23.115   1.915  26.506  0.00  0.00    +0.052 C 
BRANCH  22  23
ATOM     23  C   UNL A   1     -22.844   1.346  27.815  0.00  0.00    +0.002 C 
ATOM     24  C   UNL A   1     -22.118   0.451  28.092  0.00  0.00    +0.015 C 
ATOM     25  C   UNL A   1     -22.099  -0.179  29.443  0.00  0.00    +0.095 C 
ATOM     26  N   UNL A   1     -23.045   0.411  30.140  0.00  0.00    -0.247 NA
ATOM     27  C   UNL A   1     -23.624   1.638  29.056  0.00  0.00    +0.212 C 
ATOM     28  N   UNL A   1     -24.565   2.395  29.345  0.00  0.00    -0.102 NA
ENDBRANCH  22  23
ENDBRANCH  18  22
ENDBRANCH   1  16
BRANCH   5  29
ATOM     29  C   UNL A   1     -31.215  -1.266  25.226  0.00  0.00    +0.388 C 
ATOM     30  O   UNL A   1     -30.792  -2.403  24.885  0.00  0.00    -0.241 OA
ATOM     31  O   UNL A   1     -32.229  -1.152  25.956  0.00  0.00    -0.241 OA
ENDBRANCH   5  29
TORSDOF 4
ENDMDL
ENDMDL
