MODEL 458
MODEL 1
REMARK VINA RESULT:    -5.565      0.000      0.000
REMARK INTER + INTRA:          -6.348
REMARK INTER:                  -6.216
REMARK INTRA:                  -0.132
REMARK UNBOUND:                -0.132
REMARK  Name = No_458-gen_results/8p0m/2024-11-26-14-13-15/
REMARK  2 active torsions:
REMARK  status: ('A' for Active; 'I' for Inactive)
REMARK    1  A    between atoms: C_2  and  C_8
REMARK    2  A    between atoms: N_10  and  C_11
REMARK                            x       y       z     vdW  Elec       q    Type
REMARK                         _______ _______ _______ _____ _____    ______ ____
ROOT
ATOM      1  C   UNL A   1     -21.919  -0.798  29.278  0.00  0.00    +0.007 A 
ATOM      2  C   UNL A   1     -23.064  -1.024  28.962  0.00  0.00    +0.055 A 
ATOM      3  C   UNL A   1     -23.830  -0.233  28.123  0.00  0.00    +0.007 A 
ATOM      4  C   UNL A   1     -23.203   0.922  27.568  0.00  0.00    +0.030 A 
ATOM      5  C   UNL A   1     -21.885   1.060  27.821  0.00  0.00    +0.140 A 
ATOM      6  C   UNL A   1     -21.218   0.186  28.578  0.00  0.00    +0.030 A 
ATOM      7  F   UNL A   1     -21.280   2.092  27.248  0.00  0.00    -0.204 F 
ENDROOT
BRANCH   2   8
ATOM      8  C   UNL A   1     -23.893  -2.183  29.623  0.00  0.00    +0.265 C 
ATOM      9  O   UNL A   1     -24.568  -2.006  30.550  0.00  0.00    -0.268 OA
ATOM     10  N   UNL A   1     -24.067  -3.331  28.892  0.00  0.00    -0.202 NA
BRANCH  10  11
ATOM     11  C   UNL A   1     -24.806  -4.407  29.402  0.00  0.00    +0.116 C 
ATOM     12  C   UNL A   1     -24.744  -5.423  28.784  0.00  0.00    +0.025 C 
ENDBRANCH  10  11
ENDBRANCH   2   8
TORSDOF 2
ENDMDL
ENDMDL
