REMARK  Name = No_4590-gen_results/8p0m/2024-11-26-14-13-15/
REMARK  3 active torsions:
REMARK  status: ('A' for Active; 'I' for Inactive)
REMARK    1  A    between atoms: C_7  and  C_16
REMARK    2  A    between atoms: C_16  and  N_17
REMARK    3  A    between atoms: N_17  and  C_18
REMARK                            x       y       z     vdW  Elec       q    Type
REMARK                         _______ _______ _______ _____ _____    ______ ____
ROOT
ATOM      1  C   UNL A   1     -28.016  -0.814  28.878  0.00  0.00    +0.013 A 
ATOM      2  C   UNL A   1     -28.469  -0.785  29.829  0.00  0.00    +0.048 A 
ATOM      3  C   UNL A   1     -26.504  -0.778  28.877  0.00  0.00    -0.001 A 
ATOM      4  C   UNL A   1     -25.654  -0.660  27.719  0.00  0.00    -0.001 A 
ATOM      5  C   UNL A   1     -29.992  -0.813  29.958  0.00  0.00    +0.015 A 
ATOM      6  C   UNL A   1     -24.235  -0.622  27.972  0.00  0.00    -0.003 A 
ATOM      7  C   UNL A   1     -23.709  -0.779  29.253  0.00  0.00    -0.001 A 
ATOM      8  C   UNL A   1     -24.489  -0.910  30.345  0.00  0.00    -0.005 A 
ATOM      9  C   UNL A   1     -25.845  -0.937  30.186  0.00  0.00    -0.003 A 
ATOM     10  C   UNL A   1     -30.552  -0.729  28.760  0.00  0.00    +0.001 A 
ATOM     11  C   UNL A   1     -29.899  -0.461  27.617  0.00  0.00    +0.000 A 
ATOM     12  C   UNL A   1     -28.560  -0.403  27.645  0.00  0.00    +0.001 A 
ATOM     13  N   UNL A   1     -27.877  -1.069  31.151  0.00  0.00    -0.302 N 
ATOM     14  C   UNL A   1     -26.709  -1.053  31.290  0.00  0.00    +0.118 C 
ATOM     15  C   UNL A   1     -28.788  -1.230  32.407  0.00  0.00    +0.113 C 
ENDROOT
BRANCH   7  16
ATOM     16  C   UNL A   1     -22.184  -0.732  29.359  0.00  0.00    +0.139 C 
BRANCH  16  17
ATOM     17  N   UNL A   1     -21.433  -0.055  28.515  0.00  0.00    -0.227 NA
BRANCH  17  18
ATOM     18  C   UNL A   1     -21.799   1.174  28.047  0.00  0.00    +0.141 C 
ATOM     19  C   UNL A   1     -22.751   2.027  28.723  0.00  0.00    +0.295 C 
ATOM     20  F   UNL A   1     -23.866   1.665  28.480  0.00  0.00    -0.171 F 
ATOM     21  F   UNL A   1     -22.483   3.010  29.332  0.00  0.00    -0.171 F 
ENDBRANCH  17  18
ENDBRANCH  16  17
ENDBRANCH   7  16
TORSDOF 3
