REMARK  Name = No_4591-gen_results/8p0m/2024-11-26-14-13-15/
REMARK  3 active torsions:
REMARK  status: ('A' for Active; 'I' for Inactive)
REMARK    1  A    between atoms: C_1  and  C_2
REMARK    2  A    between atoms: C_1  and  N_8
REMARK    3  A    between atoms: C_4  and  C_15
REMARK                            x       y       z     vdW  Elec       q    Type
REMARK                         _______ _______ _______ _____ _____    ______ ____
ROOT
ATOM      1  C   UNL A   1     -27.064  -0.119  28.608  0.00  0.00    -0.006 A 
ATOM      2  C   UNL A   1     -25.792  -0.430  29.076  0.00  0.00    -0.002 A 
ATOM      3  C   UNL A   1     -24.546   0.349  28.823  0.00  0.00    +0.010 A 
ATOM      4  C   UNL A   1     -24.659   1.420  27.888  0.00  0.00    +0.058 A 
ATOM      5  C   UNL A   1     -25.947   1.681  27.379  0.00  0.00    +0.011 A 
ATOM      6  C   UNL A   1     -27.044   0.974  27.687  0.00  0.00    -0.002 A 
ATOM      7 CL   UNL A   1     -23.264   2.277  27.501  0.00  0.00    -0.082 Cl
ENDROOT
BRANCH   3   8
ATOM      8  C   UNL A   1     -23.137   0.055  29.193  0.00  0.00    +0.001 C 
ATOM      9  C   UNL A   1     -22.060   0.179  28.575  0.00  0.00    +0.000 C 
ENDBRANCH   3   8
BRANCH   1  10
ATOM     10  C   UNL A   1     -28.016  -0.814  28.878  0.00  0.00    +0.099 C 
BRANCH  10  11
ATOM     11  N   UNL A   1     -28.657  -0.553  30.096  0.00  0.00    -0.269 NA
ATOM     12  C   UNL A   1     -29.629  -1.287  30.634  0.00  0.00    +0.072 C 
ATOM     13  C   UNL A   1     -30.154  -0.901  31.900  0.00  0.00    +0.017 C 
ATOM     14  C   UNL A   1     -28.241   0.509  30.966  0.00  0.00    +0.072 C 
ATOM     15  C   UNL A   1     -28.727   0.860  32.133  0.00  0.00    +0.017 C 
ATOM     16  C   UNL A   1     -29.711   0.134  32.645  0.00  0.00    +0.003 C 
ENDBRANCH  10  11
ENDBRANCH   1  10
TORSDOF 3
