MODEL 4591
MODEL 1
REMARK VINA RESULT:    -6.848      0.000      0.000
REMARK INTER + INTRA:          -8.385
REMARK INTER:                  -8.050
REMARK INTRA:                  -0.335
REMARK UNBOUND:                -0.335
REMARK  Name = No_4591-gen_results/8p0m/2024-11-26-14-13-15/
REMARK  3 active torsions:
REMARK  status: ('A' for Active; 'I' for Inactive)
REMARK    1  A    between atoms: C_1  and  C_2
REMARK    2  A    between atoms: C_1  and  N_8
REMARK    3  A    between atoms: C_4  and  C_15
REMARK                            x       y       z     vdW  Elec       q    Type
REMARK                         _______ _______ _______ _____ _____    ______ ____
ROOT
ATOM      1  C   UNL A   1     -24.112  -0.334  28.887  0.00  0.00    -0.006 A 
ATOM      2  C   UNL A   1     -24.772  -0.319  27.663  0.00  0.00    -0.002 A 
ATOM      3  C   UNL A   1     -24.384   0.476  26.463  0.00  0.00    +0.010 A 
ATOM      4  C   UNL A   1     -23.329   1.417  26.653  0.00  0.00    +0.058 A 
ATOM      5  C   UNL A   1     -22.713   1.428  27.920  0.00  0.00    +0.011 A 
ATOM      6  C   UNL A   1     -23.074   0.648  28.948  0.00  0.00    -0.002 A 
ATOM      7 CL   UNL A   1     -22.909   2.401  25.354  0.00  0.00    -0.082 Cl
ENDROOT
BRANCH   3   8
ATOM      8  C   UNL A   1     -25.067   0.634  25.153  0.00  0.00    +0.001 C 
ATOM      9  C   UNL A   1     -26.097   0.119  24.672  0.00  0.00    +0.000 C 
ENDBRANCH   3   8
BRANCH   1  10
ATOM     10  C   UNL A   1     -24.504  -1.024  29.800  0.00  0.00    +0.099 C 
BRANCH  10  11
ATOM     11  N   UNL A   1     -24.708  -2.380  29.517  0.00  0.00    -0.269 NA
ATOM     12  C   UNL A   1     -23.809  -3.207  28.987  0.00  0.00    +0.072 C 
ATOM     13  C   UNL A   1     -24.168  -4.571  28.792  0.00  0.00    +0.017 C 
ATOM     14  C   UNL A   1     -25.916  -3.063  29.882  0.00  0.00    +0.072 C 
ATOM     15  C   UNL A   1     -26.241  -4.321  29.702  0.00  0.00    +0.017 C 
ATOM     16  C   UNL A   1     -25.344  -5.127  29.151  0.00  0.00    +0.003 C 
ENDBRANCH  10  11
ENDBRANCH   1  10
TORSDOF 3
ENDMDL
ENDMDL
