REMARK  Name = No_4592-gen_results/8p0m/2024-11-26-14-13-15/
REMARK  6 active torsions:
REMARK  status: ('A' for Active; 'I' for Inactive)
REMARK    1  A    between atoms: C_1  and  C_2
REMARK    2  A    between atoms: C_5  and  C_10
REMARK    3  A    between atoms: N_8  and  C_9
REMARK    4  A    between atoms: C_13  and  C_19
REMARK    5  A    between atoms: N_21  and  C_22
REMARK    6  A    between atoms: C_23  and  C_24
REMARK                            x       y       z     vdW  Elec       q    Type
REMARK                         _______ _______ _______ _____ _____    ______ ____
ROOT
ATOM      1  C   UNL A   1     -30.246  -0.774  29.639  0.00  0.00    +0.078 A 
ATOM      2  C   UNL A   1     -31.542  -0.493  29.255  0.00  0.00    +0.071 A 
ATOM      3  C   UNL A   1     -30.013  -0.869  31.094  0.00  0.00    +0.017 A 
ATOM      4  C   UNL A   1     -31.021  -1.537  31.894  0.00  0.00    +0.001 A 
ATOM      5  C   UNL A   1     -32.604  -1.139  30.096  0.00  0.00    +0.006 A 
ATOM      6  C   UNL A   1     -32.356  -1.355  31.433  0.00  0.00    +0.000 A 
ENDROOT
BRANCH   1   8
ATOM      7  C   UNL A   1     -28.016  -0.814  28.878  0.00  0.00    +0.269 C 
ATOM      8  N   UNL A   1     -29.215  -0.173  29.013  0.00  0.00    -0.175 NA
ATOM      9  O   UNL A   1     -27.948  -1.919  29.421  0.00  0.00    -0.268 OA
BRANCH   7  10
ATOM     10  C   UNL A   1     -27.064  -0.119  28.608  0.00  0.00    +0.055 A 
ATOM     11  C   UNL A   1     -27.001   0.691  27.491  0.00  0.00    +0.005 A 
ATOM     12  C   UNL A   1     -25.855   1.482  27.083  0.00  0.00    +0.005 A 
ATOM     13  C   UNL A   1     -24.690   1.453  27.881  0.00  0.00    +0.057 A 
ATOM     14  C   UNL A   1     -24.738   0.601  29.042  0.00  0.00    +0.005 A 
ATOM     15  C   UNL A   1     -25.823  -0.169  29.389  0.00  0.00    +0.005 A 
BRANCH  13  16
ATOM     16  C   UNL A   1     -23.519   2.203  27.555  0.00  0.00    +0.284 C 
ATOM     17  N   UNL A   1     -22.515   2.198  28.358  0.00  0.00    -0.084 NA
ATOM     18  O   UNL A   1     -23.484   2.807  26.425  0.00  0.00    -0.267 OA
ENDBRANCH  13  16
ENDBRANCH   7  10
ENDBRANCH   1   8
BRANCH   2  19
ATOM     19  C   UNL A   1     -31.884  -0.187  27.925  0.00  0.00    +0.270 C 
ATOM     20  O   UNL A   1     -32.442  -0.885  27.113  0.00  0.00    -0.268 OA
ATOM     21  N   UNL A   1     -31.086   0.942  27.375  0.00  0.00    -0.174 NA
BRANCH  21  22
ATOM     22  C   UNL A   1     -31.315   1.347  26.018  0.00  0.00    +0.089 C 
ATOM     23  C   UNL A   1     -30.465   2.346  25.758  0.00  0.00    +0.018 C 
BRANCH  23  24
ATOM     24  C   UNL A   1     -29.556   2.237  24.651  0.00  0.00    -0.003 C 
ATOM     25  C   UNL A   1     -28.607   3.347  24.457  0.00  0.00    -0.026 C 
ATOM     26  C   UNL A   1     -28.538   4.399  25.318  0.00  0.00    +0.031 C 
ENDBRANCH  23  24
ENDBRANCH  21  22
ENDBRANCH   2  19
TORSDOF 6
