MODEL 4592
MODEL 1
REMARK VINA RESULT:    -7.286      0.000      0.000
REMARK INTER + INTRA:         -10.832
REMARK INTER:                  -9.842
REMARK INTRA:                  -0.991
REMARK UNBOUND:                -0.991
REMARK  Name = No_4592-gen_results/8p0m/2024-11-26-14-13-15/
REMARK  6 active torsions:
REMARK  status: ('A' for Active; 'I' for Inactive)
REMARK    1  A    between atoms: C_1  and  C_2
REMARK    2  A    between atoms: C_5  and  C_10
REMARK    3  A    between atoms: N_8  and  C_9
REMARK    4  A    between atoms: C_13  and  C_19
REMARK    5  A    between atoms: N_21  and  C_22
REMARK    6  A    between atoms: C_23  and  C_24
REMARK                            x       y       z     vdW  Elec       q    Type
REMARK                         _______ _______ _______ _____ _____    ______ ____
ROOT
ATOM      1  C   UNL A   1     -24.186   1.263  26.227  0.00  0.00    +0.078 A 
ATOM      2  C   UNL A   1     -23.823   0.988  27.531  0.00  0.00    +0.071 A 
ATOM      3  C   UNL A   1     -23.370   2.279  25.534  0.00  0.00    +0.017 A 
ATOM      4  C   UNL A   1     -21.936   2.254  25.752  0.00  0.00    +0.001 A 
ATOM      5  C   UNL A   1     -22.345   0.999  27.791  0.00  0.00    +0.006 A 
ATOM      6  C   UNL A   1     -21.546   1.851  27.061  0.00  0.00    +0.000 A 
ENDROOT
BRANCH   1   8
ATOM      7  C   UNL A   1     -26.073   0.466  25.062  0.00  0.00    +0.269 C 
ATOM      8  N   UNL A   1     -25.489   1.372  25.902  0.00  0.00    -0.175 NA
ATOM      9  O   UNL A   1     -25.310  -0.383  24.595  0.00  0.00    -0.268 OA
BRANCH   7  10
ATOM     10  C   UNL A   1     -27.124   0.796  24.564  0.00  0.00    +0.055 A 
ATOM     11  C   UNL A   1     -27.545   2.107  24.466  0.00  0.00    +0.005 A 
ATOM     12  C   UNL A   1     -28.828   2.548  23.950  0.00  0.00    +0.005 A 
ATOM     13  C   UNL A   1     -29.745   1.578  23.489  0.00  0.00    +0.057 A 
ATOM     14  C   UNL A   1     -29.323   0.204  23.599  0.00  0.00    +0.005 A 
ATOM     15  C   UNL A   1     -28.117  -0.192  24.126  0.00  0.00    +0.005 A 
BRANCH  13  16
ATOM     16  C   UNL A   1     -31.027   1.924  22.963  0.00  0.00    +0.284 C 
ATOM     17  N   UNL A   1     -31.497   3.105  23.155  0.00  0.00    -0.084 NA
ATOM     18  O   UNL A   1     -31.641   1.055  22.249  0.00  0.00    -0.267 OA
ENDBRANCH  13  16
ENDBRANCH   7  10
ENDBRANCH   1   8
BRANCH   2  19
ATOM     19  C   UNL A   1     -24.611   0.189  28.380  0.00  0.00    +0.270 C 
ATOM     20  O   UNL A   1     -25.558   0.516  29.054  0.00  0.00    -0.268 OA
ATOM     21  N   UNL A   1     -23.920  -1.063  28.790  0.00  0.00    -0.174 NA
BRANCH  21  22
ATOM     22  C   UNL A   1     -24.600  -1.963  29.676  0.00  0.00    +0.089 C 
ATOM     23  C   UNL A   1     -25.258  -2.842  28.913  0.00  0.00    +0.018 C 
BRANCH  23  24
ATOM     24  C   UNL A   1     -25.017  -4.249  29.079  0.00  0.00    -0.003 C 
ATOM     25  C   UNL A   1     -26.104  -5.044  29.676  0.00  0.00    -0.026 C 
ATOM     26  C   UNL A   1     -27.309  -4.498  29.995  0.00  0.00    +0.031 C 
ENDBRANCH  23  24
ENDBRANCH  21  22
ENDBRANCH   2  19
TORSDOF 6
ENDMDL
ENDMDL
