MODEL 4593
MODEL 1
REMARK VINA RESULT:    -5.017      0.000      0.000
REMARK INTER + INTRA:          -5.017
REMARK INTER:                  -5.017
REMARK INTRA:                   0.000
REMARK UNBOUND:                 0.000
REMARK  Name = No_4593-gen_results/8p0m/2024-11-26-14-13-15/
REMARK  0 active torsions:
REMARK  status: ('A' for Active; 'I' for Inactive)
REMARK                            x       y       z     vdW  Elec       q    Type
REMARK                         _______ _______ _______ _____ _____    ______ ____
ROOT
ATOM      1  C   UNL A   1     -10.507  -9.290  19.195  0.00  0.00    +0.042 A 
ATOM      2  C   UNL A   1      -9.749  -9.094  20.116  0.00  0.00    +0.003 A 
ATOM      3  C   UNL A   1      -8.450  -9.591  20.096  0.00  0.00    +0.000 A 
ATOM      4  C   UNL A   1      -7.982 -10.395  18.996  0.00  0.00    +0.003 A 
ATOM      5  C   UNL A   1      -8.931 -10.592  17.985  0.00  0.00    +0.042 A 
ATOM      6  C   UNL A   1     -10.152 -10.114  18.060  0.00  0.00    +0.196 A 
ATOM      7  O   UNL A   1     -11.026 -10.384  17.051  0.00  0.00    -0.287 OA
ENDROOT
TORSDOF 0
ENDMDL
ENDMDL
