REMARK  Name = No_4594-gen_results/8p0m/2024-11-26-14-13-15/
REMARK  6 active torsions:
REMARK  status: ('A' for Active; 'I' for Inactive)
REMARK    1  A    between atoms: C_1  and  C_2
REMARK    2  A    between atoms: C_1  and  C_8
REMARK    3  A    between atoms: C_3  and  C_17
REMARK    4  A    between atoms: C_5  and  C_10
REMARK    5  A    between atoms: C_8  and  C_9
REMARK    6  A    between atoms: N_19  and  C_20
REMARK                            x       y       z     vdW  Elec       q    Type
REMARK                         _______ _______ _______ _____ _____    ______ ____
ROOT
ATOM      1  C   UNL A   1     -27.064  -0.119  28.608  0.00  0.00    -0.010 A 
ATOM      2  C   UNL A   1     -26.972   0.714  27.506  0.00  0.00    +0.050 A 
ATOM      3  C   UNL A   1     -25.820   1.491  27.116  0.00  0.00    +0.008 A 
ATOM      4  C   UNL A   1     -24.656   1.424  27.918  0.00  0.00    +0.071 A 
ATOM      5  C   UNL A   1     -24.685   0.590  29.066  0.00  0.00    +0.004 A 
ATOM      6  C   UNL A   1     -25.810  -0.127  29.334  0.00  0.00    -0.004 A 
ENDROOT
BRANCH   4   7
ATOM      7  C   UNL A   1     -23.452   2.189  27.608  0.00  0.00    +0.419 C 
ATOM      8  F   UNL A   1     -22.787   2.495  28.631  0.00  0.00    -0.166 F 
ATOM      9  F   UNL A   1     -23.715   3.260  26.926  0.00  0.00    -0.166 F 
ATOM     10  F   UNL A   1     -22.591   1.423  26.780  0.00  0.00    -0.166 F 
ENDBRANCH   4   7
BRANCH   2  11
ATOM     11  C   UNL A   1     -28.117   0.895  26.600  0.00  0.00    +0.253 C 
ATOM     12  O   UNL A   1     -29.075   1.453  26.935  0.00  0.00    -0.270 OA
ATOM     13  N   UNL A   1     -28.083   0.333  25.379  0.00  0.00    -0.253 N 
ATOM     14  C   UNL A   1     -26.822   0.124  24.636  0.00  0.00    +0.120 C 
BRANCH  13  15
ATOM     15  C   UNL A   1     -29.151   0.296  24.425  0.00  0.00    +0.054 A 
ATOM     16  C   UNL A   1     -30.294  -0.213  24.936  0.00  0.00    +0.015 A 
ATOM     17  C   UNL A   1     -31.440  -0.239  24.179  0.00  0.00    +0.001 A 
ATOM     18  C   UNL A   1     -31.451   0.477  22.954  0.00  0.00    +0.000 A 
ATOM     19  C   UNL A   1     -30.346   1.216  22.638  0.00  0.00    +0.001 A 
ATOM     20  C   UNL A   1     -29.153   1.180  23.392  0.00  0.00    +0.015 A 
ENDBRANCH  13  15
ENDBRANCH   2  11
BRANCH   1  21
ATOM     21  C   UNL A   1     -28.016  -0.814  28.878  0.00  0.00    +0.095 C 
BRANCH  21  22
ATOM     22  C   UNL A   1     -28.694  -0.473  30.159  0.00  0.00    +0.203 C 
ATOM     23  O   UNL A   1     -28.349   0.504  30.899  0.00  0.00    -0.291 OA
BRANCH  22  24
ATOM     24  C   UNL A   1     -29.787  -1.325  30.637  0.00  0.00    +0.296 C 
ATOM     25 CL   UNL A   1     -30.549  -0.863  31.610  0.00  0.00    -0.069 Cl
ATOM     26  F   UNL A   1     -29.931  -2.356  29.969  0.00  0.00    -0.211 F 
ENDBRANCH  22  24
ENDBRANCH  21  22
ENDBRANCH   1  21
TORSDOF 6
