MODEL 4594
MODEL 1
REMARK VINA RESULT:    -7.632      0.000      0.000
REMARK INTER + INTRA:         -11.256
REMARK INTER:                 -10.309
REMARK INTRA:                  -0.947
REMARK UNBOUND:                -0.947
REMARK  Name = No_4594-gen_results/8p0m/2024-11-26-14-13-15/
REMARK  6 active torsions:
REMARK  status: ('A' for Active; 'I' for Inactive)
REMARK    1  A    between atoms: C_1  and  C_2
REMARK    2  A    between atoms: C_1  and  C_8
REMARK    3  A    between atoms: C_3  and  C_17
REMARK    4  A    between atoms: C_5  and  C_10
REMARK    5  A    between atoms: C_8  and  C_9
REMARK    6  A    between atoms: N_19  and  C_20
REMARK                            x       y       z     vdW  Elec       q    Type
REMARK                         _______ _______ _______ _____ _____    ______ ____
ROOT
ATOM      1  C   UNL A   1     -23.923   0.517  28.021  0.00  0.00    -0.010 A 
ATOM      2  C   UNL A   1     -25.057  -0.176  27.632  0.00  0.00    +0.050 A 
ATOM      3  C   UNL A   1     -25.342  -1.566  27.896  0.00  0.00    +0.008 A 
ATOM      4  C   UNL A   1     -24.390  -2.327  28.615  0.00  0.00    +0.071 A 
ATOM      5  C   UNL A   1     -23.202  -1.677  29.041  0.00  0.00    +0.004 A 
ATOM      6  C   UNL A   1     -23.038  -0.354  28.768  0.00  0.00    -0.004 A 
ENDROOT
BRANCH   4   7
ATOM      7  C   UNL A   1     -24.589  -3.742  28.911  0.00  0.00    +0.419 C 
ATOM      8  F   UNL A   1     -25.796  -4.092  28.856  0.00  0.00    -0.166 F 
ATOM      9  F   UNL A   1     -24.094  -4.075  30.063  0.00  0.00    -0.166 F 
ATOM     10  F   UNL A   1     -23.893  -4.538  27.964  0.00  0.00    -0.166 F 
ENDBRANCH   4   7
BRANCH   2  11
ATOM     11  C   UNL A   1     -26.117   0.489  26.858  0.00  0.00    +0.253 C 
ATOM     12  O   UNL A   1     -26.915   1.156  27.368  0.00  0.00    -0.270 OA
ATOM     13  N   UNL A   1     -26.210   0.255  25.537  0.00  0.00    -0.253 N 
ATOM     14  C   UNL A   1     -25.031  -0.054  24.701  0.00  0.00    +0.120 C 
BRANCH  13  15
ATOM     15  C   UNL A   1     -27.248   0.708  24.660  0.00  0.00    +0.054 A 
ATOM     16  C   UNL A   1     -28.216  -0.215  24.471  0.00  0.00    +0.015 A 
ATOM     17  C   UNL A   1     -29.329   0.090  23.726  0.00  0.00    +0.001 A 
ATOM     18  C   UNL A   1     -29.540   1.445  23.360  0.00  0.00    +0.000 A 
ATOM     19  C   UNL A   1     -28.664   2.378  23.838  0.00  0.00    +0.001 A 
ATOM     20  C   UNL A   1     -27.490   2.041  24.546  0.00  0.00    +0.015 A 
ENDBRANCH  13  15
ENDBRANCH   2  11
BRANCH   1  21
ATOM     21  C   UNL A   1     -23.735   1.699  27.849  0.00  0.00    +0.095 C 
BRANCH  21  22
ATOM     22  C   UNL A   1     -22.701   2.024  26.828  0.00  0.00    +0.203 C 
ATOM     23  O   UNL A   1     -21.454   1.837  27.006  0.00  0.00    -0.291 OA
BRANCH  22  24
ATOM     24  C   UNL A   1     -23.115   2.639  25.564  0.00  0.00    +0.296 C 
ATOM     25 CL   UNL A   1     -24.115   3.500  25.594  0.00  0.00    -0.069 Cl
ATOM     26  F   UNL A   1     -22.377   2.349  24.614  0.00  0.00    -0.211 F 
ENDBRANCH  22  24
ENDBRANCH  21  22
ENDBRANCH   1  21
TORSDOF 6
ENDMDL
ENDMDL
