MODEL 4595
MODEL 1
REMARK VINA RESULT:    -7.844      0.000      0.000
REMARK INTER + INTRA:         -12.317
REMARK INTER:                 -11.512
REMARK INTRA:                  -0.805
REMARK UNBOUND:                -0.805
REMARK  Name = No_4595-gen_results/8p0m/2024-11-26-14-13-15/
REMARK  8 active torsions:
REMARK  status: ('A' for Active; 'I' for Inactive)
REMARK    1  A    between atoms: C_3  and  C_8
REMARK    2  A    between atoms: C_6  and  O_7
REMARK    3  A    between atoms: O_7  and  C_14
REMARK    4  A    between atoms: C_14  and  C_15
REMARK    5  A    between atoms: C_20  and  O_26
REMARK    6  A    between atoms: O_26  and  C_27
REMARK    7  A    between atoms: C_28  and  C_29
REMARK    8  A    between atoms: C_30  and  C_31
REMARK                            x       y       z     vdW  Elec       q    Type
REMARK                         _______ _______ _______ _____ _____    ______ ____
ROOT
ATOM      1  C   UNL A   1      -9.294   2.772  34.073  0.00  0.00    +0.175 A 
ATOM      2  C   UNL A   1      -8.267   2.143  34.179  0.00  0.00    +0.020 A 
ATOM      3  C   UNL A   1      -8.261   0.863  34.721  0.00  0.00    -0.001 A 
ATOM      4  C   UNL A   1      -9.473   0.263  35.216  0.00  0.00    +0.003 A 
ATOM      5  C   UNL A   1     -10.611   1.069  35.076  0.00  0.00    +0.040 A 
ATOM      6  C   UNL A   1     -10.559   2.281  34.572  0.00  0.00    +0.173 A 
ATOM      7  O   UNL A   1      -9.327   4.031  33.577  0.00  0.00    -0.448 OA
ATOM      8  C   UNL A   1      -8.302   4.597  32.990  0.00  0.00    +0.176 A 
ATOM      9  C   UNL A   1      -8.563   5.600  32.150  0.00  0.00    +0.179 A 
ATOM     10  C   UNL A   1      -7.554   6.143  31.362  0.00  0.00    +0.041 A 
ATOM     11  C   UNL A   1      -6.214   5.574  31.494  0.00  0.00    +0.003 A 
ATOM     12  C   UNL A   1      -5.989   4.532  32.391  0.00  0.00    -0.001 A 
ATOM     13  C   UNL A   1      -7.008   4.057  33.090  0.00  0.00    +0.020 A 
ATOM     14  C   UNL A   1      -7.000   2.722  33.803  0.00  0.00    +0.059 C 
ENDROOT
BRANCH   3  15
ATOM     15  C   UNL A   1      -7.052  -0.023  34.895  0.00  0.00    -0.000 A 
ATOM     16  C   UNL A   1      -5.926   0.471  35.377  0.00  0.00    -0.000 A 
ATOM     17  C   UNL A   1      -4.751  -0.362  35.470  0.00  0.00    -0.000 A 
ATOM     18  C   UNL A   1      -4.734  -1.670  34.952  0.00  0.00    -0.000 A 
ATOM     19  C   UNL A   1      -7.028  -1.341  34.343  0.00  0.00    -0.000 A 
ATOM     20  C   UNL A   1      -5.849  -2.153  34.425  0.00  0.00    -0.000 A 
ENDBRANCH   3  15
BRANCH   6  21
ATOM     21  O   UNL A   1     -11.705   3.013  34.507  0.00  0.00    -0.461 OA
BRANCH  21  22
ATOM     22  C   UNL A   1     -12.936   2.434  34.474  0.00  0.00    +0.319 C 
BRANCH  22  23
ATOM     23  C   UNL A   1     -13.413   2.100  33.152  0.00  0.00    +0.408 C 
ATOM     24  O   UNL A   1     -14.184   2.926  32.715  0.00  0.00    -0.241 OA
ATOM     25  O   UNL A   1     -12.893   1.284  32.443  0.00  0.00    -0.241 OA
ENDBRANCH  22  23
ENDBRANCH  21  22
ENDBRANCH   6  21
BRANCH   9  26
ATOM     26  O   UNL A   1      -9.732   6.153  32.034  0.00  0.00    -0.447 OA
BRANCH  26  27
ATOM     27  C   UNL A   1      -9.942   7.335  31.413  0.00  0.00    +0.180 C 
ATOM     28  C   UNL A   1     -10.160   8.344  32.024  0.00  0.00    +0.041 C 
BRANCH  28  29
ATOM     29  C   UNL A   1     -10.729   9.237  31.817  0.00  0.00    +0.003 C 
ATOM     30  C   UNL A   1     -11.674  10.071  32.651  0.00  0.00    +0.000 C 
BRANCH  30  31
ATOM     31  C   UNL A   1     -11.651   9.652  33.982  0.00  0.00    +0.000 C 
ATOM     32  C   UNL A   1     -12.682   9.852  34.794  0.00  0.00    +0.000 C 
ENDBRANCH  30  31
ENDBRANCH  28  29
ENDBRANCH  26  27
ENDBRANCH   9  26
TORSDOF 8
ENDMDL
ENDMDL
