REMARK  Name = No_4595-gen_results/8p0m/2024-11-26-14-13-15/
REMARK  8 active torsions:
REMARK  status: ('A' for Active; 'I' for Inactive)
REMARK    1  A    between atoms: C_3  and  C_8
REMARK    2  A    between atoms: C_6  and  O_7
REMARK    3  A    between atoms: O_7  and  C_14
REMARK    4  A    between atoms: C_14  and  C_15
REMARK    5  A    between atoms: C_20  and  O_26
REMARK    6  A    between atoms: O_26  and  C_27
REMARK    7  A    between atoms: C_28  and  C_29
REMARK    8  A    between atoms: C_30  and  C_31
REMARK                            x       y       z     vdW  Elec       q    Type
REMARK                         _______ _______ _______ _____ _____    ______ ____
ROOT
ATOM      1  C   UNL A   1     -28.016  -0.814  28.878  0.00  0.00    +0.175 A 
ATOM      2  C   UNL A   1     -27.064  -0.119  28.608  0.00  0.00    +0.020 A 
ATOM      3  C   UNL A   1     -25.792  -0.430  29.076  0.00  0.00    -0.001 A 
ATOM      4  C   UNL A   1     -25.576  -1.565  29.936  0.00  0.00    +0.003 A 
ATOM      5  C   UNL A   1     -26.735  -2.300  30.217  0.00  0.00    +0.040 A 
ATOM      6  C   UNL A   1     -27.918  -1.954  29.763  0.00  0.00    +0.173 A 
ATOM      7  O   UNL A   1     -29.270  -0.522  28.462  0.00  0.00    -0.448 OA
ATOM      8  C   UNL A   1     -29.533   0.409  27.579  0.00  0.00    +0.176 A 
ATOM      9  C   UNL A   1     -30.682   0.301  26.909  0.00  0.00    +0.179 A 
ATOM     10  C   UNL A   1     -30.960   1.148  25.842  0.00  0.00    +0.041 A 
ATOM     11  C   UNL A   1     -29.953   2.147  25.492  0.00  0.00    +0.003 A 
ATOM     12  C   UNL A   1     -28.771   2.226  26.226  0.00  0.00    -0.001 A 
ATOM     13  C   UNL A   1     -28.573   1.369  27.215  0.00  0.00    +0.020 A 
ATOM     14  C   UNL A   1     -27.223   1.092  27.841  0.00  0.00    +0.059 C 
ENDROOT
BRANCH   3  15
ATOM     15  C   UNL A   1     -24.529   0.349  28.800  0.00  0.00    -0.000 A 
ATOM     16  C   UNL A   1     -24.481   1.211  27.800  0.00  0.00    -0.000 A 
ATOM     17  C   UNL A   1     -23.248   1.897  27.495  0.00  0.00    -0.000 A 
ATOM     18  C   UNL A   1     -22.050   1.589  28.164  0.00  0.00    -0.000 A 
ATOM     19  C   UNL A   1     -23.307   0.015  29.462  0.00  0.00    -0.000 A 
ATOM     20  C   UNL A   1     -22.085   0.690  29.137  0.00  0.00    -0.000 A 
ENDBRANCH   3  15
BRANCH   6  21
ATOM     21  O   UNL A   1     -29.000  -2.701  30.115  0.00  0.00    -0.461 OA
BRANCH  21  22
ATOM     22  C   UNL A   1     -28.881  -3.965  30.606  0.00  0.00    +0.319 C 
BRANCH  22  23
ATOM     23  C   UNL A   1     -30.131  -4.668  30.778  0.00  0.00    +0.408 C 
ATOM     24  O   UNL A   1     -30.005  -5.688  31.419  0.00  0.00    -0.241 OA
ATOM     25  O   UNL A   1     -31.206  -4.171  30.587  0.00  0.00    -0.241 OA
ENDBRANCH  22  23
ENDBRANCH  21  22
ENDBRANCH   6  21
BRANCH   9  26
ATOM     26  O   UNL A   1     -31.614  -0.549  27.216  0.00  0.00    -0.447 OA
BRANCH  26  27
ATOM     27  C   UNL A   1     -32.427  -0.414  28.287  0.00  0.00    +0.180 C 
ATOM     28  C   UNL A   1     -32.987   0.618  28.533  0.00  0.00    +0.041 C 
BRANCH  28  29
ATOM     29  C   UNL A   1     -33.310   1.096  29.445  0.00  0.00    +0.003 C 
ATOM     30  C   UNL A   1     -33.864   2.470  29.746  0.00  0.00    +0.000 C 
BRANCH  30  31
ATOM     31  C   UNL A   1     -34.135   3.158  28.562  0.00  0.00    +0.000 C 
ATOM     32  C   UNL A   1     -33.795   2.667  27.377  0.00  0.00    +0.000 C 
ENDBRANCH  30  31
ENDBRANCH  28  29
ENDBRANCH  26  27
ENDBRANCH   9  26
TORSDOF 8
