REMARK  Name = No_4596-gen_results/8p0m/2024-11-26-14-13-15/
REMARK  3 active torsions:
REMARK  status: ('A' for Active; 'I' for Inactive)
REMARK    1  A    between atoms: C_2  and  C_3
REMARK    2  A    between atoms: C_7  and  C_10
REMARK    3  A    between atoms: C_10  and  N_11
REMARK                            x       y       z     vdW  Elec       q    Type
REMARK                         _______ _______ _______ _____ _____    ______ ____
ROOT
ATOM      1  C   UNL A   1     -27.190   0.246  29.527  0.00  0.00    +0.068 A 
ATOM      2  C   UNL A   1     -27.691   0.297  30.829  0.00  0.00    +0.005 A 
ATOM      3  C   UNL A   1     -27.320   1.093  31.954  0.00  0.00    -0.003 A 
ATOM      4  C   UNL A   1     -26.250   2.057  31.683  0.00  0.00    -0.006 A 
ATOM      5  C   UNL A   1     -25.637   2.074  30.409  0.00  0.00    -0.003 A 
ATOM      6  C   UNL A   1     -26.050   1.208  29.468  0.00  0.00    +0.005 A 
ENDROOT
BRANCH   1   8
ATOM      7  O   UNL A   1     -28.123  -1.335  28.487  0.00  0.00    -0.254 OA
ATOM      8  C   UNL A   1     -27.481  -0.404  28.709  0.00  0.00    +0.333 C 
ATOM      9  F   UNL A   1     -26.728  -0.124  27.407  0.00  0.00    -0.159 F 
ENDBRANCH   1   8
BRANCH   4  10
ATOM     10  C   UNL A   1     -25.801   2.965  32.763  0.00  0.00    +0.099 C 
BRANCH  10  11
ATOM     11  N   UNL A   1     -26.206   4.195  32.690  0.00  0.00    -0.269 NA
ATOM     12  C   UNL A   1     -25.690   5.235  33.395  0.00  0.00    +0.072 C 
ATOM     13  C   UNL A   1     -27.238   4.602  31.802  0.00  0.00    +0.072 C 
ATOM     14  C   UNL A   1     -27.344   5.642  31.307  0.00  0.00    +0.017 C 
ATOM     15  C   UNL A   1     -25.787   6.598  33.038  0.00  0.00    +0.017 C 
ATOM     16  C   UNL A   1     -26.756   6.832  31.995  0.00  0.00    +0.003 C 
ENDBRANCH  10  11
ENDBRANCH   4  10
TORSDOF 3
