MODEL 4596
MODEL 1
REMARK VINA RESULT:    -6.090      0.000      0.000
REMARK INTER + INTRA:          -7.643
REMARK INTER:                  -7.158
REMARK INTRA:                  -0.485
REMARK UNBOUND:                -0.485
REMARK  Name = No_4596-gen_results/8p0m/2024-11-26-14-13-15/
REMARK  3 active torsions:
REMARK  status: ('A' for Active; 'I' for Inactive)
REMARK    1  A    between atoms: C_2  and  C_3
REMARK    2  A    between atoms: C_7  and  C_10
REMARK    3  A    between atoms: C_10  and  N_11
REMARK                            x       y       z     vdW  Elec       q    Type
REMARK                         _______ _______ _______ _____ _____    ______ ____
ROOT
ATOM      1  C   UNL A   1     -23.395   1.786  26.471  0.00  0.00    +0.068 A 
ATOM      2  C   UNL A   1     -24.520   0.998  26.716  0.00  0.00    +0.005 A 
ATOM      3  C   UNL A   1     -24.884   0.192  27.837  0.00  0.00    -0.003 A 
ATOM      4  C   UNL A   1     -23.925   0.231  28.944  0.00  0.00    -0.006 A 
ATOM      5  C   UNL A   1     -22.727   0.967  28.798  0.00  0.00    -0.003 A 
ATOM      6  C   UNL A   1     -22.491   1.621  27.648  0.00  0.00    +0.005 A 
ENDROOT
BRANCH   1   8
ATOM      7  O   UNL A   1     -22.394   2.370  24.708  0.00  0.00    -0.254 OA
ATOM      8  C   UNL A   1     -23.142   2.358  25.585  0.00  0.00    +0.333 C 
ATOM      9  F   UNL A   1     -23.919   3.669  25.460  0.00  0.00    -0.159 F 
ENDBRANCH   1   8
BRANCH   4  10
ATOM     10  C   UNL A   1     -24.209  -0.537  30.178  0.00  0.00    +0.099 C 
BRANCH  10  11
ATOM     11  N   UNL A   1     -24.567  -1.773  30.019  0.00  0.00    -0.269 NA
ATOM     12  C   UNL A   1     -25.754  -2.304  30.410  0.00  0.00    +0.072 C 
ATOM     13  C   UNL A   1     -23.741  -2.723  29.359  0.00  0.00    +0.072 C 
ATOM     14  C   UNL A   1     -24.102  -3.639  28.753  0.00  0.00    +0.017 C 
ATOM     15  C   UNL A   1     -26.344  -3.475  29.884  0.00  0.00    +0.017 C 
ATOM     16  C   UNL A   1     -25.425  -4.250  29.086  0.00  0.00    +0.003 C 
ENDBRANCH  10  11
ENDBRANCH   4  10
TORSDOF 3
ENDMDL
ENDMDL
