REMARK  Name = No_4597-gen_results/8p0m/2024-11-26-14-13-15/
REMARK  2 active torsions:
REMARK  status: ('A' for Active; 'I' for Inactive)
REMARK    1  A    between atoms: C_5  and  C_8
REMARK    2  A    between atoms: C_8  and  N_9
REMARK                            x       y       z     vdW  Elec       q    Type
REMARK                         _______ _______ _______ _____ _____    ______ ____
ROOT
ATOM      1 CL   UNL A   1     -28.149  -0.820  28.908  0.00  0.00    -0.081 Cl
ATOM      2  C   UNL A   1     -26.912  -0.080  28.945  0.00  0.00    +0.070 A 
ATOM      3  C   UNL A   1     -26.738   1.044  29.253  0.00  0.00    +0.095 A 
ATOM      4  C   UNL A   1     -25.439   1.712  29.276  0.00  0.00    +0.151 A 
ATOM      5  C   UNL A   1     -24.281   0.989  28.854  0.00  0.00    +0.049 A 
ATOM      6  C   UNL A   1     -24.487  -0.304  28.496  0.00  0.00    +0.002 A 
ATOM      7  C   UNL A   1     -25.705  -0.867  28.524  0.00  0.00    +0.012 A 
ATOM      8 CL   UNL A   1     -28.009   2.110  29.801  0.00  0.00    -0.079 Cl
ATOM      9  F   UNL A   1     -25.188   2.960  29.682  0.00  0.00    -0.203 F 
ENDROOT
BRANCH   5  10
ATOM     10  C   UNL A   1     -22.888   1.396  28.861  0.00  0.00    +0.249 C 
BRANCH  10  11
ATOM     11  N   UNL A   1     -21.893   0.678  28.543  0.00  0.00    -0.081 NA
ATOM     12  C   UNL A   1     -21.383  -0.127  29.194  0.00  0.00    +0.535 C 
ATOM     13  N   UNL A   1     -21.866  -0.593  30.292  0.00  0.00    +0.135 NA
ATOM     14  N   UNL A   1     -20.292  -0.889  28.693  0.00  0.00    +0.135 NA
ENDBRANCH  10  11
ENDBRANCH   5  10
TORSDOF 2
