MODEL 4597
MODEL 1
REMARK VINA RESULT:    -5.691      0.000      0.000
REMARK INTER + INTRA:          -6.618
REMARK INTER:                  -6.357
REMARK INTRA:                  -0.262
REMARK UNBOUND:                -0.262
REMARK  Name = No_4597-gen_results/8p0m/2024-11-26-14-13-15/
REMARK  2 active torsions:
REMARK  status: ('A' for Active; 'I' for Inactive)
REMARK    1  A    between atoms: C_5  and  C_8
REMARK    2  A    between atoms: C_8  and  N_9
REMARK                            x       y       z     vdW  Elec       q    Type
REMARK                         _______ _______ _______ _____ _____    ______ ____
ROOT
ATOM      1 CL   UNL A   1     -23.347   3.003  25.588  0.00  0.00    -0.081 Cl
ATOM      2  C   UNL A   1     -23.540   1.840  26.418  0.00  0.00    +0.070 A 
ATOM      3  C   UNL A   1     -24.410   1.047  26.380  0.00  0.00    +0.095 A 
ATOM      4  C   UNL A   1     -24.519  -0.117  27.256  0.00  0.00    +0.151 A 
ATOM      5  C   UNL A   1     -23.538  -0.309  28.277  0.00  0.00    +0.049 A 
ATOM      6  C   UNL A   1     -22.540   0.610  28.321  0.00  0.00    +0.002 A 
ATOM      7  C   UNL A   1     -22.483   1.644  27.466  0.00  0.00    +0.012 A 
ATOM      8 CL   UNL A   1     -25.711   1.087  25.214  0.00  0.00    -0.079 Cl
ATOM      9  F   UNL A   1     -25.448  -1.075  27.202  0.00  0.00    -0.203 F 
ENDROOT
BRANCH   5  10
ATOM     10  C   UNL A   1     -23.381  -1.411  29.208  0.00  0.00    +0.249 C 
BRANCH  10  11
ATOM     11  N   UNL A   1     -23.315  -2.642  28.913  0.00  0.00    -0.081 NA
ATOM     12  C   UNL A   1     -24.110  -3.450  29.128  0.00  0.00    +0.535 C 
ATOM     13  N   UNL A   1     -25.310  -3.207  29.525  0.00  0.00    +0.135 NA
ATOM     14  N   UNL A   1     -23.921  -4.794  28.704  0.00  0.00    +0.135 NA
ENDBRANCH  10  11
ENDBRANCH   5  10
TORSDOF 2
ENDMDL
ENDMDL
