REMARK  Name = No_4598-gen_results/8p0m/2024-11-26-14-13-15/
REMARK  4 active torsions:
REMARK  status: ('A' for Active; 'I' for Inactive)
REMARK    1  A    between atoms: C_6  and  C_7
REMARK    2  A    between atoms: N_9  and  C_10
REMARK    3  A    between atoms: C_12  and  C_13
REMARK    4  A    between atoms: C_14  and  C_15
REMARK                            x       y       z     vdW  Elec       q    Type
REMARK                         _______ _______ _______ _____ _____    ______ ____
ROOT
ATOM      1  C   UNL A   1     -29.073  -2.784  30.178  0.00  0.00    +0.269 C 
ATOM      2  O   UNL A   1     -29.002  -3.985  30.235  0.00  0.00    -0.268 OA
ATOM      3  N   UNL A   1     -30.232  -2.152  30.471  0.00  0.00    -0.174 NA
ENDROOT
BRANCH   1   9
ATOM      4  C   UNL A   1     -28.016  -0.814  28.878  0.00  0.00    +0.007 A 
ATOM      5  C   UNL A   1     -27.064  -0.119  28.608  0.00  0.00    +0.030 A 
ATOM      6  C   UNL A   1     -25.792  -0.430  29.076  0.00  0.00    +0.140 A 
ATOM      7  C   UNL A   1     -25.576  -1.565  29.936  0.00  0.00    +0.030 A 
ATOM      8  C   UNL A   1     -26.735  -2.300  30.217  0.00  0.00    +0.007 A 
ATOM      9  C   UNL A   1     -27.918  -1.954  29.763  0.00  0.00    +0.056 A 
ATOM     10  F   UNL A   1     -24.673   0.283  28.761  0.00  0.00    -0.204 F 
ENDBRANCH   1   9
BRANCH   3  11
ATOM     11  C   UNL A   1     -31.396  -2.933  30.836  0.00  0.00    +0.089 C 
ATOM     12  C   UNL A   1     -31.452  -3.645  31.792  0.00  0.00    +0.018 C 
BRANCH  12  13
ATOM     13  C   UNL A   1     -30.611  -3.338  32.870  0.00  0.00    +0.001 C 
ATOM     14  C   UNL A   1     -30.498  -4.299  33.991  0.00  0.00    +0.000 C 
BRANCH  14  15
ATOM     15  C   UNL A   1     -31.228  -5.450  33.917  0.00  0.00    +0.000 C 
ATOM     16  C   UNL A   1     -32.024  -5.736  32.834  0.00  0.00    +0.000 C 
ENDBRANCH  14  15
ENDBRANCH  12  13
ENDBRANCH   3  11
TORSDOF 4
