MODEL 4598
MODEL 1
REMARK VINA RESULT:    -5.897      0.000      0.000
REMARK INTER + INTRA:          -7.696
REMARK INTER:                  -7.276
REMARK INTRA:                  -0.420
REMARK UNBOUND:                -0.420
REMARK  Name = No_4598-gen_results/8p0m/2024-11-26-14-13-15/
REMARK  4 active torsions:
REMARK  status: ('A' for Active; 'I' for Inactive)
REMARK    1  A    between atoms: C_6  and  C_7
REMARK    2  A    between atoms: N_9  and  C_10
REMARK    3  A    between atoms: C_12  and  C_13
REMARK    4  A    between atoms: C_14  and  C_15
REMARK                            x       y       z     vdW  Elec       q    Type
REMARK                         _______ _______ _______ _____ _____    ______ ____
ROOT
ATOM      1  C   UNL A   1     -23.190  -1.021  28.809  0.00  0.00    +0.269 C 
ATOM      2  O   UNL A   1     -21.999  -1.143  28.940  0.00  0.00    -0.268 OA
ATOM      3  N   UNL A   1     -23.720   0.167  28.440  0.00  0.00    -0.174 NA
ENDROOT
BRANCH   1   9
ATOM      4  C   UNL A   1     -23.844  -3.521  28.733  0.00  0.00    +0.007 A 
ATOM      5  C   UNL A   1     -24.599  -4.423  29.017  0.00  0.00    +0.030 A 
ATOM      6  C   UNL A   1     -25.826  -4.170  29.619  0.00  0.00    +0.140 A 
ATOM      7  C   UNL A   1     -26.218  -2.828  29.966  0.00  0.00    +0.030 A 
ATOM      8  C   UNL A   1     -25.276  -1.849  29.624  0.00  0.00    +0.007 A 
ATOM      9  C   UNL A   1     -24.122  -2.143  29.071  0.00  0.00    +0.056 A 
ATOM     10  F   UNL A   1     -26.741  -5.138  29.912  0.00  0.00    -0.204 F 
ENDBRANCH   1   9
BRANCH   3  11
ATOM     11  C   UNL A   1     -22.845   1.300  28.220  0.00  0.00    +0.089 C 
ATOM     12  C   UNL A   1     -22.661   1.808  27.156  0.00  0.00    +0.018 C 
BRANCH  12  13
ATOM     13  C   UNL A   1     -23.679   1.681  26.201  0.00  0.00    +0.001 C 
ATOM     14  C   UNL A   1     -24.516   2.860  25.880  0.00  0.00    +0.000 C 
BRANCH  14  15
ATOM     15  C   UNL A   1     -24.251   4.025  26.539  0.00  0.00    +0.000 C 
ATOM     16  C   UNL A   1     -25.194   4.645  27.324  0.00  0.00    +0.000 C 
ENDBRANCH  14  15
ENDBRANCH  12  13
ENDBRANCH   3  11
TORSDOF 4
ENDMDL
ENDMDL
