MODEL 4599
MODEL 1
REMARK VINA RESULT:    -5.376      0.000      0.000
REMARK INTER + INTRA:         -12.991
REMARK INTER:                  -8.832
REMARK INTRA:                  -4.158
REMARK UNBOUND:                -4.158
REMARK  Name = No_4599-gen_results/8p0m/2024-11-26-14-13-15/
REMARK  11 active torsions:
REMARK  status: ('A' for Active; 'I' for Inactive)
REMARK    1  A    between atoms: C_1  and  C_2
REMARK    2  A    between atoms: C_5  and  C_12
REMARK    3  A    between atoms: N_8  and  C_11
REMARK    4  A    between atoms: C_11  and  C_15
REMARK    5  A    between atoms: C_15  and  O_16
REMARK    6  A    between atoms: O_16  and  C_18
REMARK    7  A    between atoms: C_18  and  C_19
REMARK    8  A    between atoms: N_21  and  C_22
REMARK    9  A    between atoms: C_22  and  C_23
REMARK   10  A    between atoms: C_22  and  C_33
REMARK   11  A    between atoms: C_26  and  C_29
REMARK                            x       y       z     vdW  Elec       q    Type
REMARK                         _______ _______ _______ _____ _____    ______ ____
ROOT
ATOM      1  C   UNL A   1     -27.634 -10.767  34.431  0.00  0.00    +0.294 C 
ENDROOT
BRANCH   1   2
ATOM      2  C   UNL A   1     -27.849 -12.040  33.651  0.00  0.00    +0.286 C 
ATOM      3  O   UNL A   1     -26.832 -12.726  33.507  0.00  0.00    -0.269 OA
ATOM      4  N   UNL A   1     -28.900 -12.279  32.951  0.00  0.00    -0.195 NA
BRANCH   4   5
ATOM      5  C   UNL A   1     -29.045 -13.367  32.054  0.00  0.00    +0.139 C 
BRANCH   5   6
ATOM      6  C   UNL A   1     -29.307 -12.921  30.749  0.00  0.00    +0.002 A 
ATOM      7  C   UNL A   1     -28.813 -11.744  30.226  0.00  0.00    -0.002 A 
ATOM      8  C   UNL A   1     -29.183 -11.190  28.989  0.00  0.00    +0.004 A 
ATOM      9  C   UNL A   1     -30.005 -11.869  28.146  0.00  0.00    +0.071 A 
ATOM     10  C   UNL A   1     -30.292 -13.197  28.594  0.00  0.00    +0.004 A 
ATOM     11  C   UNL A   1     -30.083 -13.646  29.793  0.00  0.00    -0.002 A 
BRANCH   9  12
ATOM     12  C   UNL A   1     -30.346 -11.364  26.841  0.00  0.00    +0.419 C 
ATOM     13  F   UNL A   1     -31.174 -11.761  26.439  0.00  0.00    -0.166 F 
ATOM     14  F   UNL A   1     -29.258 -11.480  26.049  0.00  0.00    -0.166 F 
ATOM     15  F   UNL A   1     -30.439  -9.952  27.070  0.00  0.00    -0.166 F 
ENDBRANCH   9  12
ENDBRANCH   5   6
BRANCH   5  16
ATOM     16  C   UNL A   1     -30.109 -14.247  32.575  0.00  0.00    -0.005 C 
ATOM     17  C   UNL A   1     -30.763 -14.123  33.378  0.00  0.00    -0.028 C 
ATOM     18  C   UNL A   1     -31.820 -15.043  33.857  0.00  0.00    +0.030 C 
ENDBRANCH   5  16
ENDBRANCH   4   5
ENDBRANCH   1   2
BRANCH   1  19
ATOM     19  O   UNL A   1     -28.780 -10.452  35.095  0.00  0.00    -0.437 OA
BRANCH  19  20
ATOM     20  C   UNL A   1     -29.092  -9.370  35.538  0.00  0.00    +0.338 C 
ATOM     21  O   UNL A   1     -28.598  -8.993  36.714  0.00  0.00    -0.248 OA
BRANCH  20  22
ATOM     22  C   UNL A   1     -29.737  -8.485  34.725  0.00  0.00    +0.204 C 
BRANCH  22  24
ATOM     23  C   UNL A   1     -30.463  -8.949  32.340  0.00  0.00    +0.249 C 
ATOM     24  N   UNL A   1     -30.674  -9.008  33.776  0.00  0.00    -0.264 N 
ATOM     25  O   UNL A   1     -29.204  -8.955  32.088  0.00  0.00    -0.270 OA
ATOM     26  C   UNL A   1     -31.992  -9.194  34.325  0.00  0.00    +0.116 C 
BRANCH  23  27
ATOM     27  C   UNL A   1     -31.254  -9.488  31.601  0.00  0.00    +0.054 A 
ATOM     28  C   UNL A   1     -31.812 -10.701  31.842  0.00  0.00    +0.005 A 
ATOM     29  C   UNL A   1     -32.783 -11.373  30.949  0.00  0.00    +0.007 A 
ATOM     30  C   UNL A   1     -33.166 -10.669  29.761  0.00  0.00    +0.080 A 
ATOM     31  C   UNL A   1     -32.618  -9.379  29.582  0.00  0.00    +0.007 A 
ATOM     32  C   UNL A   1     -31.721  -8.819  30.455  0.00  0.00    +0.005 A 
BRANCH  30  33
ATOM     33  C   UNL A   1     -34.116 -11.185  28.806  0.00  0.00    +0.388 C 
ATOM     34  O   UNL A   1     -35.003 -11.802  28.881  0.00  0.00    -0.241 OA
ATOM     35  O   UNL A   1     -33.841 -10.627  27.544  0.00  0.00    -0.241 OA
ENDBRANCH  30  33
ENDBRANCH  23  27
ENDBRANCH  22  24
ENDBRANCH  20  22
ENDBRANCH  19  20
ENDBRANCH   1  19
TORSDOF 11
ENDMDL
ENDMDL
