REMARK  Name = No_4599-gen_results/8p0m/2024-11-26-14-13-15/
REMARK  11 active torsions:
REMARK  status: ('A' for Active; 'I' for Inactive)
REMARK    1  A    between atoms: C_1  and  C_2
REMARK    2  A    between atoms: C_5  and  C_12
REMARK    3  A    between atoms: N_8  and  C_11
REMARK    4  A    between atoms: C_11  and  C_15
REMARK    5  A    between atoms: C_15  and  O_16
REMARK    6  A    between atoms: O_16  and  C_18
REMARK    7  A    between atoms: C_18  and  C_19
REMARK    8  A    between atoms: N_21  and  C_22
REMARK    9  A    between atoms: C_22  and  C_23
REMARK   10  A    between atoms: C_22  and  C_33
REMARK   11  A    between atoms: C_26  and  C_29
REMARK                            x       y       z     vdW  Elec       q    Type
REMARK                         _______ _______ _______ _____ _____    ______ ____
ROOT
ATOM      1  C   UNL A   1     -30.242  -5.704  30.550  0.00  0.00    +0.294 C 
ENDROOT
BRANCH   1   2
ATOM      2  C   UNL A   1     -31.263  -5.625  29.443  0.00  0.00    +0.286 C 
ATOM      3  O   UNL A   1     -31.237  -6.579  28.658  0.00  0.00    -0.269 OA
ATOM      4  N   UNL A   1     -31.917  -4.558  29.149  0.00  0.00    -0.195 NA
BRANCH   4   5
ATOM      5  C   UNL A   1     -32.728  -4.397  27.998  0.00  0.00    +0.139 C 
BRANCH   5   6
ATOM      6  C   UNL A   1     -32.387  -3.233  27.292  0.00  0.00    +0.002 A 
ATOM      7  C   UNL A   1     -32.559  -3.082  25.931  0.00  0.00    -0.002 A 
ATOM      8  C   UNL A   1     -32.084  -2.001  25.170  0.00  0.00    +0.004 A 
ATOM      9  C   UNL A   1     -31.496  -0.936  25.776  0.00  0.00    +0.071 A 
ATOM     10  C   UNL A   1     -31.566  -0.995  27.204  0.00  0.00    +0.004 A 
ATOM     11  C   UNL A   1     -31.859  -2.052  27.897  0.00  0.00    -0.002 A 
BRANCH   9  12
ATOM     12  C   UNL A   1     -31.063   0.221  25.035  0.00  0.00    +0.419 C 
ATOM     13  F   UNL A   1     -30.916   1.044  25.587  0.00  0.00    -0.166 F 
ATOM     14  F   UNL A   1     -31.925   0.410  24.011  0.00  0.00    -0.166 F 
ATOM     15  F   UNL A   1     -29.878  -0.254  24.384  0.00  0.00    -0.166 F 
ENDBRANCH   9  12
ENDBRANCH   5   6
BRANCH   5  16
ATOM     16  C   UNL A   1     -34.139  -4.401  28.432  0.00  0.00    -0.005 C 
ATOM     17  C   UNL A   1     -34.731  -5.170  28.816  0.00  0.00    -0.028 C 
ATOM     18  C   UNL A   1     -36.149  -5.117  29.240  0.00  0.00    +0.030 C 
ENDBRANCH   5  16
ENDBRANCH   4   5
ENDBRANCH   1   2
BRANCH   1  19
ATOM     19  O   UNL A   1     -29.894  -4.443  30.927  0.00  0.00    -0.437 OA
BRANCH  19  20
ATOM     20  C   UNL A   1     -28.994  -3.770  30.479  0.00  0.00    +0.338 C 
ATOM     21  O   UNL A   1     -28.048  -4.365  29.758  0.00  0.00    -0.248 OA
BRANCH  20  22
ATOM     22  C   UNL A   1     -29.101  -2.411  30.522  0.00  0.00    +0.204 C 
BRANCH  22  24
ATOM     23  C   UNL A   1     -28.016  -0.814  28.878  0.00  0.00    +0.249 C 
ATOM     24  N   UNL A   1     -27.982  -1.637  30.075  0.00  0.00    -0.264 N 
ATOM     25  O   UNL A   1     -29.216  -0.413  28.663  0.00  0.00    -0.270 OA
ATOM     26  C   UNL A   1     -26.732  -2.068  30.643  0.00  0.00    +0.116 C 
BRANCH  23  27
ATOM     27  C   UNL A   1     -27.064  -0.119  28.608  0.00  0.00    +0.054 A 
ATOM     28  C   UNL A   1     -26.929   1.171  29.008  0.00  0.00    +0.005 A 
ATOM     29  C   UNL A   1     -25.770   2.034  28.688  0.00  0.00    +0.007 A 
ATOM     30  C   UNL A   1     -24.714   1.443  27.919  0.00  0.00    +0.080 A 
ATOM     31  C   UNL A   1     -24.859   0.078  27.584  0.00  0.00    +0.007 A 
ATOM     32  C   UNL A   1     -25.965  -0.661  27.916  0.00  0.00    +0.005 A 
BRANCH  30  33
ATOM     33  C   UNL A   1     -23.513   2.151  27.547  0.00  0.00    +0.388 C 
ATOM     34  O   UNL A   1     -22.489   1.853  27.359  0.00  0.00    -0.241 OA
ATOM     35  O   UNL A   1     -23.843   3.489  27.267  0.00  0.00    -0.241 OA
ENDBRANCH  30  33
ENDBRANCH  23  27
ENDBRANCH  22  24
ENDBRANCH  20  22
ENDBRANCH  19  20
ENDBRANCH   1  19
TORSDOF 11
