MODEL 459
MODEL 1
REMARK VINA RESULT:    -6.660      0.000      0.000
REMARK INTER + INTRA:          -7.892
REMARK INTER:                  -7.439
REMARK INTRA:                  -0.453
REMARK UNBOUND:                -0.453
REMARK  Name = No_459-gen_results/8p0m/2024-11-26-14-13-15/
REMARK  2 active torsions:
REMARK  status: ('A' for Active; 'I' for Inactive)
REMARK    1  A    between atoms: C_3  and  C_4
REMARK    2  A    between atoms: C_4  and  C_8
REMARK                            x       y       z     vdW  Elec       q    Type
REMARK                         _______ _______ _______ _____ _____    ______ ____
ROOT
ATOM      1  C   UNL A   1     -24.457  -1.187  29.025  0.00  0.00    +0.053 C 
ENDROOT
BRANCH   1   4
ATOM      2  C   UNL A   1     -23.857  -3.666  28.547  0.00  0.00    -0.004 A 
ATOM      3  C   UNL A   1     -24.210  -4.647  28.697  0.00  0.00    -0.000 A 
ATOM      4  C   UNL A   1     -24.774  -2.633  29.028  0.00  0.00    -0.018 A 
ATOM      5  C   UNL A   1     -25.410  -5.232  29.278  0.00  0.00    -0.000 A 
ATOM      6  C   UNL A   1     -26.307  -4.287  29.733  0.00  0.00    -0.000 A 
ATOM      7  C   UNL A   1     -25.991  -2.982  29.669  0.00  0.00    -0.004 A 
ENDBRANCH   1   4
BRANCH   1   8
ATOM      8  C   UNL A   1     -23.698  -0.529  28.444  0.00  0.00    -0.018 A 
ATOM      9  C   UNL A   1     -22.384  -0.354  29.093  0.00  0.00    -0.004 A 
ATOM     10  C   UNL A   1     -21.534   0.584  28.311  0.00  0.00    -0.000 A 
ATOM     11  C   UNL A   1     -22.025   1.478  27.418  0.00  0.00    -0.000 A 
ATOM     12  C   UNL A   1     -23.330   1.380  27.015  0.00  0.00    -0.000 A 
ATOM     13  C   UNL A   1     -24.153   0.431  27.515  0.00  0.00    -0.004 A 
ENDBRANCH   1   8
TORSDOF 2
ENDMDL
ENDMDL
