MODEL 45
MODEL 1
REMARK VINA RESULT:    -5.969      0.000      0.000
REMARK INTER + INTRA:          -6.636
REMARK INTER:                  -6.318
REMARK INTRA:                  -0.318
REMARK UNBOUND:                -0.318
REMARK  Name = No_45-gen_results/8p0m/2024-11-26-14-13-15/
REMARK  1 active torsions:
REMARK  status: ('A' for Active; 'I' for Inactive)
REMARK    1  A    between atoms: C_2  and  C_7
REMARK                            x       y       z     vdW  Elec       q    Type
REMARK                         _______ _______ _______ _____ _____    ______ ____
ROOT
ATOM      1  C   UNL A   1     -23.820  -3.413  28.554  0.00  0.00    +0.002 A 
ATOM      2  C   UNL A   1     -24.502  -2.766  29.032  0.00  0.00    +0.018 A 
ATOM      3  C   UNL A   1     -24.159  -4.885  28.629  0.00  0.00    +0.000 A 
ATOM      4  C   UNL A   1     -25.394  -5.283  29.183  0.00  0.00    +0.000 A 
ATOM      5  C   UNL A   1     -25.845  -2.914  29.636  0.00  0.00    +0.002 A 
ATOM      6  C   UNL A   1     -26.194  -4.255  29.716  0.00  0.00    +0.000 A 
ENDROOT
BRANCH   2   7
ATOM      7  C   UNL A   1     -24.174  -1.196  28.956  0.00  0.00    +0.081 A 
ATOM      8  N   UNL A   1     -24.765  -0.572  28.048  0.00  0.00    -0.244 NA
ATOM      9  C   UNL A   1     -24.585   0.259  27.414  0.00  0.00    +0.099 A 
ATOM     10  C   UNL A   1     -23.326   0.837  27.360  0.00  0.00    +0.021 A 
ATOM     11  C   UNL A   1     -22.497   0.336  28.413  0.00  0.00    +0.003 A 
ATOM     12  C   UNL A   1     -22.755  -0.778  29.135  0.00  0.00    +0.019 A 
ENDBRANCH   2   7
TORSDOF 1
ENDMDL
ENDMDL
