REMARK  Name = No_46-gen_results/8p0m/2024-11-26-14-13-15/
REMARK  4 active torsions:
REMARK  status: ('A' for Active; 'I' for Inactive)
REMARK    1  A    between atoms: C_4  and  C_10
REMARK    2  A    between atoms: C_6  and  O_9
REMARK    3  A    between atoms: O_9  and  C_13
REMARK    4  A    between atoms: C_13  and  C_14
REMARK                            x       y       z     vdW  Elec       q    Type
REMARK                         _______ _______ _______ _____ _____    ______ ____
ROOT
ATOM      1  C   UNL A   1     -28.016  -0.814  28.878  0.00  0.00    +0.100 A 
ATOM      2 CL   UNL A   1     -26.986  -0.327  28.484  0.00  0.00    -0.079 Cl
ATOM      3  C   UNL A   1     -29.268   0.052  28.732  0.00  0.00    +0.021 A 
ATOM      4  C   UNL A   1     -30.403  -0.354  29.364  0.00  0.00    +0.084 A 
ATOM      5  C   UNL A   1     -30.456  -1.581  30.109  0.00  0.00    +0.047 A 
ATOM      6  C   UNL A   1     -29.320  -2.342  30.319  0.00  0.00    +0.179 A 
ATOM      7  C   UNL A   1     -28.131  -1.925  29.767  0.00  0.00    +0.240 A 
ATOM      8  O   UNL A   1     -27.016  -2.658  29.976  0.00  0.00    -0.282 OA
ENDROOT
BRANCH   4   9
ATOM      9  C   UNL A   1     -31.653   0.402  29.147  0.00  0.00    +0.388 C 
ATOM     10  O   UNL A   1     -32.301   0.421  28.279  0.00  0.00    -0.241 OA
ATOM     11  O   UNL A   1     -31.960   1.125  30.276  0.00  0.00    -0.241 OA
ENDBRANCH   4   9
BRANCH   6  12
ATOM     12  O   UNL A   1     -29.381  -3.482  31.083  0.00  0.00    -0.467 OA
BRANCH  12  13
ATOM     13  C   UNL A   1     -29.316  -4.655  30.431  0.00  0.00    +0.232 C 
BRANCH  13  14
ATOM     14  C   UNL A   1     -30.493  -5.487  30.670  0.00  0.00    +0.021 A 
ATOM     15  C   UNL A   1     -30.626  -6.022  31.871  0.00  0.00    -0.001 A 
ATOM     16  C   UNL A   1     -31.658  -6.950  32.099  0.00  0.00    -0.000 A 
ATOM     17  C   UNL A   1     -32.459  -7.308  31.005  0.00  0.00    -0.000 A 
ATOM     18  C   UNL A   1     -32.229  -6.838  29.747  0.00  0.00    -0.000 A 
ATOM     19  C   UNL A   1     -31.156  -5.943  29.566  0.00  0.00    -0.001 A 
ENDBRANCH  13  14
ENDBRANCH  12  13
ENDBRANCH   6  12
TORSDOF 4
