REMARK  Name = No_4600-gen_results/8p0m/2024-11-26-14-13-15/
REMARK  4 active torsions:
REMARK  status: ('A' for Active; 'I' for Inactive)
REMARK    1  A    between atoms: C_3  and  C_8
REMARK    2  A    between atoms: C_5  and  O_7
REMARK    3  A    between atoms: O_7  and  C_11
REMARK    4  A    between atoms: C_12  and  C_13
REMARK                            x       y       z     vdW  Elec       q    Type
REMARK                         _______ _______ _______ _____ _____    ______ ____
ROOT
ATOM      1  C   UNL A   1     -28.016  -0.814  28.878  0.00  0.00    +0.038 A 
ATOM      2  C   UNL A   1     -27.064  -0.119  28.608  0.00  0.00    +0.010 A 
ATOM      3  C   UNL A   1     -26.876   1.133  28.913  0.00  0.00    +0.080 A 
ATOM      4  C   UNL A   1     -27.901   1.807  29.644  0.00  0.00    +0.010 A 
ATOM      5  C   UNL A   1     -29.046  -0.232  29.718  0.00  0.00    +0.145 A 
ATOM      6  C   UNL A   1     -28.940   1.052  30.060  0.00  0.00    +0.038 A 
ENDROOT
BRANCH   3   7
ATOM      7  C   UNL A   1     -25.686   1.951  28.428  0.00  0.00    +0.388 C 
ATOM      8  O   UNL A   1     -25.246   2.911  28.873  0.00  0.00    -0.241 OA
ATOM      9  O   UNL A   1     -25.285   1.595  27.127  0.00  0.00    -0.241 OA
ENDBRANCH   3   7
BRANCH   5  10
ATOM     10  O   UNL A   1     -29.928  -1.173  30.111  0.00  0.00    -0.450 OA
BRANCH  10  11
ATOM     11  C   UNL A   1     -31.154  -1.100  29.753  0.00  0.00    +0.179 C 
ATOM     12  C   UNL A   1     -31.748  -2.329  29.663  0.00  0.00    +0.041 C 
BRANCH  12  13
ATOM     13  C   UNL A   1     -31.171  -3.452  30.237  0.00  0.00    +0.003 C 
ATOM     14  C   UNL A   1     -29.888  -3.251  30.690  0.00  0.00    +0.000 C 
ENDBRANCH  12  13
ENDBRANCH  10  11
ENDBRANCH   5  10
TORSDOF 4
