MODEL 4600
MODEL 1
REMARK VINA RESULT:    -5.386      0.000      0.000
REMARK INTER + INTRA:          -7.084
REMARK INTER:                  -6.645
REMARK INTRA:                  -0.439
REMARK UNBOUND:                -0.439
REMARK  Name = No_4600-gen_results/8p0m/2024-11-26-14-13-15/
REMARK  4 active torsions:
REMARK  status: ('A' for Active; 'I' for Inactive)
REMARK    1  A    between atoms: C_3  and  C_8
REMARK    2  A    between atoms: C_5  and  O_7
REMARK    3  A    between atoms: O_7  and  C_11
REMARK    4  A    between atoms: C_12  and  C_13
REMARK                            x       y       z     vdW  Elec       q    Type
REMARK                         _______ _______ _______ _____ _____    ______ ____
ROOT
ATOM      1  C   UNL A   1     -29.850 -10.140  31.612  0.00  0.00    +0.038 A 
ATOM      2  C   UNL A   1     -29.119 -10.375  32.546  0.00  0.00    +0.010 A 
ATOM      3  C   UNL A   1     -28.153 -11.247  32.606  0.00  0.00    +0.080 A 
ATOM      4  C   UNL A   1     -27.903 -12.052  31.454  0.00  0.00    +0.010 A 
ATOM      5  C   UNL A   1     -29.582 -10.837  30.368  0.00  0.00    +0.145 A 
ATOM      6  C   UNL A   1     -28.622 -11.762  30.348  0.00  0.00    +0.038 A 
ENDROOT
BRANCH   3   7
ATOM      7  C   UNL A   1     -27.360 -11.543  33.873  0.00  0.00    +0.388 C 
ATOM      8  O   UNL A   1     -27.014 -10.817  34.689  0.00  0.00    -0.241 OA
ATOM      9  O   UNL A   1     -26.779 -12.824  33.854  0.00  0.00    -0.241 OA
ENDBRANCH   3   7
BRANCH   5  10
ATOM     10  O   UNL A   1     -30.327 -10.327  29.367  0.00  0.00    -0.450 OA
BRANCH  10  11
ATOM     11  C   UNL A   1     -31.330 -10.977  28.910  0.00  0.00    +0.179 C 
ATOM     12  C   UNL A   1     -31.281 -11.130  27.552  0.00  0.00    +0.041 C 
BRANCH  12  13
ATOM     13  C   UNL A   1     -30.110 -10.910  26.843  0.00  0.00    +0.003 C 
ATOM     14  C   UNL A   1     -29.390 -12.054  26.584  0.00  0.00    +0.000 C 
ENDBRANCH  12  13
ENDBRANCH  10  11
ENDBRANCH   5  10
TORSDOF 4
ENDMDL
ENDMDL
