REMARK  Name = No_4601-gen_results/8p0m/2024-11-26-14-13-15/
REMARK  9 active torsions:
REMARK  status: ('A' for Active; 'I' for Inactive)
REMARK    1  A    between atoms: C_2  and  C_3
REMARK    2  A    between atoms: C_3  and  C_6
REMARK    3  A    between atoms: N_4  and  C_12
REMARK    4  A    between atoms: C_7  and  C_22
REMARK    5  A    between atoms: C_10  and  C_13
REMARK    6  A    between atoms: C_12  and  C_19
REMARK    7  A    between atoms: C_22  and  O_24
REMARK    8  A    between atoms: O_24  and  C_25
REMARK    9  A    between atoms: C_27  and  C_32
REMARK                            x       y       z     vdW  Elec       q    Type
REMARK                         _______ _______ _______ _____ _____    ______ ____
ROOT
ATOM      1  C   UNL A   1     -27.643   1.258  27.921  0.00  0.00    +0.025 A 
ATOM      2  C   UNL A   1     -27.954   1.365  26.600  0.00  0.00    +0.075 A 
ATOM      3  C   UNL A   1     -26.979   1.398  25.624  0.00  0.00    +0.006 A 
ATOM      4  C   UNL A   1     -25.589   1.535  26.040  0.00  0.00    +0.000 A 
ATOM      5  C   UNL A   1     -25.269   1.483  27.374  0.00  0.00    -0.000 A 
ATOM      6  C   UNL A   1     -26.230   1.235  28.257  0.00  0.00    -0.001 A 
ENDROOT
BRANCH   5   7
ATOM      7  C   UNL A   1     -23.839   1.502  27.712  0.00  0.00    -0.000 A 
ATOM      8  C   UNL A   1     -23.261   0.593  28.552  0.00  0.00    -0.000 A 
ATOM      9  C   UNL A   1     -21.867   0.503  28.759  0.00  0.00    -0.000 A 
ATOM     10  C   UNL A   1     -21.042   1.265  27.978  0.00  0.00    +0.000 A 
ATOM     11  C   UNL A   1     -22.910   2.225  26.864  0.00  0.00    -0.000 A 
ATOM     12  C   UNL A   1     -21.537   2.140  27.073  0.00  0.00    -0.000 A 
ENDBRANCH   5   7
BRANCH   1  13
ATOM     13  C   UNL A   1     -28.589   0.592  28.946  0.00  0.00    +0.260 C 
ATOM     14  F   UNL A   1     -29.337   1.363  29.367  0.00  0.00    -0.222 F 
BRANCH  13  16
ATOM     15  O   UNL A   1     -28.123  -1.335  28.487  0.00  0.00    -0.270 OA
ATOM     16  C   UNL A   1     -28.521  -0.436  29.078  0.00  0.00    +0.279 C 
ATOM     17  N   UNL A   1     -29.125  -0.940  30.427  0.00  0.00    -0.191 NA
BRANCH  17  18
ATOM     18  C   UNL A   1     -29.064  -2.361  30.832  0.00  0.00    +0.229 C 
BRANCH  18  19
ATOM     19  C   UNL A   1     -30.079  -3.088  30.213  0.00  0.00    +0.387 C 
ATOM     20  O   UNL A   1     -30.886  -3.493  31.097  0.00  0.00    -0.244 OA
ATOM     21  O   UNL A   1     -30.124  -3.583  29.123  0.00  0.00    -0.244 OA
ENDBRANCH  18  19
ENDBRANCH  17  18
ENDBRANCH  13  16
ENDBRANCH   1  13
BRANCH   2  22
ATOM     22  C   UNL A   1     -29.294   1.141  26.154  0.00  0.00    +0.341 C 
ATOM     23  O   UNL A   1     -29.662   0.408  25.319  0.00  0.00    -0.245 OA
BRANCH  22  24
ATOM     24  O   UNL A   1     -30.237   1.905  26.755  0.00  0.00    -0.449 OA
BRANCH  24  25
ATOM     25  C   UNL A   1     -31.606   1.657  26.568  0.00  0.00    +0.170 C 
ATOM     26  C   UNL A   1     -32.114   0.641  27.217  0.00  0.00    +0.059 C 
ATOM     27  C   UNL A   1     -32.586  -0.389  26.564  0.00  0.00    +0.129 C 
ATOM     28  C   UNL A   1     -33.201  -0.311  25.538  0.00  0.00    -0.020 C 
ATOM     29  C   UNL A   1     -32.807   0.786  24.686  0.00  0.00    -0.030 C 
ATOM     30  C   UNL A   1     -32.388   2.842  26.383  0.00  0.00    +0.048 C 
ATOM     31  C   UNL A   1     -33.098   2.158  25.030  0.00  0.00    +0.025 C 
ATOM     32  C   UNL A   1     -34.058   2.931  24.230  0.00  0.00    +0.005 C 
BRANCH  27  33
ATOM     33  C   UNL A   1     -32.654  -1.746  27.385  0.00  0.00    +0.368 C 
ATOM     34  O   UNL A   1     -33.486  -2.214  27.721  0.00  0.00    -0.245 OA
ATOM     35  O   UNL A   1     -31.362  -2.188  27.596  0.00  0.00    -0.245 OA
ENDBRANCH  27  33
ENDBRANCH  24  25
ENDBRANCH  22  24
ENDBRANCH   2  22
TORSDOF 9
