MODEL 4601
MODEL 1
REMARK VINA RESULT:    -7.741      0.000      0.000
REMARK INTER + INTRA:         -14.144
REMARK INTER:                 -11.814
REMARK INTRA:                  -2.330
REMARK UNBOUND:                -2.330
REMARK  Name = No_4601-gen_results/8p0m/2024-11-26-14-13-15/
REMARK  9 active torsions:
REMARK  status: ('A' for Active; 'I' for Inactive)
REMARK    1  A    between atoms: C_2  and  C_3
REMARK    2  A    between atoms: C_3  and  C_6
REMARK    3  A    between atoms: N_4  and  C_12
REMARK    4  A    between atoms: C_7  and  C_22
REMARK    5  A    between atoms: C_10  and  C_13
REMARK    6  A    between atoms: C_12  and  C_19
REMARK    7  A    between atoms: C_22  and  O_24
REMARK    8  A    between atoms: O_24  and  C_25
REMARK    9  A    between atoms: C_27  and  C_32
REMARK                            x       y       z     vdW  Elec       q    Type
REMARK                         _______ _______ _______ _____ _____    ______ ____
ROOT
ATOM      1  C   UNL A   1     -25.633   1.793  27.367  0.00  0.00    +0.025 A 
ATOM      2  C   UNL A   1     -24.570   1.024  27.004  0.00  0.00    +0.075 A 
ATOM      3  C   UNL A   1     -24.537   0.350  25.800  0.00  0.00    +0.006 A 
ATOM      4  C   UNL A   1     -25.758   0.296  25.005  0.00  0.00    +0.000 A 
ATOM      5  C   UNL A   1     -26.855   1.025  25.391  0.00  0.00    -0.000 A 
ATOM      6  C   UNL A   1     -26.756   1.826  26.447  0.00  0.00    -0.001 A 
ENDROOT
BRANCH   5   7
ATOM      7  C   UNL A   1     -28.006   1.022  24.477  0.00  0.00    -0.000 A 
ATOM      8  C   UNL A   1     -28.807  -0.069  24.294  0.00  0.00    -0.000 A 
ATOM      9  C   UNL A   1     -30.003  -0.038  23.545  0.00  0.00    -0.000 A 
ATOM     10  C   UNL A   1     -30.460   1.172  23.097  0.00  0.00    +0.000 A 
ATOM     11  C   UNL A   1     -28.581   2.280  24.042  0.00  0.00    -0.000 A 
ATOM     12  C   UNL A   1     -29.757   2.310  23.299  0.00  0.00    -0.000 A 
ENDBRANCH   5   7
BRANCH   1  13
ATOM     13  C   UNL A   1     -25.493   3.017  28.301  0.00  0.00    +0.260 C 
ATOM     14  F   UNL A   1     -24.918   3.866  27.772  0.00  0.00    -0.222 F 
BRANCH  13  16
ATOM     15  O   UNL A   1     -26.825   2.388  29.704  0.00  0.00    -0.270 OA
ATOM     16  C   UNL A   1     -25.977   2.989  29.219  0.00  0.00    +0.279 C 
ATOM     17  N   UNL A   1     -25.450   4.043  30.243  0.00  0.00    -0.191 NA
BRANCH  17  18
ATOM     18  C   UNL A   1     -25.963   4.117  31.628  0.00  0.00    +0.229 C 
BRANCH  18  19
ATOM     19  C   UNL A   1     -24.909   4.122  32.539  0.00  0.00    +0.387 C 
ATOM     20  O   UNL A   1     -25.376   3.965  33.703  0.00  0.00    -0.244 OA
ATOM     21  O   UNL A   1     -23.782   4.512  32.419  0.00  0.00    -0.244 OA
ENDBRANCH  18  19
ENDBRANCH  17  18
ENDBRANCH  13  16
ENDBRANCH   1  13
BRANCH   2  22
ATOM     22  C   UNL A   1     -23.330   1.129  27.709  0.00  0.00    +0.341 C 
ATOM     23  O   UNL A   1     -22.699   2.092  27.917  0.00  0.00    -0.245 OA
BRANCH  22  24
ATOM     24  O   UNL A   1     -22.817  -0.045  28.151  0.00  0.00    -0.449 OA
BRANCH  24  25
ATOM     25  C   UNL A   1     -23.322  -0.676  29.299  0.00  0.00    +0.170 C 
ATOM     26  C   UNL A   1     -23.313  -1.984  29.303  0.00  0.00    +0.059 C 
ATOM     27  C   UNL A   1     -24.438  -2.650  29.334  0.00  0.00    +0.129 C 
ATOM     28  C   UNL A   1     -25.396  -2.324  29.975  0.00  0.00    -0.020 C 
ATOM     29  C   UNL A   1     -25.563  -0.897  30.118  0.00  0.00    -0.030 C 
ATOM     30  C   UNL A   1     -23.063   0.039  30.512  0.00  0.00    +0.048 C 
ATOM     31  C   UNL A   1     -24.675  -0.106  30.938  0.00  0.00    +0.025 C 
ATOM     32  C   UNL A   1     -25.171   0.519  32.172  0.00  0.00    +0.005 C 
BRANCH  27  33
ATOM     33  C   UNL A   1     -24.365  -4.139  28.788  0.00  0.00    +0.368 C 
ATOM     34  O   UNL A   1     -23.682  -4.520  28.146  0.00  0.00    -0.245 OA
ATOM     35  O   UNL A   1     -25.425  -4.847  29.322  0.00  0.00    -0.245 OA
ENDBRANCH  27  33
ENDBRANCH  24  25
ENDBRANCH  22  24
ENDBRANCH   2  22
TORSDOF 9
ENDMDL
ENDMDL
