MODEL 4602
MODEL 1
REMARK VINA RESULT:    -7.145      0.000      0.000
REMARK INTER + INTRA:          -9.385
REMARK INTER:                  -8.816
REMARK INTRA:                  -0.570
REMARK UNBOUND:                -0.570
REMARK  Name = No_4602-gen_results/8p0m/2024-11-26-14-13-15/
REMARK  4 active torsions:
REMARK  status: ('A' for Active; 'I' for Inactive)
REMARK    1  A    between atoms: C_2  and  O_7
REMARK    2  A    between atoms: O_7  and  C_8
REMARK    3  A    between atoms: C_11  and  N_15
REMARK    4  A    between atoms: N_18  and  C_19
REMARK                            x       y       z     vdW  Elec       q    Type
REMARK                         _______ _______ _______ _____ _____    ______ ____
ROOT
ATOM      1  C   UNL A   1     -27.570   1.474  24.691  0.00  0.00    +0.145 A 
ATOM      2  C   UNL A   1     -27.852   1.655  25.884  0.00  0.00    +0.039 A 
ATOM      3  C   UNL A   1     -27.113   0.942  26.923  0.00  0.00    +0.022 A 
ATOM      4  C   UNL A   1     -26.102   0.045  26.504  0.00  0.00    +0.084 A 
ATOM      5  C   UNL A   1     -25.864  -0.094  25.153  0.00  0.00    +0.022 A 
ATOM      6  C   UNL A   1     -26.525   0.591  24.214  0.00  0.00    +0.039 A 
ENDROOT
BRANCH   4   7
ATOM      7  N   UNL A   1     -25.452  -0.663  27.477  0.00  0.00    -0.219 NA
ATOM      8  C   UNL A   1     -24.485  -0.571  28.021  0.00  0.00    +0.213 C 
ATOM      9 CL   UNL A   1     -23.486   0.706  27.767  0.00  0.00    -0.044 Cl
ATOM     10  N   UNL A   1     -24.074  -1.472  29.016  0.00  0.00    -0.184 NA
BRANCH  10  11
ATOM     11  C   UNL A   1     -24.759  -2.558  29.216  0.00  0.00    +0.073 A 
ATOM     12  C   UNL A   1     -25.603  -2.929  29.671  0.00  0.00    +0.017 A 
ATOM     13  C   UNL A   1     -26.221  -4.305  29.777  0.00  0.00    +0.001 A 
ATOM     14  C   UNL A   1     -25.398  -5.263  29.188  0.00  0.00    +0.000 A 
ATOM     15  C   UNL A   1     -24.234  -4.944  28.608  0.00  0.00    +0.001 A 
ATOM     16  C   UNL A   1     -23.845  -3.672  28.588  0.00  0.00    +0.017 A 
ENDBRANCH  10  11
ENDBRANCH   4   7
BRANCH   1  17
ATOM     17  O   UNL A   1     -28.251   2.183  23.793  0.00  0.00    -0.454 OA
BRANCH  17  19
ATOM     18  C   UNL A   1     -30.070   1.158  23.286  0.00  0.00    +0.049 A 
ATOM     19  C   UNL A   1     -29.713   2.061  23.696  0.00  0.00    +0.146 A 
ATOM     20  C   UNL A   1     -31.574   1.037  23.189  0.00  0.00    +0.061 A 
ATOM     21  C   UNL A   1     -32.379   2.152  23.504  0.00  0.00    +0.012 A 
ATOM     22  C   UNL A   1     -30.318   3.362  24.061  0.00  0.00    +0.037 A 
ATOM     23  C   UNL A   1     -31.701   3.291  23.978  0.00  0.00    +0.004 A 
ATOM     24 CL   UNL A   1     -32.379  -0.385  22.652  0.00  0.00    -0.082 Cl
ENDBRANCH  17  19
ENDBRANCH   1  17
TORSDOF 4
ENDMDL
ENDMDL
