REMARK  Name = No_4602-gen_results/8p0m/2024-11-26-14-13-15/
REMARK  4 active torsions:
REMARK  status: ('A' for Active; 'I' for Inactive)
REMARK    1  A    between atoms: C_2  and  O_7
REMARK    2  A    between atoms: O_7  and  C_8
REMARK    3  A    between atoms: C_11  and  N_15
REMARK    4  A    between atoms: N_18  and  C_19
REMARK                            x       y       z     vdW  Elec       q    Type
REMARK                         _______ _______ _______ _____ _____    ______ ____
ROOT
ATOM      1  C   UNL A   1     -30.639   0.234  30.252  0.00  0.00    +0.145 A 
ATOM      2  C   UNL A   1     -31.590   0.594  29.543  0.00  0.00    +0.039 A 
ATOM      3  C   UNL A   1     -32.373   1.769  29.918  0.00  0.00    +0.022 A 
ATOM      4  C   UNL A   1     -32.010   2.441  31.109  0.00  0.00    +0.084 A 
ATOM      5  C   UNL A   1     -30.940   1.962  31.835  0.00  0.00    +0.022 A 
ATOM      6  C   UNL A   1     -30.210   0.905  31.462  0.00  0.00    +0.039 A 
ENDROOT
BRANCH   4   7
ATOM      7  N   UNL A   1     -32.781   3.506  31.487  0.00  0.00    -0.219 NA
ATOM      8  C   UNL A   1     -33.734   3.965  31.141  0.00  0.00    +0.213 C 
ATOM      9 CL   UNL A   1     -34.605   3.296  29.921  0.00  0.00    -0.044 Cl
ATOM     10  N   UNL A   1     -34.315   5.086  31.755  0.00  0.00    -0.184 NA
BRANCH  10  11
ATOM     11  C   UNL A   1     -33.649   5.731  32.666  0.00  0.00    +0.073 A 
ATOM     12  C   UNL A   1     -33.425   6.673  33.011  0.00  0.00    +0.017 A 
ATOM     13  C   UNL A   1     -32.573   7.201  34.143  0.00  0.00    +0.001 A 
ATOM     14  C   UNL A   1     -31.898   6.162  34.781  0.00  0.00    +0.000 A 
ATOM     15  C   UNL A   1     -32.039   4.884  34.405  0.00  0.00    +0.001 A 
ATOM     16  C   UNL A   1     -32.848   4.590  33.392  0.00  0.00    +0.017 A 
ENDBRANCH  10  11
ENDBRANCH   4   7
BRANCH   1  17
ATOM     17  O   UNL A   1     -29.939  -0.819  29.836  0.00  0.00    -0.454 OA
BRANCH  17  19
ATOM     18  C   UNL A   1     -28.016  -0.814  28.878  0.00  0.00    +0.049 A 
ATOM     19  C   UNL A   1     -28.469  -0.785  29.829  0.00  0.00    +0.146 A 
ATOM     20  C   UNL A   1     -26.504  -0.778  28.877  0.00  0.00    +0.061 A 
ATOM     21  C   UNL A   1     -25.810  -0.853  30.103  0.00  0.00    +0.012 A 
ATOM     22  C   UNL A   1     -27.991  -0.892  31.226  0.00  0.00    +0.037 A 
ATOM     23  C   UNL A   1     -26.604  -0.868  31.265  0.00  0.00    +0.004 A 
ATOM     24 CL   UNL A   1     -25.558  -0.710  27.442  0.00  0.00    -0.082 Cl
ENDBRANCH  17  19
ENDBRANCH   1  17
TORSDOF 4
