MODEL 4603
MODEL 1
REMARK VINA RESULT:    -6.471      0.000      0.000
REMARK INTER + INTRA:          -6.923
REMARK INTER:                  -6.849
REMARK INTRA:                  -0.074
REMARK UNBOUND:                -0.074
REMARK  Name = No_4603-gen_results/8p0m/2024-11-26-14-13-15/
REMARK  1 active torsions:
REMARK  status: ('A' for Active; 'I' for Inactive)
REMARK    1  A    between atoms: C_8  and  C_11
REMARK                            x       y       z     vdW  Elec       q    Type
REMARK                         _______ _______ _______ _____ _____    ______ ____
ROOT
ATOM      1  C   UNL A   1     -30.042 -11.346  28.042  0.00  0.00    +0.000 A 
ATOM      2  C   UNL A   1     -29.225 -11.779  28.822  0.00  0.00    +0.000 A 
ATOM      3  C   UNL A   1     -29.077 -11.306  30.125  0.00  0.00    +0.000 A 
ATOM      4  C   UNL A   1     -29.896 -10.195  30.571  0.00  0.00    +0.000 A 
ATOM      5  C   UNL A   1     -30.819  -9.736  29.604  0.00  0.00    +0.000 A 
ATOM      6  C   UNL A   1     -30.881 -10.241  28.398  0.00  0.00    +0.000 A 
ATOM      7  C   UNL A   1     -28.107 -11.796  31.140  0.00  0.00    +0.008 A 
ATOM      8  C   UNL A   1     -28.091 -11.402  32.391  0.00  0.00    +0.098 A 
ATOM      9  C   UNL A   1     -29.086 -10.381  32.760  0.00  0.00    +0.008 A 
ATOM     10  C   UNL A   1     -29.921  -9.790  31.910  0.00  0.00    +0.000 A 
ENDROOT
BRANCH   8  11
ATOM     11  C   UNL A   1     -27.200 -11.898  33.419  0.00  0.00    +0.477 C 
ATOM     12  N   UNL A   1     -26.879 -12.921  33.807  0.00  0.00    +0.205 NA
ATOM     13  N   UNL A   1     -27.049 -10.902  34.549  0.00  0.00    +0.205 NA
ENDBRANCH   8  11
TORSDOF 1
ENDMDL
ENDMDL
