MODEL 4604
MODEL 1
REMARK VINA RESULT:    -6.533      0.000      0.000
REMARK INTER + INTRA:          -7.729
REMARK INTER:                  -7.297
REMARK INTRA:                  -0.432
REMARK UNBOUND:                -0.432
REMARK  Name = No_4604-gen_results/8p0m/2024-11-26-14-13-15/
REMARK  2 active torsions:
REMARK  status: ('A' for Active; 'I' for Inactive)
REMARK    1  A    between atoms: C_3  and  C_7
REMARK    2  A    between atoms: N_8  and  C_10
REMARK                            x       y       z     vdW  Elec       q    Type
REMARK                         _______ _______ _______ _____ _____    ______ ____
ROOT
ATOM      1  C   UNL A   1     -24.820  -1.165  28.777  0.00  0.00    +0.253 C 
ATOM      2  N   UNL A   1     -24.644  -0.413  29.607  0.00  0.00    -0.253 N 
ATOM      3  O   UNL A   1     -24.936  -0.709  27.504  0.00  0.00    -0.270 OA
ATOM      4  C   UNL A   1     -24.323   0.966  29.317  0.00  0.00    +0.120 C 
ENDROOT
BRANCH   1   7
ATOM      5  C   UNL A   1     -26.131  -3.206  29.603  0.00  0.00    +0.004 A 
ATOM      6  C   UNL A   1     -26.173  -4.256  29.686  0.00  0.00    +0.000 A 
ATOM      7  C   UNL A   1     -24.997  -2.640  28.980  0.00  0.00    +0.054 A 
ATOM      8  C   UNL A   1     -23.962  -3.417  28.500  0.00  0.00    +0.004 A 
ATOM      9  C   UNL A   1     -24.102  -4.788  28.643  0.00  0.00    +0.000 A 
ATOM     10  C   UNL A   1     -25.243  -5.298  29.225  0.00  0.00    +0.000 A 
ENDBRANCH   1   7
BRANCH   2  11
ATOM     11  C   UNL A   1     -24.428  -0.724  31.012  0.00  0.00    +0.054 A 
ATOM     12  C   UNL A   1     -23.338  -0.995  31.327  0.00  0.00    +0.015 A 
ATOM     13  C   UNL A   1     -22.976  -1.307  32.731  0.00  0.00    +0.001 A 
ATOM     14  C   UNL A   1     -23.935  -1.076  33.680  0.00  0.00    +0.000 A 
ATOM     15  C   UNL A   1     -25.384  -0.388  31.830  0.00  0.00    +0.015 A 
ATOM     16  C   UNL A   1     -25.206  -0.554  33.210  0.00  0.00    +0.001 A 
ENDBRANCH   2  11
TORSDOF 2
ENDMDL
ENDMDL
