MODEL 4605
MODEL 1
REMARK VINA RESULT:    -6.948      0.000      0.000
REMARK INTER + INTRA:          -9.013
REMARK INTER:                  -8.166
REMARK INTRA:                  -0.846
REMARK UNBOUND:                -0.846
REMARK  Name = No_4605-gen_results/8p0m/2024-11-26-14-13-15/
REMARK  3 active torsions:
REMARK  status: ('A' for Active; 'I' for Inactive)
REMARK    1  A    between atoms: C_3  and  C_4
REMARK    2  A    between atoms: C_4  and  C_8
REMARK    3  A    between atoms: C_4  and  C_15
REMARK                            x       y       z     vdW  Elec       q    Type
REMARK                         _______ _______ _______ _____ _____    ______ ____
ROOT
ATOM      1  C   UNL A   1     -23.683  -1.268  29.903  0.00  0.00    +0.109 C 
ENDROOT
BRANCH   1   2
ATOM      2  C   UNL A   1     -23.257  -0.518  28.945  0.00  0.00    -0.015 A 
ATOM      3  C   UNL A   1     -23.527   0.506  28.425  0.00  0.00    -0.025 A 
ATOM      4  C   UNL A   1     -22.876   1.320  27.410  0.00  0.00    -0.004 A 
ATOM      5  C   UNL A   1     -21.501   1.396  27.462  0.00  0.00    -0.000 A 
ATOM      6  C   UNL A   1     -20.865   0.377  28.268  0.00  0.00    -0.000 A 
ATOM      7  C   UNL A   1     -21.628  -0.528  29.036  0.00  0.00    -0.004 A 
ATOM      8  C   UNL A   1     -25.137   0.697  28.256  0.00  0.00    +0.031 C 
ENDBRANCH   1   2
BRANCH   1  11
ATOM      9  C   UNL A   1     -23.826  -3.648  28.879  0.00  0.00    -0.004 A 
ATOM     10  C   UNL A   1     -24.465  -4.484  28.813  0.00  0.00    -0.000 A 
ATOM     11  C   UNL A   1     -24.417  -2.515  29.591  0.00  0.00    -0.011 A 
ATOM     12  C   UNL A   1     -25.815  -4.787  29.268  0.00  0.00    -0.000 A 
ATOM     13  C   UNL A   1     -26.411  -3.736  29.934  0.00  0.00    -0.000 A 
ATOM     14  C   UNL A   1     -25.716  -2.606  30.155  0.00  0.00    -0.004 A 
ENDBRANCH   1  11
BRANCH   1  15
ATOM     15  C   UNL A   1     -23.313  -0.933  31.235  0.00  0.00    +0.216 C 
ATOM     16  O   UNL A   1     -23.817  -0.029  31.862  0.00  0.00    -0.288 OA
ENDBRANCH   1  15
TORSDOF 3
ENDMDL
ENDMDL
