REMARK  Name = No_4605-gen_results/8p0m/2024-11-26-14-13-15/
REMARK  3 active torsions:
REMARK  status: ('A' for Active; 'I' for Inactive)
REMARK    1  A    between atoms: C_3  and  C_4
REMARK    2  A    between atoms: C_4  and  C_8
REMARK    3  A    between atoms: C_4  and  C_15
REMARK                            x       y       z     vdW  Elec       q    Type
REMARK                         _______ _______ _______ _____ _____    ______ ____
ROOT
ATOM      1  C   UNL A   1     -26.252   0.411  27.422  0.00  0.00    +0.109 C 
ENDROOT
BRANCH   1   2
ATOM      2  C   UNL A   1     -24.967   0.411  27.525  0.00  0.00    -0.015 A 
ATOM      3  C   UNL A   1     -24.091   1.162  27.772  0.00  0.00    -0.025 A 
ATOM      4  C   UNL A   1     -22.660   1.002  27.982  0.00  0.00    -0.004 A 
ATOM      5  C   UNL A   1     -22.254  -0.123  28.666  0.00  0.00    -0.000 A 
ATOM      6  C   UNL A   1     -23.246  -1.172  28.756  0.00  0.00    -0.000 A 
ATOM      7  C   UNL A   1     -24.562  -0.974  28.287  0.00  0.00    -0.004 A 
ATOM      8  C   UNL A   1     -24.332   2.624  27.092  0.00  0.00    +0.031 C 
ENDBRANCH   1   2
BRANCH   1  11
ATOM      9  C   UNL A   1     -28.016  -0.814  28.878  0.00  0.00    -0.004 A 
ATOM     10  C   UNL A   1     -28.469  -0.785  29.829  0.00  0.00    -0.000 A 
ATOM     11  C   UNL A   1     -27.087   0.290  28.638  0.00  0.00    -0.011 A 
ATOM     12  C   UNL A   1     -28.391   0.104  30.980  0.00  0.00    -0.000 A 
ATOM     13  C   UNL A   1     -27.533   1.167  30.787  0.00  0.00    -0.000 A 
ATOM     14  C   UNL A   1     -26.828   1.256  29.645  0.00  0.00    -0.004 A 
ENDBRANCH   1  11
BRANCH   1  15
ATOM     15  C   UNL A   1     -26.825   0.661  26.145  0.00  0.00    +0.216 C 
ATOM     16  O   UNL A   1     -27.561   1.593  25.912  0.00  0.00    -0.288 OA
ENDBRANCH   1  15
TORSDOF 3
