REMARK  Name = No_4606-gen_results/8p0m/2024-11-26-14-13-15/
REMARK  3 active torsions:
REMARK  status: ('A' for Active; 'I' for Inactive)
REMARK    1  A    between atoms: C_5  and  O_17
REMARK    2  A    between atoms: C_15  and  C_19
REMARK    3  A    between atoms: C_22  and  C_26
REMARK                            x       y       z     vdW  Elec       q    Type
REMARK                         _______ _______ _______ _____ _____    ______ ____
ROOT
ATOM      1  C   UNL A   1     -28.016  -0.814  28.878  0.00  0.00    +0.018 A 
ATOM      2  C   UNL A   1     -27.064  -0.119  28.608  0.00  0.00    +0.055 A 
ATOM      3  C   UNL A   1     -26.972   0.714  27.506  0.00  0.00    -0.001 A 
ATOM      4  C   UNL A   1     -28.105   0.774  26.642  0.00  0.00    +0.034 A 
ATOM      5  C   UNL A   1     -29.204   0.118  27.048  0.00  0.00    +0.139 A 
ATOM      6  C   UNL A   1     -29.213  -0.609  28.128  0.00  0.00    +0.038 A 
ATOM      7  C   UNL A   1     -25.711   1.452  27.138  0.00  0.00    +0.047 C 
ATOM      8  C   UNL A   1     -24.605   0.925  27.690  0.00  0.00    -0.004 A 
ATOM      9  C   UNL A   1     -23.309   1.602  27.492  0.00  0.00    -0.003 A 
ATOM     10  C   UNL A   1     -22.177   1.197  28.274  0.00  0.00    -0.000 A 
ATOM     11  C   UNL A   1     -22.218   0.093  29.062  0.00  0.00    +0.001 A 
ATOM     12  C   UNL A   1     -23.401  -0.673  29.162  0.00  0.00    +0.015 A 
ATOM     13  C   UNL A   1     -24.556  -0.222  28.540  0.00  0.00    +0.055 A 
ATOM     14  N   UNL A   1     -25.776  -0.591  29.117  0.00  0.00    -0.234 N 
ATOM     15  C   UNL A   1     -25.768  -0.877  30.497  0.00  0.00    +0.256 C 
ATOM     16  C   UNL A   1     -25.733   2.475  26.153  0.00  0.00    +0.009 C 
ATOM     17  O   UNL A   1     -25.878  -2.095  30.742  0.00  0.00    -0.269 OA
ENDROOT
BRANCH  15  18
ATOM     18  C   UNL A   1     -25.631   0.160  31.455  0.00  0.00    +0.054 A 
ATOM     19  C   UNL A   1     -26.050  -0.103  32.737  0.00  0.00    +0.000 A 
ATOM     20  C   UNL A   1     -25.184   1.495  31.137  0.00  0.00    +0.008 A 
ATOM     21  C   UNL A   1     -25.264   2.581  32.057  0.00  0.00    +0.071 A 
ATOM     22  C   UNL A   1     -26.049   0.931  33.757  0.00  0.00    -0.022 A 
ATOM     23  C   UNL A   1     -25.671   2.276  33.378  0.00  0.00    -0.000 A 
ATOM     24  C   UNL A   1     -26.522   0.687  35.118  0.00  0.00    +0.031 C 
BRANCH  21  25
ATOM     25  C   UNL A   1     -24.856   3.901  31.667  0.00  0.00    +0.419 C 
ATOM     26  F   UNL A   1     -24.655   3.907  30.427  0.00  0.00    -0.166 F 
ATOM     27  F   UNL A   1     -23.744   4.363  32.290  0.00  0.00    -0.166 F 
ATOM     28  F   UNL A   1     -25.834   4.791  32.021  0.00  0.00    -0.166 F 
ENDBRANCH  21  25
ENDBRANCH  15  18
BRANCH   5  29
ATOM     29  O   UNL A   1     -30.333   0.292  26.325  0.00  0.00    -0.471 OA
ATOM     30  C   UNL A   1     -30.569  -0.468  25.237  0.00  0.00    +0.253 C 
ENDBRANCH   5  29
TORSDOF 3
