MODEL 4606
MODEL 1
REMARK VINA RESULT:    -7.712      0.000      0.000
REMARK INTER + INTRA:         -10.123
REMARK INTER:                  -9.065
REMARK INTRA:                  -1.058
REMARK UNBOUND:                -1.058
REMARK  Name = No_4606-gen_results/8p0m/2024-11-26-14-13-15/
REMARK  3 active torsions:
REMARK  status: ('A' for Active; 'I' for Inactive)
REMARK    1  A    between atoms: C_5  and  O_17
REMARK    2  A    between atoms: C_15  and  C_19
REMARK    3  A    between atoms: C_22  and  C_26
REMARK                            x       y       z     vdW  Elec       q    Type
REMARK                         _______ _______ _______ _____ _____    ______ ____
ROOT
ATOM      1  C   UNL A   1     -27.889  -1.784  30.613  0.00  0.00    +0.018 A 
ATOM      2  C   UNL A   1     -26.800  -1.838  30.089  0.00  0.00    +0.055 A 
ATOM      3  C   UNL A   1     -26.136  -3.004  29.748  0.00  0.00    -0.001 A 
ATOM      4  C   UNL A   1     -26.808  -4.234  30.013  0.00  0.00    +0.034 A 
ATOM      5  C   UNL A   1     -28.076  -4.143  30.447  0.00  0.00    +0.139 A 
ATOM      6  C   UNL A   1     -28.637  -2.996  30.699  0.00  0.00    +0.038 A 
ATOM      7  C   UNL A   1     -24.723  -3.021  29.226  0.00  0.00    +0.047 C 
ATOM      8  C   UNL A   1     -24.036  -1.903  29.512  0.00  0.00    -0.004 A 
ATOM      9  C   UNL A   1     -22.669  -1.742  28.981  0.00  0.00    -0.003 A 
ATOM     10  C   UNL A   1     -22.026  -0.463  29.066  0.00  0.00    -0.000 A 
ATOM     11  C   UNL A   1     -22.569   0.557  29.778  0.00  0.00    +0.001 A 
ATOM     12  C   UNL A   1     -23.811   0.394  30.431  0.00  0.00    +0.015 A 
ATOM     13  C   UNL A   1     -24.529  -0.778  30.241  0.00  0.00    +0.055 A 
ATOM     14  N   UNL A   1     -25.922  -0.695  30.343  0.00  0.00    -0.234 N 
ATOM     15  C   UNL A   1     -26.508   0.558  30.073  0.00  0.00    +0.256 C 
ATOM     16  C   UNL A   1     -24.174  -4.204  28.664  0.00  0.00    +0.009 C 
ATOM     17  O   UNL A   1     -26.919   1.134  31.100  0.00  0.00    -0.269 OA
ENDROOT
BRANCH  15  18
ATOM     18  C   UNL A   1     -26.577   1.059  28.748  0.00  0.00    +0.054 A 
ATOM     19  C   UNL A   1     -27.358   2.168  28.530  0.00  0.00    +0.000 A 
ATOM     20  C   UNL A   1     -25.969   0.411  27.610  0.00  0.00    +0.008 A 
ATOM     21  C   UNL A   1     -26.232   0.798  26.263  0.00  0.00    +0.071 A 
ATOM     22  C   UNL A   1     -27.575   2.686  27.191  0.00  0.00    -0.022 A 
ATOM     23  C   UNL A   1     -27.015   1.961  26.070  0.00  0.00    -0.000 A 
ATOM     24  C   UNL A   1     -28.429   3.843  26.929  0.00  0.00    +0.031 C 
BRANCH  21  25
ATOM     25  C   UNL A   1     -25.641   0.082  25.168  0.00  0.00    +0.419 C 
ATOM     26  F   UNL A   1     -25.595  -1.137  25.468  0.00  0.00    -0.166 F 
ATOM     27  F   UNL A   1     -24.397   0.492  24.821  0.00  0.00    -0.166 F 
ATOM     28  F   UNL A   1     -26.392   0.294  24.043  0.00  0.00    -0.166 F 
ENDBRANCH  21  25
ENDBRANCH  15  18
BRANCH   5  29
ATOM     29  O   UNL A   1     -28.779  -5.292  30.552  0.00  0.00    -0.471 OA
ATOM     30  C   UNL A   1     -29.475  -5.565  31.674  0.00  0.00    +0.253 C 
ENDBRANCH   5  29
TORSDOF 3
ENDMDL
ENDMDL
