REMARK  Name = No_4608-gen_results/8p0m/2024-11-26-14-13-15/
REMARK  3 active torsions:
REMARK  status: ('A' for Active; 'I' for Inactive)
REMARK    1  A    between atoms: C_3  and  C_7
REMARK    2  A    between atoms: C_10  and  C_11
REMARK    3  A    between atoms: C_16  and  C_18
REMARK                            x       y       z     vdW  Elec       q    Type
REMARK                         _______ _______ _______ _____ _____    ______ ____
ROOT
ATOM      1  C   UNL A   1     -26.399   0.295  27.228  0.00  0.00    -0.000 A 
ATOM      2  C   UNL A   1     -26.902   0.728  26.213  0.00  0.00    -0.000 A 
ATOM      3  C   UNL A   1     -26.175   0.636  24.926  0.00  0.00    -0.000 A 
ATOM      4  C   UNL A   1     -25.077  -0.207  27.239  0.00  0.00    -0.004 A 
ATOM      5  C   UNL A   1     -24.810   0.242  24.985  0.00  0.00    -0.000 A 
ATOM      6  C   UNL A   1     -24.291  -0.101  26.151  0.00  0.00    -0.000 A 
ENDROOT
BRANCH   1   9
ATOM      7  C   UNL A   1     -28.016  -0.814  28.878  0.00  0.00    -0.000 A 
ATOM      8  C   UNL A   1     -28.469  -0.785  29.829  0.00  0.00    -0.000 A 
ATOM      9  C   UNL A   1     -27.136   0.236  28.535  0.00  0.00    -0.000 A 
ATOM     10  C   UNL A   1     -26.875   1.282  29.398  0.00  0.00    -0.000 A 
ATOM     11  C   UNL A   1     -28.361   0.199  30.924  0.00  0.00    +0.000 A 
ATOM     12  C   UNL A   1     -27.528   1.223  30.636  0.00  0.00    -0.000 A 
ENDBRANCH   1   9
BRANCH   4  13
ATOM     13  C   UNL A   1     -24.466  -0.675  28.569  0.00  0.00    -0.018 C 
ATOM     14  C   UNL A   1     -24.078  -1.586  29.145  0.00  0.00    -0.004 C 
ATOM     15  C   UNL A   1     -23.440  -1.608  30.401  0.00  0.00    -0.006 C 
ATOM     16  C   UNL A   1     -23.524  -0.371  31.137  0.00  0.00    -0.007 C 
ATOM     17  C   UNL A   1     -24.295   0.613  29.579  0.00  0.00    +0.051 C 
BRANCH  16  18
ATOM     18  C   UNL A   1     -23.562   0.699  30.679  0.00  0.00    +0.205 C 
ATOM     19  O   UNL A   1     -23.573   1.888  31.285  0.00  0.00    -0.215 OA
ENDBRANCH  16  18
ENDBRANCH   4  13
TORSDOF 3
