MODEL 4608
MODEL 1
REMARK VINA RESULT:    -7.025      0.000      0.000
REMARK INTER + INTRA:          -9.433
REMARK INTER:                  -8.257
REMARK INTRA:                  -1.176
REMARK UNBOUND:                -1.176
REMARK  Name = No_4608-gen_results/8p0m/2024-11-26-14-13-15/
REMARK  3 active torsions:
REMARK  status: ('A' for Active; 'I' for Inactive)
REMARK    1  A    between atoms: C_3  and  C_7
REMARK    2  A    between atoms: C_10  and  C_11
REMARK    3  A    between atoms: C_16  and  C_18
REMARK                            x       y       z     vdW  Elec       q    Type
REMARK                         _______ _______ _______ _____ _____    ______ ____
ROOT
ATOM      1  C   UNL A   1     -24.021   0.295  29.533  0.00  0.00    -0.000 A 
ATOM      2  C   UNL A   1     -23.501   1.334  29.185  0.00  0.00    -0.000 A 
ATOM      3  C   UNL A   1     -23.637   1.802  27.786  0.00  0.00    -0.000 A 
ATOM      4  C   UNL A   1     -24.673  -0.549  28.604  0.00  0.00    -0.004 A 
ATOM      5  C   UNL A   1     -24.189   0.883  26.852  0.00  0.00    -0.000 A 
ATOM      6  C   UNL A   1     -24.626  -0.287  27.284  0.00  0.00    -0.000 A 
ENDROOT
BRANCH   1   9
ATOM      7  C   UNL A   1     -25.100   0.103  31.849  0.00  0.00    -0.000 A 
ATOM      8  C   UNL A   1     -25.034  -0.283  32.827  0.00  0.00    -0.000 A 
ATOM      9  C   UNL A   1     -24.034  -0.165  30.962  0.00  0.00    -0.000 A 
ATOM     10  C   UNL A   1     -22.927  -0.895  31.349  0.00  0.00    -0.000 A 
ATOM     11  C   UNL A   1     -23.982  -1.083  33.485  0.00  0.00    +0.000 A 
ATOM     12  C   UNL A   1     -22.941  -1.361  32.670  0.00  0.00    -0.000 A 
ENDBRANCH   1   9
BRANCH   4  13
ATOM     13  C   UNL A   1     -25.250  -1.888  29.088  0.00  0.00    -0.018 C 
ATOM     14  C   UNL A   1     -26.144  -2.383  29.607  0.00  0.00    -0.004 C 
ATOM     15  C   UNL A   1     -26.384  -3.759  29.790  0.00  0.00    -0.006 C 
ATOM     16  C   UNL A   1     -25.251  -4.607  29.514  0.00  0.00    -0.007 C 
ATOM     17  C   UNL A   1     -24.191  -3.100  28.743  0.00  0.00    +0.051 C 
BRANCH  16  18
ATOM     18  C   UNL A   1     -24.418  -4.405  28.726  0.00  0.00    +0.205 C 
ATOM     19  O   UNL A   1     -23.551  -5.249  28.163  0.00  0.00    -0.215 OA
ENDBRANCH  16  18
ENDBRANCH   4  13
TORSDOF 3
ENDMDL
ENDMDL
