MODEL 4609
MODEL 1
REMARK VINA RESULT:    -7.159      0.000      0.000
REMARK INTER + INTRA:         -10.463
REMARK INTER:                  -9.252
REMARK INTRA:                  -1.211
REMARK UNBOUND:                -1.211
REMARK  Name = No_4609-gen_results/8p0m/2024-11-26-14-13-15/
REMARK  5 active torsions:
REMARK  status: ('A' for Active; 'I' for Inactive)
REMARK    1  A    between atoms: C_1  and  C_2
REMARK    2  A    between atoms: C_6  and  C_18
REMARK    3  A    between atoms: N_8  and  C_9
REMARK    4  A    between atoms: N_8  and  C_21
REMARK    5  A    between atoms: C_21  and  C_22
REMARK                            x       y       z     vdW  Elec       q    Type
REMARK                         _______ _______ _______ _____ _____    ______ ____
ROOT
ATOM      1  C   UNL A   1      -8.348   1.328  34.845  0.00  0.00    +0.253 C 
ATOM      2  N   UNL A   1      -9.320   1.166  35.791  0.00  0.00    -0.251 N 
ATOM      3  O   UNL A   1      -8.668   2.008  33.809  0.00  0.00    -0.270 OA
ENDROOT
BRANCH   1   4
ATOM      4  C   UNL A   1      -7.478   0.489  34.820  0.00  0.00    +0.054 A 
ATOM      5  C   UNL A   1      -7.693  -0.824  34.446  0.00  0.00    +0.007 A 
ATOM      6  C   UNL A   1      -6.703  -1.884  34.473  0.00  0.00    +0.030 A 
ATOM      7  C   UNL A   1      -5.393  -1.580  34.903  0.00  0.00    +0.145 A 
ATOM      8  C   UNL A   1      -5.159  -0.217  35.309  0.00  0.00    +0.084 A 
ATOM      9  C   UNL A   1      -6.123   0.763  35.310  0.00  0.00    +0.011 A 
ATOM     10  F   UNL A   1      -4.473  -2.460  34.923  0.00  0.00    -0.204 F 
BRANCH   8  11
ATOM     11  C   UNL A   1      -3.748   0.062  35.837  0.00  0.00    +0.286 C 
ATOM     12  N   UNL A   1      -3.349  -0.283  36.954  0.00  0.00    -0.084 NA
ATOM     13  O   UNL A   1      -2.894   0.356  34.872  0.00  0.00    -0.267 OA
ENDBRANCH   8  11
ENDBRANCH   1   4
BRANCH   2  14
ATOM     14  C   UNL A   1     -10.492   1.822  35.689  0.00  0.00    +0.055 A 
ATOM     15  C   UNL A   1     -11.512   1.224  34.861  0.00  0.00    +0.015 A 
ATOM     16  C   UNL A   1     -12.654   1.763  34.745  0.00  0.00    +0.002 A 
ATOM     17  C   UNL A   1     -12.956   2.967  35.476  0.00  0.00    +0.011 A 
ATOM     18  C   UNL A   1     -12.018   3.547  36.279  0.00  0.00    +0.059 A 
ATOM     19  C   UNL A   1     -10.804   2.961  36.387  0.00  0.00    +0.026 A 
ATOM     20 CL   UNL A   1     -12.350   5.006  37.093  0.00  0.00    -0.082 Cl
ENDBRANCH   2  14
BRANCH   2  21
ATOM     21  C   UNL A   1      -9.102   0.392  37.009  0.00  0.00    +0.125 C 
BRANCH  21  22
ATOM     22  C   UNL A   1     -10.069  -0.359  37.680  0.00  0.00    -0.002 A 
ATOM     23  C   UNL A   1     -10.469  -1.556  37.130  0.00  0.00    -0.003 A 
ATOM     24  C   UNL A   1     -11.422  -2.335  37.708  0.00  0.00    -0.000 A 
ATOM     25  C   UNL A   1     -11.944  -1.868  38.912  0.00  0.00    -0.000 A 
ATOM     26  C   UNL A   1     -11.608  -0.676  39.517  0.00  0.00    -0.000 A 
ATOM     27  C   UNL A   1     -10.615   0.117  38.914  0.00  0.00    -0.003 A 
ENDBRANCH  21  22
ENDBRANCH   2  21
TORSDOF 5
ENDMDL
ENDMDL
