REMARK  Name = No_4609-gen_results/8p0m/2024-11-26-14-13-15/
REMARK  5 active torsions:
REMARK  status: ('A' for Active; 'I' for Inactive)
REMARK    1  A    between atoms: C_1  and  C_2
REMARK    2  A    between atoms: C_6  and  C_18
REMARK    3  A    between atoms: N_8  and  C_9
REMARK    4  A    between atoms: N_8  and  C_21
REMARK    5  A    between atoms: C_21  and  C_22
REMARK                            x       y       z     vdW  Elec       q    Type
REMARK                         _______ _______ _______ _____ _____    ______ ____
ROOT
ATOM      1  C   UNL A   1     -28.016  -0.814  28.878  0.00  0.00    +0.253 C 
ATOM      2  N   UNL A   1     -29.215  -0.173  29.013  0.00  0.00    -0.251 N 
ATOM      3  O   UNL A   1     -27.892  -1.929  29.494  0.00  0.00    -0.270 OA
ENDROOT
BRANCH   1   4
ATOM      4  C   UNL A   1     -27.064  -0.119  28.608  0.00  0.00    +0.054 A 
ATOM      5  C   UNL A   1     -27.001   0.691  27.491  0.00  0.00    +0.007 A 
ATOM      6  C   UNL A   1     -25.855   1.482  27.083  0.00  0.00    +0.030 A 
ATOM      7  C   UNL A   1     -24.690   1.453  27.881  0.00  0.00    +0.145 A 
ATOM      8  C   UNL A   1     -24.738   0.601  29.042  0.00  0.00    +0.084 A 
ATOM      9  C   UNL A   1     -25.823  -0.169  29.389  0.00  0.00    +0.011 A 
ATOM     10  F   UNL A   1     -23.662   2.146  27.591  0.00  0.00    -0.204 F 
BRANCH   8  11
ATOM     11  C   UNL A   1     -23.435   0.537  29.845  0.00  0.00    +0.286 C 
ATOM     12  N   UNL A   1     -22.316   0.414  29.335  0.00  0.00    -0.084 NA
ATOM     13  O   UNL A   1     -23.573   1.001  31.075  0.00  0.00    -0.267 OA
ENDBRANCH   8  11
ENDBRANCH   1   4
BRANCH   2  14
ATOM     14  C   UNL A   1     -30.246  -0.774  29.639  0.00  0.00    +0.055 A 
ATOM     15  C   UNL A   1     -31.039   0.037  30.531  0.00  0.00    +0.015 A 
ATOM     16  C   UNL A   1     -32.047  -0.448  31.127  0.00  0.00    +0.002 A 
ATOM     17  C   UNL A   1     -32.434  -1.815  30.886  0.00  0.00    +0.011 A 
ATOM     18  C   UNL A   1     -31.714  -2.602  30.036  0.00  0.00    +0.059 A 
ATOM     19  C   UNL A   1     -30.638  -2.069  29.412  0.00  0.00    +0.026 A 
ATOM     20 CL   UNL A   1     -32.130  -4.236  29.799  0.00  0.00    -0.082 Cl
ENDBRANCH   2  14
BRANCH   2  21
ATOM     21  C   UNL A   1     -29.485   1.117  28.388  0.00  0.00    +0.125 C 
BRANCH  21  22
ATOM     22  C   UNL A   1     -30.216   1.316  27.215  0.00  0.00    -0.002 A 
ATOM     23  C   UNL A   1     -30.918   0.254  26.691  0.00  0.00    -0.003 A 
ATOM     24  C   UNL A   1     -31.635   0.358  25.540  0.00  0.00    -0.000 A 
ATOM     25  C   UNL A   1     -31.648   1.615  24.941  0.00  0.00    -0.000 A 
ATOM     26  C   UNL A   1     -30.961   2.720  25.394  0.00  0.00    -0.000 A 
ATOM     27  C   UNL A   1     -30.230   2.603  26.590  0.00  0.00    -0.003 A 
ENDBRANCH  21  22
ENDBRANCH   2  21
TORSDOF 5
