MODEL 460
MODEL 1
REMARK VINA RESULT:    -4.266      0.000      0.000
REMARK INTER + INTRA:          -4.266
REMARK INTER:                  -4.266
REMARK INTRA:                   0.000
REMARK UNBOUND:                 0.000
REMARK  Name = No_460-gen_results/8p0m/2024-11-26-14-13-15/
REMARK  0 active torsions:
REMARK  status: ('A' for Active; 'I' for Inactive)
REMARK                            x       y       z     vdW  Elec       q    Type
REMARK                         _______ _______ _______ _____ _____    ______ ____
ROOT
ATOM      1  C   UNL A   1     -26.052  -4.891  29.671  0.00  0.00    +0.000 A 
ATOM      2  C   UNL A   1     -26.220  -3.694  29.723  0.00  0.00    +0.000 A 
ATOM      3  C   UNL A   1     -25.281  -2.771  29.308  0.00  0.00    +0.000 A 
ATOM      4  C   UNL A   1     -24.065  -3.261  28.753  0.00  0.00    +0.000 A 
ATOM      5  C   UNL A   1     -23.995  -4.598  28.559  0.00  0.00    +0.000 A 
ATOM      6  C   UNL A   1     -24.963  -5.405  28.951  0.00  0.00    +0.000 A 
ENDROOT
TORSDOF 0
ENDMDL
ENDMDL
