REMARK  Name = No_461-gen_results/8p0m/2024-11-26-14-13-15/
REMARK  2 active torsions:
REMARK  status: ('A' for Active; 'I' for Inactive)
REMARK    1  A    between atoms: C_3  and  C_11
REMARK    2  A    between atoms: C_5  and  C_7
REMARK                            x       y       z     vdW  Elec       q    Type
REMARK                         _______ _______ _______ _____ _____    ______ ____
ROOT
ATOM      1  C   UNL A   1     -28.016  -0.814  28.878  0.00  0.00    +0.011 A 
ATOM      2  C   UNL A   1     -27.064  -0.119  28.608  0.00  0.00    +0.054 A 
ATOM      3  C   UNL A   1     -26.972   0.714  27.506  0.00  0.00    -0.011 A 
ATOM      4  C   UNL A   1     -28.105   0.774  26.642  0.00  0.00    +0.003 A 
ATOM      5  C   UNL A   1     -29.201   0.104  27.053  0.00  0.00    +0.080 A 
ATOM      6  C   UNL A   1     -29.210  -0.603  28.185  0.00  0.00    +0.007 A 
ATOM      7 CL   UNL A   1     -25.490  -0.236  29.535  0.00  0.00    -0.083 Cl
ENDROOT
BRANCH   5   8
ATOM      8  C   UNL A   1     -30.485   0.149  26.351  0.00  0.00    +0.388 C 
ATOM      9  O   UNL A   1     -31.169   1.189  26.444  0.00  0.00    -0.241 OA
ATOM     10  O   UNL A   1     -30.919  -0.933  25.817  0.00  0.00    -0.241 OA
ENDBRANCH   5   8
BRANCH   3  11
ATOM     11  C   UNL A   1     -25.639   1.395  27.113  0.00  0.00    +0.027 C 
ATOM     12  C   UNL A   1     -24.799   1.786  28.122  0.00  0.00    +0.005 C 
ENDBRANCH   3  11
TORSDOF 2
