MODEL 4610
MODEL 1
REMARK VINA RESULT:    -6.033      0.000      0.000
REMARK INTER + INTRA:         -12.467
REMARK INTER:                 -10.266
REMARK INTRA:                  -2.201
REMARK UNBOUND:                -2.201
REMARK  Name = No_4610-gen_results/8p0m/2024-11-26-14-13-15/
REMARK  12 active torsions:
REMARK  status: ('A' for Active; 'I' for Inactive)
REMARK    1  A    between atoms: C_2  and  C_3
REMARK    2  A    between atoms: C_2  and  O_4
REMARK    3  A    between atoms: C_3  and  C_5
REMARK    4  A    between atoms: O_4  and  C_13
REMARK    5  A    between atoms: C_5  and  C_6
REMARK    6  A    between atoms: C_13  and  C_14
REMARK    7  A    between atoms: N_16  and  C_17
REMARK    8  A    between atoms: C_17  and  C_19
REMARK    9  A    between atoms: C_23  and  C_25
REMARK   10  A    between atoms: C_25  and  C_26
REMARK   11  A    between atoms: C_26  and  N_27
REMARK   12  A    between atoms: N_27  and  C_28
REMARK                            x       y       z     vdW  Elec       q    Type
REMARK                         _______ _______ _______ _____ _____    ______ ____
ROOT
ATOM      1  C   UNL A   1     -12.193  -0.097  43.126  0.00  0.00    +0.271 C 
ATOM      2  O   UNL A   1     -12.924  -0.266  44.044  0.00  0.00    -0.271 OA
ATOM      3  N   UNL A   1     -11.278  -0.994  42.771  0.00  0.00    -0.271 N 
ATOM      4  C   UNL A   1     -10.901  -1.909  43.856  0.00  0.00    +0.115 C 
ENDROOT
BRANCH   1   5
ATOM      5  C   UNL A   1     -12.308   1.199  42.418  0.00  0.00    +0.293 C 
BRANCH   5   6
ATOM      6  O   UNL A   1     -13.422   1.382  41.658  0.00  0.00    -0.438 OA
BRANCH   6   8
ATOM      7  O   UNL A   1     -14.041   3.364  41.066  0.00  0.00    -0.250 OA
ATOM      8  C   UNL A   1     -13.492   2.392  40.802  0.00  0.00    +0.318 C 
BRANCH   8   9
ATOM      9  C   UNL A   1     -12.570   2.457  39.756  0.00  0.00    +0.114 C 
BRANCH   9  10
ATOM     10  C   UNL A   1     -12.737   1.871  38.661  0.00  0.00    +0.038 C 
BRANCH  10  11
ATOM     11  C   UNL A   1     -13.098   2.606  37.524  0.00  0.00    -0.022 A 
ATOM     12  C   UNL A   1     -12.244   2.670  36.504  0.00  0.00    -0.003 A 
ATOM     13  C   UNL A   1     -12.577   2.002  35.265  0.00  0.00    +0.011 A 
ATOM     14  C   UNL A   1     -13.720   2.584  34.587  0.00  0.00    +0.058 A 
ATOM     15  C   UNL A   1     -14.719   3.129  35.528  0.00  0.00    +0.011 A 
ATOM     16  C   UNL A   1     -14.447   3.031  37.084  0.00  0.00    -0.003 A 
ATOM     17 CL   UNL A   1     -14.027   2.674  32.991  0.00  0.00    -0.082 Cl
ENDBRANCH  10  11
ENDBRANCH   9  10
ENDBRANCH   8   9
ENDBRANCH   6   8
ENDBRANCH   5   6
ENDBRANCH   1   5
BRANCH   3  18
ATOM     18  C   UNL A   1     -10.364  -0.891  41.680  0.00  0.00    +0.120 C 
BRANCH  18  19
ATOM     19  C   UNL A   1     -11.021  -1.483  40.448  0.00  0.00    -0.003 A 
ATOM     20  C   UNL A   1     -11.752  -2.147  40.255  0.00  0.00    -0.003 A 
ATOM     21  C   UNL A   1     -12.254  -2.585  38.927  0.00  0.00    -0.001 A 
ATOM     22  C   UNL A   1     -11.634  -2.065  37.809  0.00  0.00    -0.004 A 
ATOM     23  C   UNL A   1     -10.603  -1.166  37.995  0.00  0.00    -0.021 A 
ATOM     24  C   UNL A   1     -10.214  -0.774  39.257  0.00  0.00    -0.007 A 
BRANCH  23  25
ATOM     25  C   UNL A   1      -9.914  -0.561  36.823  0.00  0.00    +0.050 C 
BRANCH  25  26
ATOM     26  C   UNL A   1      -9.421   0.217  36.391  0.00  0.00    +0.117 C 
BRANCH  26  27
ATOM     27  N   UNL A   1      -8.139   0.094  35.773  0.00  0.00    -0.236 NA
BRANCH  27  28
ATOM     28  C   UNL A   1      -7.660  -0.403  35.037  0.00  0.00    +0.075 C 
ATOM     29  C   UNL A   1      -7.115  -1.435  34.981  0.00  0.00    -0.008 C 
ATOM     30  C   UNL A   1      -6.090  -2.014  34.130  0.00  0.00    +0.032 C 
ENDBRANCH  27  28
ENDBRANCH  26  27
ENDBRANCH  25  26
ENDBRANCH  23  25
ENDBRANCH  18  19
ENDBRANCH   3  18
TORSDOF 12
ENDMDL
ENDMDL
