REMARK  Name = No_4610-gen_results/8p0m/2024-11-26-14-13-15/
REMARK  12 active torsions:
REMARK  status: ('A' for Active; 'I' for Inactive)
REMARK    1  A    between atoms: C_2  and  C_3
REMARK    2  A    between atoms: C_2  and  O_4
REMARK    3  A    between atoms: C_3  and  C_5
REMARK    4  A    between atoms: O_4  and  C_13
REMARK    5  A    between atoms: C_5  and  C_6
REMARK    6  A    between atoms: C_13  and  C_14
REMARK    7  A    between atoms: N_16  and  C_17
REMARK    8  A    between atoms: C_17  and  C_19
REMARK    9  A    between atoms: C_23  and  C_25
REMARK   10  A    between atoms: C_25  and  C_26
REMARK   11  A    between atoms: C_26  and  N_27
REMARK   12  A    between atoms: N_27  and  C_28
REMARK                            x       y       z     vdW  Elec       q    Type
REMARK                         _______ _______ _______ _____ _____    ______ ____
ROOT
ATOM      1  C   UNL A   1     -31.149   0.777  26.896  0.00  0.00    +0.271 C 
ATOM      2  O   UNL A   1     -31.797   0.348  26.001  0.00  0.00    -0.271 OA
ATOM      3  N   UNL A   1     -31.066   2.079  27.154  0.00  0.00    -0.271 N 
ATOM      4  C   UNL A   1     -31.382   2.928  25.999  0.00  0.00    +0.115 C 
ENDROOT
BRANCH   1   5
ATOM      5  C   UNL A   1     -30.380  -0.210  27.688  0.00  0.00    +0.293 C 
BRANCH   5   6
ATOM      6  O   UNL A   1     -29.538   0.289  28.634  0.00  0.00    -0.438 OA
BRANCH   6   8
ATOM      7  O   UNL A   1     -28.123  -1.335  28.487  0.00  0.00    -0.250 OA
ATOM      8  C   UNL A   1     -28.521  -0.436  29.078  0.00  0.00    +0.318 C 
BRANCH   8   9
ATOM      9  C   UNL A   1     -27.666   0.113  30.035  0.00  0.00    +0.114 C 
BRANCH   9  10
ATOM     10  C   UNL A   1     -26.871  -0.576  30.717  0.00  0.00    +0.038 C 
BRANCH  10  11
ATOM     11  C   UNL A   1     -25.517  -0.632  30.363  0.00  0.00    -0.022 A 
ATOM     12  C   UNL A   1     -25.172  -0.371  29.104  0.00  0.00    -0.003 A 
ATOM     13  C   UNL A   1     -24.432   0.837  28.813  0.00  0.00    +0.011 A 
ATOM     14  C   UNL A   1     -23.095   0.843  29.376  0.00  0.00    +0.058 A 
ATOM     15  C   UNL A   1     -23.018   0.114  30.657  0.00  0.00    +0.011 A 
ATOM     16  C   UNL A   1     -24.325  -0.562  31.240  0.00  0.00    -0.003 A 
ATOM     17 CL   UNL A   1     -21.746   1.550  28.803  0.00  0.00    -0.082 Cl
ENDBRANCH  10  11
ENDBRANCH   9  10
ENDBRANCH   8   9
ENDBRANCH   6   8
ENDBRANCH   5   6
ENDBRANCH   1   5
BRANCH   3  18
ATOM     18  C   UNL A   1     -30.327   2.691  28.210  0.00  0.00    +0.120 C 
BRANCH  18  19
ATOM     19  C   UNL A   1     -31.299   3.424  29.113  0.00  0.00    -0.003 A 
ATOM     20  C   UNL A   1     -32.285   3.628  29.117  0.00  0.00    -0.003 A 
ATOM     21  C   UNL A   1     -33.053   4.380  30.142  0.00  0.00    -0.001 A 
ATOM     22  C   UNL A   1     -32.349   4.907  31.206  0.00  0.00    -0.004 A 
ATOM     23  C   UNL A   1     -30.986   4.691  31.256  0.00  0.00    -0.021 A 
ATOM     24  C   UNL A   1     -30.343   3.950  30.289  0.00  0.00    -0.007 A 
BRANCH  23  25
ATOM     25  C   UNL A   1     -30.183   5.221  32.391  0.00  0.00    +0.050 C 
BRANCH  25  26
ATOM     26  C   UNL A   1     -29.311   5.268  32.911  0.00  0.00    +0.117 C 
BRANCH  26  27
ATOM     27  N   UNL A   1     -28.150   4.505  32.577  0.00  0.00    -0.236 NA
BRANCH  27  28
ATOM     28  C   UNL A   1     -27.771   3.920  31.847  0.00  0.00    +0.075 C 
ATOM     29  C   UNL A   1     -26.686   3.641  31.517  0.00  0.00    -0.008 C 
ATOM     30  C   UNL A   1     -26.071   3.171  30.287  0.00  0.00    +0.032 C 
ENDBRANCH  27  28
ENDBRANCH  26  27
ENDBRANCH  25  26
ENDBRANCH  23  25
ENDBRANCH  18  19
ENDBRANCH   3  18
TORSDOF 12
