REMARK  Name = No_4611-gen_results/8p0m/2024-11-26-14-13-15/
REMARK  2 active torsions:
REMARK  status: ('A' for Active; 'I' for Inactive)
REMARK    1  A    between atoms: C_1  and  C_7
REMARK    2  A    between atoms: C_5  and  N_10
REMARK                            x       y       z     vdW  Elec       q    Type
REMARK                         _______ _______ _______ _____ _____    ______ ____
ROOT
ATOM      1  C   UNL A   1     -28.016  -0.814  28.878  0.00  0.00    +0.058 A 
ATOM      2  C   UNL A   1     -27.064  -0.119  28.608  0.00  0.00    +0.005 A 
ATOM      3  C   UNL A   1     -27.001   0.691  27.491  0.00  0.00    +0.001 A 
ATOM      4  C   UNL A   1     -28.137   0.736  26.635  0.00  0.00    +0.015 A 
ATOM      5  C   UNL A   1     -29.236   0.076  27.069  0.00  0.00    +0.054 A 
ATOM      6  C   UNL A   1     -29.218  -0.643  28.175  0.00  0.00    +0.019 A 
ENDROOT
BRANCH   5   7
ATOM      7  N   UNL A   1     -30.352   0.160  26.229  0.00  0.00    -0.259 N 
ATOM      8  C   UNL A   1     -31.466  -0.366  26.596  0.00  0.00    +0.098 C 
ATOM      9  C   UNL A   1     -30.301   0.703  24.897  0.00  0.00    +0.229 C 
ATOM     10  C   UNL A   1     -32.439  -0.734  25.684  0.00  0.00    +0.022 C 
ATOM     11  C   UNL A   1     -32.513   0.009  24.504  0.00  0.00    +0.011 C 
ATOM     12  C   UNL A   1     -31.352   0.574  24.025  0.00  0.00    +0.086 C 
ATOM     13  O   UNL A   1     -29.215   1.299  24.496  0.00  0.00    -0.275 OA
ENDBRANCH   5   7
BRANCH   1  14
ATOM     14  C   UNL A   1     -28.227  -1.626  30.102  0.00  0.00    +0.284 C 
ATOM     15  O   UNL A   1     -29.038  -2.476  30.266  0.00  0.00    -0.267 OA
ATOM     16  N   UNL A   1     -26.932  -1.839  30.828  0.00  0.00    -0.084 NA
ENDBRANCH   1  14
TORSDOF 2
