MODEL 4611
MODEL 1
REMARK VINA RESULT:    -6.725      0.000      0.000
REMARK INTER + INTRA:          -7.787
REMARK INTER:                  -7.511
REMARK INTRA:                  -0.275
REMARK UNBOUND:                -0.275
REMARK  Name = No_4611-gen_results/8p0m/2024-11-26-14-13-15/
REMARK  2 active torsions:
REMARK  status: ('A' for Active; 'I' for Inactive)
REMARK    1  A    between atoms: C_1  and  C_7
REMARK    2  A    between atoms: C_5  and  N_10
REMARK                            x       y       z     vdW  Elec       q    Type
REMARK                         _______ _______ _______ _____ _____    ______ ____
ROOT
ATOM      1  C   UNL A   1     -26.431  -3.816  29.726  0.00  0.00    +0.058 A 
ATOM      2  C   UNL A   1     -25.901  -4.884  29.524  0.00  0.00    +0.005 A 
ATOM      3  C   UNL A   1     -24.652  -5.022  28.951  0.00  0.00    +0.001 A 
ATOM      4  C   UNL A   1     -23.937  -3.838  28.617  0.00  0.00    +0.015 A 
ATOM      5  C   UNL A   1     -24.497  -2.672  29.017  0.00  0.00    +0.054 A 
ATOM      6  C   UNL A   1     -25.681  -2.637  29.598  0.00  0.00    +0.019 A 
ENDROOT
BRANCH   5   7
ATOM      7  N   UNL A   1     -23.762  -1.522  28.708  0.00  0.00    -0.259 N 
ATOM      8  C   UNL A   1     -22.651  -1.294  29.313  0.00  0.00    +0.098 C 
ATOM      9  C   UNL A   1     -24.240  -0.491  27.824  0.00  0.00    +0.229 C 
ATOM     10  C   UNL A   1     -22.122  -0.020  29.420  0.00  0.00    +0.022 C 
ATOM     11  C   UNL A   1     -22.408   0.872  28.384  0.00  0.00    +0.011 C 
ATOM     12  C   UNL A   1     -23.599   0.716  27.711  0.00  0.00    +0.086 C 
ATOM     13  O   UNL A   1     -25.330  -0.696  27.142  0.00  0.00    -0.275 OA
ENDBRANCH   5   7
BRANCH   1  14
ATOM     14  C   UNL A   1     -27.710  -3.558  30.433  0.00  0.00    +0.284 C 
ATOM     15  O   UNL A   1     -28.442  -2.638  30.275  0.00  0.00    -0.267 OA
ATOM     16  N   UNL A   1     -28.383  -4.846  30.801  0.00  0.00    -0.084 NA
ENDBRANCH   1  14
TORSDOF 2
ENDMDL
ENDMDL
