REMARK  Name = No_4612-gen_results/8p0m/2024-11-26-14-13-15/
REMARK  4 active torsions:
REMARK  status: ('A' for Active; 'I' for Inactive)
REMARK    1  A    between atoms: C_2  and  C_8
REMARK    2  A    between atoms: C_3  and  C_11
REMARK    3  A    between atoms: C_11  and  C_12
REMARK    4  A    between atoms: C_12  and  C_13
REMARK                            x       y       z     vdW  Elec       q    Type
REMARK                         _______ _______ _______ _____ _____    ______ ____
ROOT
ATOM      1  C   UNL A   1     -28.016  -0.814  28.878  0.00  0.00    +0.004 A 
ATOM      2  C   UNL A   1     -28.469  -0.785  29.829  0.00  0.00    +0.080 A 
ATOM      3  C   UNL A   1     -27.087   0.290  28.638  0.00  0.00    +0.005 A 
ATOM      4  C   UNL A   1     -26.768   1.027  29.472  0.00  0.00    +0.136 A 
ATOM      5  C   UNL A   1     -28.276   0.027  31.015  0.00  0.00    +0.009 A 
ATOM      6  C   UNL A   1     -27.329   1.054  30.753  0.00  0.00    +0.029 A 
ATOM      7  F   UNL A   1     -25.865   2.042  29.247  0.00  0.00    -0.204 F 
ENDROOT
BRANCH   2   8
ATOM      8  C   UNL A   1     -29.515  -1.994  30.253  0.00  0.00    +0.388 C 
ATOM      9  O   UNL A   1     -29.357  -3.170  30.228  0.00  0.00    -0.241 OA
ATOM     10  O   UNL A   1     -30.742  -1.629  30.631  0.00  0.00    -0.241 OA
ENDBRANCH   2   8
BRANCH   3  11
ATOM     11  C   UNL A   1     -26.367   0.284  27.230  0.00  0.00    +0.029 C 
BRANCH  11  12
ATOM     12  C   UNL A   1     -25.066   0.483  27.134  0.00  0.00    +0.005 C 
BRANCH  12  13
ATOM     13  C   UNL A   1     -24.426   1.618  27.779  0.00  0.00    +0.000 C 
ATOM     14  C   UNL A   1     -23.118   1.897  27.483  0.00  0.00    +0.000 C 
ENDBRANCH  12  13
ENDBRANCH  11  12
ENDBRANCH   3  11
TORSDOF 4
