MODEL 4612
MODEL 1
REMARK VINA RESULT:    -5.632      0.000      0.000
REMARK INTER + INTRA:          -7.330
REMARK INTER:                  -6.949
REMARK INTRA:                  -0.382
REMARK UNBOUND:                -0.382
REMARK  Name = No_4612-gen_results/8p0m/2024-11-26-14-13-15/
REMARK  4 active torsions:
REMARK  status: ('A' for Active; 'I' for Inactive)
REMARK    1  A    between atoms: C_2  and  C_8
REMARK    2  A    between atoms: C_3  and  C_11
REMARK    3  A    between atoms: C_11  and  C_12
REMARK    4  A    between atoms: C_12  and  C_13
REMARK                            x       y       z     vdW  Elec       q    Type
REMARK                         _______ _______ _______ _____ _____    ______ ____
ROOT
ATOM      1  C   UNL A   1     -24.518  -0.404  27.558  0.00  0.00    +0.004 A 
ATOM      2  C   UNL A   1     -24.233   0.397  26.935  0.00  0.00    +0.080 A 
ATOM      3  C   UNL A   1     -23.544  -0.705  28.606  0.00  0.00    +0.005 A 
ATOM      4  C   UNL A   1     -22.632  -0.026  28.821  0.00  0.00    +0.136 A 
ATOM      5  C   UNL A   1     -23.154   1.366  26.966  0.00  0.00    +0.009 A 
ATOM      6  C   UNL A   1     -22.261   1.066  28.030  0.00  0.00    +0.029 A 
ATOM      7  F   UNL A   1     -21.739  -0.297  29.834  0.00  0.00    -0.204 F 
ENDROOT
BRANCH   2   8
ATOM      8  C   UNL A   1     -25.258   0.874  25.728  0.00  0.00    +0.388 C 
ATOM      9  O   UNL A   1     -25.891   1.874  25.627  0.00  0.00    -0.241 OA
ATOM     10  O   UNL A   1     -25.468   0.009  24.733  0.00  0.00    -0.241 OA
ENDBRANCH   2   8
BRANCH   3  11
ATOM     11  C   UNL A   1     -23.932  -1.890  29.580  0.00  0.00    +0.029 C 
BRANCH  11  12
ATOM     12  C   UNL A   1     -24.729  -2.862  29.179  0.00  0.00    +0.005 C 
BRANCH  12  13
ATOM     13  C   UNL A   1     -24.194  -4.127  28.700  0.00  0.00    +0.000 C 
ATOM     14  C   UNL A   1     -24.831  -5.289  29.047  0.00  0.00    +0.000 C 
ENDBRANCH  12  13
ENDBRANCH  11  12
ENDBRANCH   3  11
TORSDOF 4
ENDMDL
ENDMDL
