MODEL 4613
MODEL 1
REMARK VINA RESULT:    -6.206      0.000      0.000
REMARK INTER + INTRA:          -7.190
REMARK INTER:                  -6.932
REMARK INTRA:                  -0.258
REMARK UNBOUND:                -0.258
REMARK  Name = No_4613-gen_results/8p0m/2024-11-26-14-13-15/
REMARK  2 active torsions:
REMARK  status: ('A' for Active; 'I' for Inactive)
REMARK    1  A    between atoms: C_1  and  N_10
REMARK    2  A    between atoms: N_10  and  C_13
REMARK                            x       y       z     vdW  Elec       q    Type
REMARK                         _______ _______ _______ _____ _____    ______ ____
ROOT
ATOM      1  C   UNL A   1     -22.641   0.489  29.186  0.00  0.00    +0.077 C 
ATOM      2  C   UNL A   1     -23.509  -0.350  29.119  0.00  0.00    -0.023 C 
ATOM      3  C   UNL A   1     -24.822  -0.173  29.520  0.00  0.00    +0.028 C 
ATOM      4  C   UNL A   1     -25.856  -1.180  29.528  0.00  0.00    +0.030 C 
ATOM      5  C   UNL A   1     -25.615  -2.226  29.356  0.00  0.00    -0.025 A 
ATOM      6  C   UNL A   1     -24.308  -2.745  28.898  0.00  0.00    -0.022 A 
ATOM      7  C   UNL A   1     -24.018  -4.144  28.598  0.00  0.00    -0.004 A 
ATOM      8  C   UNL A   1     -23.287  -1.772  28.858  0.00  0.00    +0.049 C 
ATOM      9  C   UNL A   1     -24.698  -5.145  29.260  0.00  0.00    -0.000 A 
ATOM     10  C   UNL A   1     -26.084  -4.989  29.503  0.00  0.00    -0.000 A 
ATOM     11  C   UNL A   1     -26.526  -3.605  29.839  0.00  0.00    -0.005 A 
ENDROOT
BRANCH   1  12
ATOM     12  N   UNL A   1     -22.872   1.661  28.541  0.00  0.00    -0.210 NA
BRANCH  12  13
ATOM     13  C   UNL A   1     -22.478   1.945  27.479  0.00  0.00    +0.086 C 
ATOM     14  C   UNL A   1     -23.228   2.047  26.269  0.00  0.00    +0.019 C 
ENDBRANCH  12  13
ENDBRANCH   1  12
TORSDOF 2
ENDMDL
ENDMDL
