REMARK  Name = No_4613-gen_results/8p0m/2024-11-26-14-13-15/
REMARK  2 active torsions:
REMARK  status: ('A' for Active; 'I' for Inactive)
REMARK    1  A    between atoms: C_1  and  N_10
REMARK    2  A    between atoms: N_10  and  C_13
REMARK                            x       y       z     vdW  Elec       q    Type
REMARK                         _______ _______ _______ _____ _____    ______ ____
ROOT
ATOM      1  C   UNL A   1     -28.016  -0.814  28.878  0.00  0.00    +0.077 C 
ATOM      2  C   UNL A   1     -27.064  -0.119  28.608  0.00  0.00    -0.023 C 
ATOM      3  C   UNL A   1     -26.972   0.714  27.506  0.00  0.00    +0.028 C 
ATOM      4  C   UNL A   1     -25.820   1.491  27.116  0.00  0.00    +0.030 C 
ATOM      5  C   UNL A   1     -24.858   1.342  27.601  0.00  0.00    -0.025 A 
ATOM      6  C   UNL A   1     -24.622   0.529  28.814  0.00  0.00    -0.022 A 
ATOM      7  C   UNL A   1     -23.341   0.398  29.501  0.00  0.00    -0.004 A 
ATOM      8  C   UNL A   1     -25.744  -0.220  29.229  0.00  0.00    +0.049 C 
ATOM      9  C   UNL A   1     -22.165   0.504  28.789  0.00  0.00    -0.000 A 
ATOM     10  C   UNL A   1     -22.061   1.488  27.776  0.00  0.00    -0.000 A 
ATOM     11  C   UNL A   1     -23.299   1.720  26.977  0.00  0.00    -0.005 A 
ENDROOT
BRANCH   1  12
ATOM     12  N   UNL A   1     -29.210  -0.186  29.024  0.00  0.00    -0.210 NA
BRANCH  12  13
ATOM     13  C   UNL A   1     -29.572   0.742  28.414  0.00  0.00    +0.086 C 
ATOM     14  C   UNL A   1     -30.865   1.346  28.432  0.00  0.00    +0.019 C 
ENDBRANCH  12  13
ENDBRANCH   1  12
TORSDOF 2
