REMARK  Name = No_4614-gen_results/8p0m/2024-11-26-14-13-15/
REMARK  5 active torsions:
REMARK  status: ('A' for Active; 'I' for Inactive)
REMARK    1  A    between atoms: N_4  and  C_12
REMARK    2  A    between atoms: C_12  and  C_13
REMARK    3  A    between atoms: C_13  and  C_14
REMARK    4  A    between atoms: C_14  and  O_15
REMARK    5  A    between atoms: O_15  and  C_21
REMARK                            x       y       z     vdW  Elec       q    Type
REMARK                         _______ _______ _______ _____ _____    ______ ____
ROOT
ATOM      1  O   UNL A   1     -28.123  -1.335  28.487  0.00  0.00    -0.270 OA
ATOM      2  C   UNL A   1     -27.064  -0.824  28.869  0.00  0.00    +0.249 C 
ATOM      3  C   UNL A   1     -26.402  -0.062  28.622  0.00  0.00    +0.050 A 
ATOM      4  N   UNL A   1     -26.572  -1.584  30.117  0.00  0.00    -0.273 N 
ATOM      5  C   UNL A   1     -25.021   0.356  29.044  0.00  0.00    -0.007 A 
ATOM      6  C   UNL A   1     -24.665  -0.386  30.242  0.00  0.00    +0.086 C 
ATOM      7  C   UNL A   1     -25.429  -1.360  30.687  0.00  0.00    +0.102 C 
ATOM      8  C   UNL A   1     -26.707   0.823  27.345  0.00  0.00    +0.004 A 
ATOM      9  C   UNL A   1     -25.803   1.545  26.709  0.00  0.00    +0.000 A 
ATOM     10  C   UNL A   1     -24.551   1.936  27.326  0.00  0.00    +0.006 A 
ATOM     11  C   UNL A   1     -24.158   1.331  28.497  0.00  0.00    +0.072 A 
ATOM     12  C   UNL A   1     -22.802   1.520  28.976  0.00  0.00    +0.341 C 
ATOM     13  O   UNL A   1     -22.162   2.223  28.564  0.00  0.00    -0.245 OA
ATOM     14  O   UNL A   1     -22.497   0.921  30.137  0.00  0.00    -0.445 OA
ATOM     15  C   UNL A   1     -23.355  -0.119  30.731  0.00  0.00    +0.215 C 
ENDROOT
BRANCH   4  16
ATOM     16  C   UNL A   1     -27.600  -2.551  30.517  0.00  0.00    +0.130 C 
BRANCH  16  17
ATOM     17  C   UNL A   1     -28.888  -2.058  30.831  0.00  0.00    +0.215 C 
ATOM     18  O   UNL A   1     -29.402  -2.856  31.945  0.00  0.00    -0.217 OA
BRANCH  17  19
ATOM     19  C   UNL A   1     -28.912  -0.814  31.191  0.00  0.00    +0.241 C 
BRANCH  19  20
ATOM     20  O   UNL A   1     -29.772  -0.493  31.930  0.00  0.00    -0.461 OA
BRANCH  20  21
ATOM     21  C   UNL A   1     -30.945   0.102  31.564  0.00  0.00    +0.259 C 
ATOM     22  C   UNL A   1     -30.934   0.368  30.395  0.00  0.00    +0.175 C 
ATOM     23  O   UNL A   1     -31.860   0.356  29.570  0.00  0.00    -0.228 OA
ENDBRANCH  20  21
ENDBRANCH  19  20
ENDBRANCH  17  19
ENDBRANCH  16  17
ENDBRANCH   4  16
TORSDOF 5
