MODEL 4614
MODEL 1
REMARK VINA RESULT:    -6.097      0.000      0.000
REMARK INTER + INTRA:          -8.542
REMARK INTER:                  -7.879
REMARK INTRA:                  -0.663
REMARK UNBOUND:                -0.663
REMARK  Name = No_4614-gen_results/8p0m/2024-11-26-14-13-15/
REMARK  5 active torsions:
REMARK  status: ('A' for Active; 'I' for Inactive)
REMARK    1  A    between atoms: N_4  and  C_12
REMARK    2  A    between atoms: C_12  and  C_13
REMARK    3  A    between atoms: C_13  and  C_14
REMARK    4  A    between atoms: C_14  and  O_15
REMARK    5  A    between atoms: O_15  and  C_21
REMARK                            x       y       z     vdW  Elec       q    Type
REMARK                         _______ _______ _______ _____ _____    ______ ____
ROOT
ATOM      1  O   UNL A   1      -7.318   0.867   7.985  0.00  0.00    -0.270 OA
ATOM      2  C   UNL A   1      -8.068   1.469   8.762  0.00  0.00    +0.249 C 
ATOM      3  C   UNL A   1      -8.682   2.306   8.802  0.00  0.00    +0.050 A 
ATOM      4  N   UNL A   1      -8.075   0.727  10.113  0.00  0.00    -0.273 N 
ATOM      5  C   UNL A   1      -9.408   3.070   9.875  0.00  0.00    -0.007 A 
ATOM      6  C   UNL A   1      -9.391   2.276  11.092  0.00  0.00    +0.086 C 
ATOM      7  C   UNL A   1      -8.678   1.173  11.171  0.00  0.00    +0.102 C 
ATOM      8  C   UNL A   1      -8.790   3.230   7.521  0.00  0.00    +0.004 A 
ATOM      9  C   UNL A   1      -9.209   4.482   7.542  0.00  0.00    +0.000 A 
ATOM     10  C   UNL A   1      -9.991   5.019   8.638  0.00  0.00    +0.006 A 
ATOM     11  C   UNL A   1     -10.084   4.308   9.812  0.00  0.00    +0.072 A 
ATOM     12  C   UNL A   1     -10.637   4.949  10.990  0.00  0.00    +0.341 C 
ATOM     13  O   UNL A   1     -11.117   5.866  10.948  0.00  0.00    -0.245 OA
ATOM     14  O   UNL A   1     -10.719   4.188  12.092  0.00  0.00    -0.445 OA
ATOM     15  C   UNL A   1     -10.011   2.902  12.210  0.00  0.00    +0.215 C 
ENDROOT
BRANCH   4  16
ATOM     16  C   UNL A   1      -7.316  -0.520   9.972  0.00  0.00    +0.130 C 
BRANCH  16  17
ATOM     17  C   UNL A   1      -6.335  -0.814  10.948  0.00  0.00    +0.215 C 
ATOM     18  O   UNL A   1      -6.592  -2.171  11.430  0.00  0.00    -0.217 OA
BRANCH  17  19
ATOM     19  C   UNL A   1      -5.116  -0.772  10.512  0.00  0.00    +0.241 C 
BRANCH  19  20
ATOM     20  O   UNL A   1      -4.863  -1.449   9.582  0.00  0.00    -0.461 OA
BRANCH  20  21
ATOM     21  C   UNL A   1      -3.886  -1.194   8.663  0.00  0.00    +0.259 C 
ATOM     22  C   UNL A   1      -4.368  -0.838   7.625  0.00  0.00    +0.175 C 
ATOM     23  O   UNL A   1      -3.949  -0.017   6.795  0.00  0.00    -0.228 OA
ENDBRANCH  20  21
ENDBRANCH  19  20
ENDBRANCH  17  19
ENDBRANCH  16  17
ENDBRANCH   4  16
TORSDOF 5
ENDMDL
ENDMDL
