MODEL 4615
MODEL 1
REMARK VINA RESULT:    -7.862      0.000      0.000
REMARK INTER + INTRA:         -11.951
REMARK INTER:                 -10.620
REMARK INTRA:                  -1.331
REMARK UNBOUND:                -1.331
REMARK  Name = No_4615-gen_results/8p0m/2024-11-26-14-13-15/
REMARK  6 active torsions:
REMARK  status: ('A' for Active; 'I' for Inactive)
REMARK    1  A    between atoms: C_3  and  C_20
REMARK    2  A    between atoms: C_6  and  C_8
REMARK    3  A    between atoms: N_9  and  C_11
REMARK    4  A    between atoms: C_14  and  C_17
REMARK    5  A    between atoms: C_21  and  C_26
REMARK    6  A    between atoms: C_26  and  O_27
REMARK                            x       y       z     vdW  Elec       q    Type
REMARK                         _______ _______ _______ _____ _____    ______ ____
ROOT
ATOM      1  C   UNL A   1     -23.547   0.737  28.051  0.00  0.00    +0.011 A 
ATOM      2  C   UNL A   1     -23.700  -0.367  28.520  0.00  0.00    +0.058 A 
ATOM      3  C   UNL A   1     -24.587  -1.261  28.187  0.00  0.00    +0.011 A 
ATOM      4  C   UNL A   1     -25.519  -0.930  27.156  0.00  0.00    +0.005 A 
ATOM      5  C   UNL A   1     -24.382   1.101  26.921  0.00  0.00    +0.005 A 
ATOM      6  C   UNL A   1     -25.330   0.250  26.528  0.00  0.00    +0.055 A 
ATOM      7 CL   UNL A   1     -22.500  -0.740  29.731  0.00  0.00    -0.082 Cl
ENDROOT
BRANCH   3   8
ATOM      8  C   UNL A   1     -24.744  -2.609  28.903  0.00  0.00    +0.007 A 
ATOM      9  C   UNL A   1     -25.789  -2.883  29.595  0.00  0.00    +0.076 A 
ATOM     10  C   UNL A   1     -26.133  -4.267  29.909  0.00  0.00    +0.006 A 
ATOM     11  C   UNL A   1     -25.332  -5.281  29.346  0.00  0.00    +0.000 A 
ATOM     12  C   UNL A   1     -24.221  -4.903  28.586  0.00  0.00    +0.000 A 
ATOM     13  C   UNL A   1     -23.867  -3.631  28.354  0.00  0.00    +0.000 A 
BRANCH   9  14
ATOM     14  C   UNL A   1     -26.757  -1.907  30.235  0.00  0.00    +0.341 C 
ATOM     15  O   UNL A   1     -27.936  -1.771  29.688  0.00  0.00    -0.245 OA
BRANCH  14  16
ATOM     16  O   UNL A   1     -26.411  -1.343  31.283  0.00  0.00    -0.441 OA
ATOM     17  C   UNL A   1     -26.166   0.004  31.352  0.00  0.00    +0.256 C 
ENDBRANCH  14  16
ENDBRANCH   9  14
ENDBRANCH   3   8
BRANCH   6  18
ATOM     18  C   UNL A   1     -26.269   0.627  25.415  0.00  0.00    +0.269 C 
ATOM     19  N   UNL A   1     -27.351   1.043  25.730  0.00  0.00    -0.175 NA
ATOM     20  O   UNL A   1     -25.884   0.424  24.233  0.00  0.00    -0.268 OA
BRANCH  19  21
ATOM     21  C   UNL A   1     -28.392   1.438  24.736  0.00  0.00    +0.074 A 
ATOM     22  C   UNL A   1     -28.599   2.261  24.171  0.00  0.00    +0.017 A 
ATOM     23  C   UNL A   1     -29.648   2.528  23.236  0.00  0.00    +0.008 A 
ATOM     24  C   UNL A   1     -30.561   1.487  23.018  0.00  0.00    +0.080 A 
ATOM     25  C   UNL A   1     -30.366   0.313  23.731  0.00  0.00    +0.008 A 
ATOM     26  C   UNL A   1     -29.312   0.160  24.608  0.00  0.00    +0.017 A 
BRANCH  24  27
ATOM     27  C   UNL A   1     -31.660   1.648  22.096  0.00  0.00    +0.388 C 
ATOM     28  O   UNL A   1     -32.425   0.780  21.935  0.00  0.00    -0.241 OA
ATOM     29  O   UNL A   1     -31.594   2.677  21.356  0.00  0.00    -0.241 OA
ENDBRANCH  24  27
ENDBRANCH  19  21
ENDBRANCH   6  18
TORSDOF 6
ENDMDL
ENDMDL
