REMARK  Name = No_4617-gen_results/8p0m/2024-11-26-14-13-15/
REMARK  2 active torsions:
REMARK  status: ('A' for Active; 'I' for Inactive)
REMARK    1  A    between atoms: C_3  and  C_11
REMARK    2  A    between atoms: C_11  and  C_12
REMARK                            x       y       z     vdW  Elec       q    Type
REMARK                         _______ _______ _______ _____ _____    ______ ____
ROOT
ATOM      1  C   UNL A   1     -28.016  -0.814  28.878  0.00  0.00    +0.160 A 
ATOM      2  C   UNL A   1     -28.469  -0.785  29.829  0.00  0.00    +0.161 A 
ATOM      3  C   UNL A   1     -26.504  -0.778  28.877  0.00  0.00    +0.018 A 
ATOM      4  C   UNL A   1     -25.810  -0.853  30.103  0.00  0.00    -0.001 A 
ATOM      5  C   UNL A   1     -27.991  -0.892  31.226  0.00  0.00    +0.023 A 
ATOM      6  C   UNL A   1     -26.604  -0.868  31.265  0.00  0.00    +0.001 A 
ATOM      7  S   UNL A   1     -30.328  -0.833  29.858  0.00  0.00    +0.096 S 
ATOM      8  O   UNL A   1     -30.865   0.037  30.815  0.00  0.00    -0.148 OA
ATOM      9  O   UNL A   1     -30.690  -2.220  30.062  0.00  0.00    -0.148 OA
ATOM     10  N   UNL A   1     -30.698  -0.387  28.407  0.00  0.00    -0.093 NA
ATOM     11  C   UNL A   1     -30.321   0.639  27.800  0.00  0.00    +0.125 A 
ATOM     12  C   UNL A   1     -31.333   1.425  27.137  0.00  0.00    +0.021 A 
ATOM     13  C   UNL A   1     -30.922   2.553  26.448  0.00  0.00    +0.002 A 
ATOM     14  C   UNL A   1     -29.546   2.930  26.273  0.00  0.00    +0.003 A 
ATOM     15  C   UNL A   1     -28.647   2.136  26.954  0.00  0.00    +0.039 A 
ATOM     16  C   UNL A   1     -28.947   1.091  27.650  0.00  0.00    +0.162 A 
ATOM     17  O   UNL A   1     -28.112   0.718  28.531  0.00  0.00    -0.451 OA
ENDROOT
BRANCH   3  18
ATOM     18  C   UNL A   1     -25.638  -0.707  27.688  0.00  0.00    +0.056 C 
BRANCH  18  19
ATOM     19  C   UNL A   1     -25.297   0.662  27.319  0.00  0.00    -0.018 A 
ATOM     20  C   UNL A   1     -23.976   0.932  27.660  0.00  0.00    -0.004 A 
ATOM     21  C   UNL A   1     -23.293   2.025  27.026  0.00  0.00    -0.000 A 
ATOM     22  C   UNL A   1     -23.971   2.841  26.173  0.00  0.00    -0.000 A 
ATOM     23  C   UNL A   1     -25.939   1.327  26.291  0.00  0.00    -0.004 A 
ATOM     24  C   UNL A   1     -25.290   2.481  25.792  0.00  0.00    -0.000 A 
ENDBRANCH  18  19
ENDBRANCH   3  18
TORSDOF 2
