MODEL 4617
MODEL 1
REMARK VINA RESULT:    -7.350      0.000      0.000
REMARK INTER + INTRA:          -8.924
REMARK INTER:                  -8.210
REMARK INTRA:                  -0.714
REMARK UNBOUND:                -0.714
REMARK  Name = No_4617-gen_results/8p0m/2024-11-26-14-13-15/
REMARK  2 active torsions:
REMARK  status: ('A' for Active; 'I' for Inactive)
REMARK    1  A    between atoms: C_3  and  C_11
REMARK    2  A    between atoms: C_11  and  C_12
REMARK                            x       y       z     vdW  Elec       q    Type
REMARK                         _______ _______ _______ _____ _____    ______ ____
ROOT
ATOM      1  C   UNL A   1     -23.586   0.504  28.327  0.00  0.00    +0.160 A 
ATOM      2  C   UNL A   1     -22.939  -0.078  28.922  0.00  0.00    +0.161 A 
ATOM      3  C   UNL A   1     -22.911   1.518  27.432  0.00  0.00    +0.018 A 
ATOM      4  C   UNL A   1     -21.504   1.528  27.337  0.00  0.00    -0.001 A 
ATOM      5  C   UNL A   1     -21.475  -0.286  28.988  0.00  0.00    +0.023 A 
ATOM      6  C   UNL A   1     -20.819   0.626  28.173  0.00  0.00    +0.001 A 
ATOM      7  S   UNL A   1     -23.744  -1.336  30.029  0.00  0.00    +0.096 S 
ATOM      8  O   UNL A   1     -23.136  -1.399  31.289  0.00  0.00    -0.148 OA
ATOM      9  O   UNL A   1     -23.711  -2.589  29.302  0.00  0.00    -0.148 OA
ATOM     10  N   UNL A   1     -25.211  -0.808  30.126  0.00  0.00    -0.093 NA
ATOM     11  C   UNL A   1     -25.595   0.336  30.454  0.00  0.00    +0.125 A 
ATOM     12  C   UNL A   1     -26.648   0.424  31.437  0.00  0.00    +0.021 A 
ATOM     13  C   UNL A   1     -27.090   1.687  31.793  0.00  0.00    +0.002 A 
ATOM     14  C   UNL A   1     -26.634   2.901  31.174  0.00  0.00    +0.003 A 
ATOM     15  C   UNL A   1     -25.616   2.728  30.261  0.00  0.00    +0.039 A 
ATOM     16  C   UNL A   1     -25.118   1.593  29.899  0.00  0.00    +0.162 A 
ATOM     17  O   UNL A   1     -23.953   1.601  29.394  0.00  0.00    -0.451 OA
ENDROOT
BRANCH   3  18
ATOM     18  C   UNL A   1     -23.588   2.515  26.584  0.00  0.00    +0.056 C 
BRANCH  18  19
ATOM     19  C   UNL A   1     -24.737   1.965  25.874  0.00  0.00    -0.018 A 
ATOM     20  C   UNL A   1     -24.356   0.840  25.151  0.00  0.00    -0.004 A 
ATOM     21  C   UNL A   1     -25.356  -0.103  24.734  0.00  0.00    -0.000 A 
ATOM     22  C   UNL A   1     -26.671   0.160  24.968  0.00  0.00    -0.000 A 
ATOM     23  C   UNL A   1     -26.032   2.143  26.325  0.00  0.00    -0.004 A 
ATOM     24  C   UNL A   1     -27.007   1.275  25.779  0.00  0.00    -0.000 A 
ENDBRANCH  18  19
ENDBRANCH   3  18
TORSDOF 2
ENDMDL
ENDMDL
