MODEL 4618
MODEL 1
REMARK VINA RESULT:    -6.719      0.000      0.000
REMARK INTER + INTRA:          -7.896
REMARK INTER:                  -7.505
REMARK INTRA:                  -0.391
REMARK UNBOUND:                -0.391
REMARK  Name = No_4618-gen_results/8p0m/2024-11-26-14-13-15/
REMARK  2 active torsions:
REMARK  status: ('A' for Active; 'I' for Inactive)
REMARK    1  A    between atoms: C_3  and  C_4
REMARK    2  A    between atoms: C_6  and  C_13
REMARK                            x       y       z     vdW  Elec       q    Type
REMARK                         _______ _______ _______ _____ _____    ______ ____
ROOT
ATOM      1  C   UNL A   1     -29.118 -10.346  32.732  0.00  0.00    +0.007 A 
ATOM      2  C   UNL A   1     -29.724 -10.046  31.730  0.00  0.00    +0.000 A 
ATOM      3  C   UNL A   1     -29.566 -10.767  30.552  0.00  0.00    +0.000 A 
ATOM      4  C   UNL A   1     -28.057 -11.365  32.676  0.00  0.00    +0.080 A 
ATOM      5  C   UNL A   1     -27.890 -12.169  31.575  0.00  0.00    +0.007 A 
ATOM      6  C   UNL A   1     -28.615 -11.883  30.407  0.00  0.00    +0.000 A 
ENDROOT
BRANCH   3   7
ATOM      7  C   UNL A   1     -30.246 -10.492  29.254  0.00  0.00    +0.002 A 
ATOM      8  C   UNL A   1     -31.156  -9.407  29.003  0.00  0.00    +0.000 A 
ATOM      9  C   UNL A   1     -31.650  -9.224  27.729  0.00  0.00    +0.002 A 
ATOM     10  C   UNL A   1     -31.241  -9.853  26.592  0.00  0.00    +0.030 A 
ATOM     11  C   UNL A   1     -29.813 -11.164  28.042  0.00  0.00    +0.030 A 
ATOM     12  C   UNL A   1     -30.328 -10.843  26.779  0.00  0.00    +0.140 A 
ATOM     13  F   UNL A   1     -29.860 -11.558  25.755  0.00  0.00    -0.204 F 
ENDBRANCH   3   7
BRANCH   4  14
ATOM     14  C   UNL A   1     -27.257 -11.529  33.919  0.00  0.00    +0.388 C 
ATOM     15  O   UNL A   1     -26.825 -12.768  34.134  0.00  0.00    -0.241 OA
ATOM     16  O   UNL A   1     -26.868 -10.708  34.660  0.00  0.00    -0.241 OA
ENDBRANCH   4  14
TORSDOF 2
ENDMDL
ENDMDL
