MODEL 4619
MODEL 1
REMARK VINA RESULT:    -7.925      0.000      0.000
REMARK INTER + INTRA:         -11.885
REMARK INTER:                 -10.705
REMARK INTRA:                  -1.180
REMARK UNBOUND:                -1.180
REMARK  Name = No_4619-gen_results/8p0m/2024-11-26-14-13-15/
REMARK  6 active torsions:
REMARK  status: ('A' for Active; 'I' for Inactive)
REMARK    1  A    between atoms: C_4  and  C_8
REMARK    2  A    between atoms: C_8  and  C_9
REMARK    3  A    between atoms: C_13  and  C_15
REMARK    4  A    between atoms: C_15  and  C_17
REMARK    5  A    between atoms: C_17  and  N_18
REMARK    6  A    between atoms: N_18  and  C_20
REMARK                            x       y       z     vdW  Elec       q    Type
REMARK                         _______ _______ _______ _____ _____    ______ ____
ROOT
ATOM      1  C   UNL A   1     -22.701  -0.354  28.631  0.00  0.00    -0.018 A 
ATOM      2  C   UNL A   1     -21.457   0.394  28.633  0.00  0.00    -0.004 A 
ATOM      3  C   UNL A   1     -21.236   1.339  27.611  0.00  0.00    -0.001 A 
ATOM      4  C   UNL A   1     -22.382   1.885  26.947  0.00  0.00    -0.004 A 
ATOM      5  C   UNL A   1     -23.645   1.344  27.132  0.00  0.00    -0.021 A 
ATOM      6  C   UNL A   1     -23.846   0.307  28.026  0.00  0.00    -0.008 A 
ENDROOT
BRANCH   5   7
ATOM      7  C   UNL A   1     -24.734   2.003  26.419  0.00  0.00    +0.042 C 
ATOM      8  C   UNL A   1     -24.742   3.183  26.000  0.00  0.00    +0.006 C 
BRANCH   7   9
ATOM      9  C   UNL A   1     -25.903   1.122  26.364  0.00  0.00    +0.095 C 
BRANCH   9  10
ATOM     10  N   UNL A   1     -26.191   0.585  25.193  0.00  0.00    -0.305 N 
ATOM     11  C   UNL A   1     -25.359  -0.072  24.492  0.00  0.00    +0.112 C 
BRANCH  10  12
ATOM     12  C   UNL A   1     -27.528   0.863  24.714  0.00  0.00    +0.048 A 
ATOM     13  C   UNL A   1     -27.778   2.045  24.181  0.00  0.00    +0.015 A 
ATOM     14  C   UNL A   1     -29.083   2.281  23.620  0.00  0.00    +0.001 A 
ATOM     15  C   UNL A   1     -29.921   1.166  23.349  0.00  0.00    +0.000 A 
ATOM     16  C   UNL A   1     -29.486  -0.071  23.688  0.00  0.00    +0.001 A 
ATOM     17  C   UNL A   1     -28.177  -0.274  24.323  0.00  0.00    +0.015 A 
ENDBRANCH  10  12
ENDBRANCH   9  10
ENDBRANCH   7   9
ENDBRANCH   5   7
BRANCH   1  18
ATOM     18  C   UNL A   1     -22.970  -1.231  29.630  0.00  0.00    +0.053 C 
BRANCH  18  22
ATOM     19  C   UNL A   1     -26.351  -3.004  30.123  0.00  0.00    +0.029 A 
ATOM     20  C   UNL A   1     -26.073  -3.911  29.665  0.00  0.00    +0.140 A 
ATOM     21  C   UNL A   1     -25.262  -1.957  30.205  0.00  0.00    -0.002 A 
ATOM     22  C   UNL A   1     -24.030  -2.190  29.558  0.00  0.00    -0.018 A 
ATOM     23  C   UNL A   1     -24.899  -4.388  28.899  0.00  0.00    +0.029 A 
ATOM     24  C   UNL A   1     -23.879  -3.449  28.946  0.00  0.00    -0.002 A 
ATOM     25  F   UNL A   1     -27.126  -4.907  29.578  0.00  0.00    -0.204 F 
ENDBRANCH  18  22
ENDBRANCH   1  18
TORSDOF 6
ENDMDL
ENDMDL
