MODEL 461
MODEL 1
REMARK VINA RESULT:    -5.586      0.000      0.000
REMARK INTER + INTRA:          -6.429
REMARK INTER:                  -6.239
REMARK INTRA:                  -0.190
REMARK UNBOUND:                -0.190
REMARK  Name = No_461-gen_results/8p0m/2024-11-26-14-13-15/
REMARK  2 active torsions:
REMARK  status: ('A' for Active; 'I' for Inactive)
REMARK    1  A    between atoms: C_3  and  C_11
REMARK    2  A    between atoms: C_5  and  C_7
REMARK                            x       y       z     vdW  Elec       q    Type
REMARK                         _______ _______ _______ _____ _____    ______ ____
ROOT
ATOM      1  C   UNL A   1     -29.582  -9.584  32.417  0.00  0.00    +0.011 A 
ATOM      2  C   UNL A   1     -29.955  -9.849  31.298  0.00  0.00    +0.054 A 
ATOM      3  C   UNL A   1     -29.445 -10.865  30.507  0.00  0.00    -0.011 A 
ATOM      4  C   UNL A   1     -28.419 -11.677  31.075  0.00  0.00    +0.003 A 
ATOM      5  C   UNL A   1     -28.134 -11.449  32.374  0.00  0.00    +0.080 A 
ATOM      6  C   UNL A   1     -28.751 -10.495  33.073  0.00  0.00    +0.007 A 
ATOM      7 CL   UNL A   1     -31.135  -8.780  30.395  0.00  0.00    -0.083 Cl
ENDROOT
BRANCH   5   8
ATOM      8  C   UNL A   1     -27.193 -12.262  33.147  0.00  0.00    +0.388 C 
ATOM      9  O   UNL A   1     -26.368 -12.959  32.522  0.00  0.00    -0.241 OA
ATOM     10  O   UNL A   1     -27.369 -12.346  34.414  0.00  0.00    -0.241 OA
ENDBRANCH   5   8
BRANCH   3  11
ATOM     11  C   UNL A   1     -29.820 -10.994  29.011  0.00  0.00    +0.027 C 
ATOM     12  C   UNL A   1     -29.120 -11.894  28.252  0.00  0.00    +0.005 C 
ENDBRANCH   3  11
TORSDOF 2
ENDMDL
ENDMDL
