MODEL 4620
MODEL 1
REMARK VINA RESULT:    -6.925      0.000      0.000
REMARK INTER + INTRA:          -7.983
REMARK INTER:                  -7.735
REMARK INTRA:                  -0.248
REMARK UNBOUND:                -0.248
REMARK  Name = No_4620-gen_results/8p0m/2024-11-26-14-13-15/
REMARK  2 active torsions:
REMARK  status: ('A' for Active; 'I' for Inactive)
REMARK    1  A    between atoms: C_4  and  C_6
REMARK    2  A    between atoms: C_6  and  C_8
REMARK                            x       y       z     vdW  Elec       q    Type
REMARK                         _______ _______ _______ _____ _____    ______ ____
ROOT
ATOM      1  C   UNL A   1     -24.516  -1.203  29.328  0.00  0.00    +0.053 C 
ENDROOT
BRANCH   1   5
ATOM      2  C   UNL A   1     -24.178  -4.909  28.588  0.00  0.00    -0.000 A 
ATOM      3  C   UNL A   1     -25.093  -5.219  29.010  0.00  0.00    -0.000 A 
ATOM      4  C   UNL A   1     -23.880  -3.431  28.696  0.00  0.00    -0.004 A 
ATOM      5  C   UNL A   1     -24.703  -2.696  29.184  0.00  0.00    -0.018 A 
ATOM      6  C   UNL A   1     -26.185  -4.538  29.709  0.00  0.00    -0.000 A 
ATOM      7  C   UNL A   1     -25.912  -3.145  29.774  0.00  0.00    -0.004 A 
ENDBRANCH   1   5
BRANCH   1   8
ATOM      8  C   UNL A   1     -23.483  -0.593  28.689  0.00  0.00    -0.018 A 
ATOM      9  C   UNL A   1     -22.189  -0.649  29.261  0.00  0.00    -0.004 A 
ATOM     10  C   UNL A   1     -21.132   0.037  28.637  0.00  0.00    -0.000 A 
ATOM     11  C   UNL A   1     -21.435   1.086  27.754  0.00  0.00    -0.000 A 
ATOM     12  C   UNL A   1     -22.720   1.373  27.386  0.00  0.00    -0.000 A 
ATOM     13  C   UNL A   1     -23.803   0.589  27.919  0.00  0.00    -0.004 A 
ENDBRANCH   1   8
TORSDOF 2
ENDMDL
ENDMDL
