REMARK  Name = No_4622-gen_results/8p0m/2024-11-26-14-13-15/
REMARK  1 active torsions:
REMARK  status: ('A' for Active; 'I' for Inactive)
REMARK    1  A    between atoms: C_15  and  C_16
REMARK                            x       y       z     vdW  Elec       q    Type
REMARK                         _______ _______ _______ _____ _____    ______ ____
ROOT
ATOM      1  C   UNL A   1     -28.016  -0.814  28.878  0.00  0.00    +0.034 C 
ATOM      2  C   UNL A   1     -28.469  -0.785  29.829  0.00  0.00    -0.025 C 
ATOM      3  C   UNL A   1     -26.504  -0.778  28.877  0.00  0.00    +0.031 C 
ATOM      4  C   UNL A   1     -25.762  -0.002  27.971  0.00  0.00    -0.025 C 
ATOM      5  C   UNL A   1     -24.391   0.120  28.138  0.00  0.00    -0.012 C 
ATOM      6  C   UNL A   1     -23.712  -0.720  29.086  0.00  0.00    -0.008 C 
ATOM      7  C   UNL A   1     -24.421  -1.536  29.916  0.00  0.00    -0.026 C 
ATOM      8  C   UNL A   1     -25.802  -1.584  29.812  0.00  0.00    +0.031 C 
ATOM      9  C   UNL A   1     -29.940  -0.615  29.952  0.00  0.00    -0.005 C 
ATOM     10  C   UNL A   1     -30.553  -0.349  28.738  0.00  0.00    -0.005 C 
ATOM     11  C   UNL A   1     -29.831  -0.135  27.633  0.00  0.00    -0.022 C 
ATOM     12  C   UNL A   1     -28.501  -0.162  27.699  0.00  0.00    +0.048 C 
ATOM     13  C   UNL A   1     -27.608   0.140  26.569  0.00  0.00    -0.022 C 
ATOM     14  C   UNL A   1     -26.341   0.502  26.831  0.00  0.00    -0.009 C 
ATOM     15  C   UNL A   1     -23.533   0.997  27.294  0.00  0.00    +0.147 C 
ATOM     16  C   UNL A   1     -23.992   1.468  26.044  0.00  0.00    -0.011 C 
ATOM     17  C   UNL A   1     -25.533   1.277  25.813  0.00  0.00    -0.004 C 
ENDROOT
BRANCH  15  18
ATOM     18  C   UNL A   1     -22.314   1.510  27.801  0.00  0.00    +0.372 C 
ATOM     19  O   UNL A   1     -22.132   1.852  29.021  0.00  0.00    -0.245 OA
ATOM     20  O   UNL A   1     -21.343   1.712  26.941  0.00  0.00    -0.245 OA
ENDBRANCH  15  18
TORSDOF 1
