MODEL 4622
MODEL 1
REMARK VINA RESULT:    -7.233      0.000      0.000
REMARK INTER + INTRA:          -7.782
REMARK INTER:                  -7.656
REMARK INTRA:                  -0.126
REMARK UNBOUND:                -0.126
REMARK  Name = No_4622-gen_results/8p0m/2024-11-26-14-13-15/
REMARK  1 active torsions:
REMARK  status: ('A' for Active; 'I' for Inactive)
REMARK    1  A    between atoms: C_15  and  C_16
REMARK                            x       y       z     vdW  Elec       q    Type
REMARK                         _______ _______ _______ _____ _____    ______ ____
ROOT
ATOM      1  C   UNL A   1     -25.519  -2.797  29.974  0.00  0.00    +0.034 C 
ATOM      2  C   UNL A   1     -26.401  -3.373  29.958  0.00  0.00    -0.025 C 
ATOM      3  C   UNL A   1     -25.717  -1.309  30.160  0.00  0.00    +0.031 C 
ATOM      4  C   UNL A   1     -24.999  -0.349  29.428  0.00  0.00    -0.025 C 
ATOM      5  C   UNL A   1     -25.353   0.988  29.522  0.00  0.00    -0.012 C 
ATOM      6  C   UNL A   1     -26.291   1.407  30.527  0.00  0.00    -0.008 C 
ATOM      7  C   UNL A   1     -26.935   0.485  31.297  0.00  0.00    -0.026 C 
ATOM      8  C   UNL A   1     -26.648  -0.861  31.134  0.00  0.00    +0.031 C 
ATOM      9  C   UNL A   1     -26.350  -4.810  29.586  0.00  0.00    -0.005 C 
ATOM     10  C   UNL A   1     -25.100  -5.203  29.134  0.00  0.00    -0.005 C 
ATOM     11  C   UNL A   1     -24.125  -4.309  28.937  0.00  0.00    -0.022 C 
ATOM     12  C   UNL A   1     -24.360  -3.018  29.164  0.00  0.00    +0.048 C 
ATOM     13  C   UNL A   1     -23.391  -1.941  28.903  0.00  0.00    -0.022 C 
ATOM     14  C   UNL A   1     -23.850  -0.687  28.753  0.00  0.00    -0.009 C 
ATOM     15  C   UNL A   1     -24.721   2.067  28.713  0.00  0.00    +0.147 C 
ATOM     16  C   UNL A   1     -23.476   1.858  28.079  0.00  0.00    -0.011 C 
ATOM     17  C   UNL A   1     -23.030   0.354  28.023  0.00  0.00    -0.004 C 
ENDROOT
BRANCH  15  18
ATOM     18  C   UNL A   1     -25.431   3.259  28.427  0.00  0.00    +0.372 C 
ATOM     19  O   UNL A   1     -25.272   4.358  29.063  0.00  0.00    -0.245 OA
ATOM     20  O   UNL A   1     -26.359   3.198  27.501  0.00  0.00    -0.245 OA
ENDBRANCH  15  18
TORSDOF 1
ENDMDL
ENDMDL
