REMARK  Name = No_4623-gen_results/8p0m/2024-11-26-14-13-15/
REMARK  4 active torsions:
REMARK  status: ('A' for Active; 'I' for Inactive)
REMARK    1  A    between atoms: C_3  and  O_22
REMARK    2  A    between atoms: C_4  and  C_11
REMARK    3  A    between atoms: O_22  and  C_23
REMARK    4  A    between atoms: C_26  and  C_27
REMARK                            x       y       z     vdW  Elec       q    Type
REMARK                         _______ _______ _______ _____ _____    ______ ____
ROOT
ATOM      1  C   UNL A   1     -28.016  -0.814  28.878  0.00  0.00    +0.042 A 
ATOM      2  C   UNL A   1     -28.469  -0.785  29.829  0.00  0.00    +0.053 A 
ATOM      3  C   UNL A   1     -26.546  -0.876  28.850  0.00  0.00    +0.145 A 
ATOM      4  C   UNL A   1     -25.804  -1.032  30.057  0.00  0.00    +0.034 A 
ATOM      5  C   UNL A   1     -27.944  -0.987  31.207  0.00  0.00    -0.016 A 
ATOM      6  C   UNL A   1     -26.582  -1.039  31.223  0.00  0.00    -0.001 A 
ATOM      7  C   UNL A   1     -30.061  -0.737  29.902  0.00  0.00    +0.249 C 
ATOM      8  O   UNL A   1     -30.552  -0.277  29.011  0.00  0.00    -0.270 OA
ATOM      9  N   UNL A   1     -30.743  -1.289  30.994  0.00  0.00    -0.277 N 
ATOM     10  C   UNL A   1     -32.171  -1.260  30.975  0.00  0.00    +0.094 C 
ATOM     11  C   UNL A   1     -32.701  -2.090  31.699  0.00  0.00    +0.022 C 
ATOM     12  C   UNL A   1     -32.004  -2.880  32.716  0.00  0.00    +0.004 C 
ATOM     13  C   UNL A   1     -30.595  -2.886  32.677  0.00  0.00    +0.020 C 
ATOM     14  C   UNL A   1     -29.979  -2.199  31.775  0.00  0.00    +0.080 C 
ATOM     15  C   UNL A   1     -28.546  -2.014  31.915  0.00  0.00    +0.046 C 
ENDROOT
BRANCH   4  16
ATOM     16  C   UNL A   1     -24.369  -1.088  30.088  0.00  0.00    -0.001 A 
ATOM     17  C   UNL A   1     -23.719   0.180  30.018  0.00  0.00    -0.022 A 
ATOM     18  C   UNL A   1     -22.471   0.302  29.324  0.00  0.00    -0.004 A 
ATOM     19  C   UNL A   1     -21.777  -0.930  29.137  0.00  0.00    -0.000 A 
ATOM     20  C   UNL A   1     -22.523  -2.090  29.033  0.00  0.00    -0.000 A 
ATOM     21  C   UNL A   1     -23.797  -2.217  29.552  0.00  0.00    -0.000 A 
ATOM     22  C   UNL A   1     -24.387   1.472  30.434  0.00  0.00    +0.031 C 
ENDBRANCH   4  16
BRANCH   3  23
ATOM     23  O   UNL A   1     -25.819  -0.693  27.719  0.00  0.00    -0.454 OA
BRANCH  23  24
ATOM     24  C   UNL A   1     -26.236   0.141  26.770  0.00  0.00    +0.145 A 
ATOM     25  C   UNL A   1     -25.515   0.123  25.597  0.00  0.00    +0.037 A 
ATOM     26  C   UNL A   1     -27.212   1.130  26.841  0.00  0.00    +0.037 A 
ATOM     27  C   UNL A   1     -27.335   1.891  26.061  0.00  0.00    +0.003 A 
ATOM     28  C   UNL A   1     -25.695   0.961  24.544  0.00  0.00    +0.003 A 
ATOM     29  C   UNL A   1     -26.698   1.931  24.783  0.00  0.00    +0.000 A 
BRANCH  27  30
ATOM     30  C   UNL A   1     -28.433   2.889  26.215  0.00  0.00    +0.000 A 
ATOM     31  C   UNL A   1     -29.272   2.864  27.246  0.00  0.00    +0.000 A 
ATOM     32  C   UNL A   1     -30.299   3.795  27.413  0.00  0.00    +0.000 A 
ATOM     33  C   UNL A   1     -30.449   4.732  26.372  0.00  0.00    +0.000 A 
ATOM     34  C   UNL A   1     -29.687   4.787  25.237  0.00  0.00    +0.000 A 
ATOM     35  C   UNL A   1     -28.674   3.910  25.165  0.00  0.00    +0.000 A 
ENDBRANCH  27  30
ENDBRANCH  23  24
ENDBRANCH   3  23
TORSDOF 4
