MODEL 4624
MODEL 1
REMARK VINA RESULT:    -6.478      0.000      0.000
REMARK INTER + INTRA:          -6.478
REMARK INTER:                  -6.478
REMARK INTRA:                   0.000
REMARK UNBOUND:                 0.000
REMARK  Name = No_4624-gen_results/8p0m/2024-11-26-14-13-15/
REMARK  0 active torsions:
REMARK  status: ('A' for Active; 'I' for Inactive)
REMARK                            x       y       z     vdW  Elec       q    Type
REMARK                         _______ _______ _______ _____ _____    ______ ____
ROOT
ATOM      1  C   UNL A   1     -26.429  -3.996  29.785  0.00  0.00    +0.000 A 
ATOM      2  C   UNL A   1     -25.906  -2.906  29.786  0.00  0.00    +0.000 A 
ATOM      3  C   UNL A   1     -24.620  -2.726  29.287  0.00  0.00    +0.002 A 
ATOM      4  C   UNL A   1     -23.854  -3.842  28.795  0.00  0.00    +0.000 A 
ATOM      5  C   UNL A   1     -24.527  -5.069  28.852  0.00  0.00    +0.000 A 
ATOM      6  C   UNL A   1     -25.737  -5.189  29.349  0.00  0.00    +0.000 A 
ATOM      7  C   UNL A   1     -26.536  -1.652  30.279  0.00  0.00    -0.000 A 
ATOM      8  C   UNL A   1     -26.275  -0.492  29.787  0.00  0.00    -0.000 A 
ATOM      9  C   UNL A   1     -24.886  -0.269  29.202  0.00  0.00    -0.001 A 
ATOM     10  C   UNL A   1     -24.143  -1.388  28.846  0.00  0.00    +0.019 A 
ATOM     11  C   UNL A   1     -24.401   1.075  28.918  0.00  0.00    -0.003 A 
ATOM     12  C   UNL A   1     -25.150   2.189  28.723  0.00  0.00    +0.033 C 
ATOM     13  C   UNL A   1     -22.941   1.169  28.757  0.00  0.00    +0.095 A 
ATOM     14  N   UNL A   1     -22.111   0.256  29.055  0.00  0.00    -0.243 NA
ATOM     15  C   UNL A   1     -22.695  -1.111  28.953  0.00  0.00    +0.099 A 
ENDROOT
TORSDOF 0
ENDMDL
ENDMDL
