MODEL 4625
MODEL 1
REMARK VINA RESULT:    -6.937      0.000      0.000
REMARK INTER + INTRA:          -7.763
REMARK INTER:                  -7.342
REMARK INTRA:                  -0.421
REMARK UNBOUND:                -0.421
REMARK  Name = No_4625-gen_results/8p0m/2024-11-26-14-13-15/
REMARK  1 active torsions:
REMARK  status: ('A' for Active; 'I' for Inactive)
REMARK    1  A    between atoms: C_2  and  C_7
REMARK                            x       y       z     vdW  Elec       q    Type
REMARK                         _______ _______ _______ _____ _____    ______ ____
ROOT
ATOM      1  C   UNL A   1     -25.580  -1.139  28.981  0.00  0.00    +0.002 A 
ATOM      2  C   UNL A   1     -24.453  -1.131  28.543  0.00  0.00    +0.000 A 
ATOM      3  C   UNL A   1     -23.642  -2.258  28.626  0.00  0.00    +0.000 A 
ATOM      4  C   UNL A   1     -24.104  -3.456  29.278  0.00  0.00    +0.000 A 
ATOM      5  C   UNL A   1     -25.410  -3.371  29.777  0.00  0.00    +0.003 A 
ATOM      6  C   UNL A   1     -26.130  -2.275  29.688  0.00  0.00    +0.019 A 
ATOM      7  C   UNL A   1     -27.461  -2.312  30.334  0.00  0.00    +0.099 A 
ATOM      8  N   UNL A   1     -28.172  -3.419  30.481  0.00  0.00    -0.242 NA
ATOM      9  C   UNL A   1     -27.784  -4.462  30.075  0.00  0.00    +0.099 A 
ATOM     10  C   UNL A   1     -26.337  -4.678  29.754  0.00  0.00    +0.021 A 
ENDROOT
BRANCH   2  11
ATOM     11  C   UNL A   1     -23.804   0.023  27.864  0.00  0.00    +0.000 A 
ATOM     12  C   UNL A   1     -22.779   0.623  28.145  0.00  0.00    +0.000 A 
ATOM     13  C   UNL A   1     -24.521   0.453  26.652  0.00  0.00    +0.000 A 
ATOM     14  C   UNL A   1     -22.097   1.617  27.504  0.00  0.00    +0.000 A 
ATOM     15  C   UNL A   1     -23.975   1.528  25.910  0.00  0.00    +0.000 A 
ATOM     16  C   UNL A   1     -22.745   2.128  26.350  0.00  0.00    +0.000 A 
ENDBRANCH   2  11
TORSDOF 1
ENDMDL
ENDMDL
