REMARK  Name = No_4625-gen_results/8p0m/2024-11-26-14-13-15/
REMARK  1 active torsions:
REMARK  status: ('A' for Active; 'I' for Inactive)
REMARK    1  A    between atoms: C_2  and  C_7
REMARK                            x       y       z     vdW  Elec       q    Type
REMARK                         _______ _______ _______ _____ _____    ______ ____
ROOT
ATOM      1  C   UNL A   1     -28.016  -0.814  28.878  0.00  0.00    +0.002 A 
ATOM      2  C   UNL A   1     -27.064  -0.119  28.608  0.00  0.00    +0.000 A 
ATOM      3  C   UNL A   1     -25.792  -0.430  29.076  0.00  0.00    +0.000 A 
ATOM      4  C   UNL A   1     -25.576  -1.565  29.936  0.00  0.00    +0.000 A 
ATOM      5  C   UNL A   1     -26.735  -2.300  30.217  0.00  0.00    +0.003 A 
ATOM      6  C   UNL A   1     -27.918  -1.954  29.763  0.00  0.00    +0.019 A 
ATOM      7  C   UNL A   1     -29.060  -2.783  30.212  0.00  0.00    +0.099 A 
ATOM      8  N   UNL A   1     -28.953  -4.063  30.531  0.00  0.00    -0.242 NA
ATOM      9  C   UNL A   1     -27.920  -4.636  30.451  0.00  0.00    +0.099 A 
ATOM     10  C   UNL A   1     -26.623  -3.889  30.393  0.00  0.00    +0.021 A 
ENDROOT
BRANCH   2  11
ATOM     11  C   UNL A   1     -27.106   1.102  27.759  0.00  0.00    +0.000 A 
ATOM     12  C   UNL A   1     -26.716   2.235  27.994  0.00  0.00    +0.000 A 
ATOM     13  C   UNL A   1     -27.681   0.855  26.426  0.00  0.00    +0.000 A 
ATOM     14  C   UNL A   1     -26.645   3.356  27.218  0.00  0.00    +0.000 A 
ATOM     15  C   UNL A   1     -27.744   1.944  25.523  0.00  0.00    +0.000 A 
ATOM     16  C   UNL A   1     -27.225   3.221  25.931  0.00  0.00    +0.000 A 
ENDBRANCH   2  11
TORSDOF 1
