REMARK  Name = No_4626-gen_results/8p0m/2024-11-26-14-13-15/
REMARK  4 active torsions:
REMARK  status: ('A' for Active; 'I' for Inactive)
REMARK    1  A    between atoms: C_3  and  P_7
REMARK    2  A    between atoms: P_7  and  O_9
REMARK    3  A    between atoms: P_7  and  O_10
REMARK    4  A    between atoms: O_10  and  C_11
REMARK                            x       y       z     vdW  Elec       q    Type
REMARK                         _______ _______ _______ _____ _____    ______ ____
ROOT
ATOM      1  P   UNL A   1     -27.296   0.400  26.465  0.00  0.00    +0.415 P 
ATOM      2  O   UNL A   1     -27.983   0.256  25.500  0.00  0.00    -0.239 OA
ENDROOT
BRANCH   1   5
ATOM      3  C   UNL A   1     -28.016  -0.814  28.878  0.00  0.00    +0.009 A 
ATOM      4  C   UNL A   1     -28.469  -0.785  29.829  0.00  0.00    +0.000 A 
ATOM      5  C   UNL A   1     -28.196   0.348  28.055  0.00  0.00    +0.092 A 
ATOM      6  C   UNL A   1     -29.019   1.350  28.378  0.00  0.00    +0.009 A 
ATOM      7  C   UNL A   1     -29.625   1.268  29.601  0.00  0.00    +0.000 A 
ATOM      8  C   UNL A   1     -29.379   0.147  30.392  0.00  0.00    +0.000 A 
ENDBRANCH   1   5
BRANCH   1   9
ATOM      9  O   UNL A   1     -26.713   1.907  26.558  0.00  0.00    -0.280 OA
ATOM     10  C   UNL A   1     -27.569   2.968  26.817  0.00  0.00    +0.185 C 
ENDBRANCH   1   9
BRANCH   1  11
ATOM     11  O   UNL A   1     -26.006  -0.372  26.656  0.00  0.00    -0.416 OA
BRANCH  11  12
ATOM     12  C   UNL A   1     -24.842   0.230  27.218  0.00  0.00    +0.186 A 
ATOM     13  C   UNL A   1     -24.245  -0.538  28.313  0.00  0.00    +0.041 A 
ATOM     14  C   UNL A   1     -23.970   0.150  29.437  0.00  0.00    +0.003 A 
ATOM     15  C   UNL A   1     -23.611   1.569  29.288  0.00  0.00    +0.004 A 
ATOM     16  C   UNL A   1     -24.111   2.266  28.128  0.00  0.00    +0.045 A 
ATOM     17  C   UNL A   1     -24.758   1.524  27.156  0.00  0.00    +0.230 A 
ATOM     18  O   UNL A   1     -24.703   2.005  25.941  0.00  0.00    -0.283 OA
ENDBRANCH  11  12
ENDBRANCH   1  11
TORSDOF 4
