MODEL 4627
MODEL 1
REMARK VINA RESULT:    -5.242      0.000      0.000
REMARK INTER + INTRA:          -5.242
REMARK INTER:                  -5.242
REMARK INTRA:                   0.000
REMARK UNBOUND:                 0.000
REMARK  Name = No_4627-gen_results/8p0m/2024-11-26-14-13-15/
REMARK  0 active torsions:
REMARK  status: ('A' for Active; 'I' for Inactive)
REMARK                            x       y       z     vdW  Elec       q    Type
REMARK                         _______ _______ _______ _____ _____    ______ ____
ROOT
ATOM      1  C   UNL A   1      -9.594 -10.016  17.986  0.00  0.00    +0.030 C 
ATOM      2  C   UNL A   1     -10.091 -10.559  17.232  0.00  0.00    +0.125 C 
ATOM      3  C   UNL A   1     -10.405  -9.571  19.084  0.00  0.00    +0.033 C 
ATOM      4  C   UNL A   1      -9.790  -8.986  20.293  0.00  0.00    +0.005 C 
ATOM      5  C   UNL A   1      -8.496  -9.393  20.668  0.00  0.00    +0.001 C 
ATOM      6  C   UNL A   1      -7.751 -10.199  19.782  0.00  0.00    +0.005 C 
ATOM      7  C   UNL A   1      -8.272 -10.594  18.606  0.00  0.00    +0.033 C 
ATOM      8  O   UNL A   1     -11.109 -10.331  16.694  0.00  0.00    -0.232 OA
ENDROOT
TORSDOF 0
ENDMDL
ENDMDL
