REMARK  Name = No_4628-gen_results/8p0m/2024-11-26-14-13-15/
REMARK  3 active torsions:
REMARK  status: ('A' for Active; 'I' for Inactive)
REMARK    1  A    between atoms: C_4  and  C_16
REMARK    2  A    between atoms: C_11  and  C_13
REMARK    3  A    between atoms: C_13  and  C_15
REMARK                            x       y       z     vdW  Elec       q    Type
REMARK                         _______ _______ _______ _____ _____    ______ ____
ROOT
ATOM      1  C   UNL A   1     -28.016  -0.814  28.878  0.00  0.00    +0.050 A 
ATOM      2  C   UNL A   1     -28.469  -0.785  29.829  0.00  0.00    +0.249 C 
ATOM      3  C   UNL A   1     -28.182   0.428  28.113  0.00  0.00    +0.004 A 
ATOM      4  C   UNL A   1     -27.450   0.643  26.850  0.00  0.00    +0.000 A 
ATOM      5  C   UNL A   1     -26.181   0.036  26.715  0.00  0.00    -0.000 A 
ATOM      6  C   UNL A   1     -25.780  -0.933  27.694  0.00  0.00    -0.004 A 
ATOM      7  C   UNL A   1     -26.557  -1.213  28.741  0.00  0.00    -0.016 A 
ATOM      8  N   UNL A   1     -28.302  -1.978  30.661  0.00  0.00    -0.274 N 
ATOM      9  O   UNL A   1     -29.187   0.018  30.472  0.00  0.00    -0.270 OA
ATOM     10  C   UNL A   1     -27.573  -3.061  30.221  0.00  0.00    +0.099 C 
ATOM     11  C   UNL A   1     -26.343  -2.664  29.505  0.00  0.00    +0.050 C 
ATOM     12  C   UNL A   1     -29.254  -2.411  31.794  0.00  0.00    +0.115 C 
ENDROOT
BRANCH   4  13
ATOM     13  C   UNL A   1     -27.756   1.677  25.916  0.00  0.00    +0.000 A 
ATOM     14  C   UNL A   1     -27.184   2.874  26.238  0.00  0.00    +0.000 A 
ATOM     15  C   UNL A   1     -28.625   1.454  24.862  0.00  0.00    +0.000 A 
ATOM     16  C   UNL A   1     -29.582   2.310  24.572  0.00  0.00    +0.000 A 
ATOM     17  C   UNL A   1     -29.263   3.774  24.766  0.00  0.00    +0.000 A 
ATOM     18  C   UNL A   1     -28.127   3.979  25.752  0.00  0.00    +0.000 A 
ENDBRANCH   4  13
BRANCH  11  19
ATOM     19  C   UNL A   1     -25.091  -3.281  29.405  0.00  0.00    +0.071 C 
ATOM     20  C   UNL A   1     -23.930  -2.711  29.916  0.00  0.00    +0.009 C 
BRANCH  19  21
ATOM     21  C   UNL A   1     -25.130  -4.612  28.920  0.00  0.00    +0.207 C 
ATOM     22  O   UNL A   1     -26.134  -5.248  28.800  0.00  0.00    -0.288 OA
ENDBRANCH  19  21
ENDBRANCH  11  19
TORSDOF 3
