MODEL 4629
MODEL 1
REMARK VINA RESULT:    -6.139      0.000      0.000
REMARK INTER + INTRA:          -7.795
REMARK INTER:                  -7.216
REMARK INTRA:                  -0.578
REMARK UNBOUND:                -0.578
REMARK  Name = No_4629-gen_results/8p0m/2024-11-26-14-13-15/
REMARK  3 active torsions:
REMARK  status: ('A' for Active; 'I' for Inactive)
REMARK    1  A    between atoms: C_4  and  C_9
REMARK    2  A    between atoms: C_9  and  C_10
REMARK    3  A    between atoms: C_14  and  C_15
REMARK                            x       y       z     vdW  Elec       q    Type
REMARK                         _______ _______ _______ _____ _____    ______ ____
ROOT
ATOM      1  C   UNL A   1     -26.320  -3.924  29.779  0.00  0.00    +0.014 A 
ATOM      2  C   UNL A   1     -25.629  -4.560  29.301  0.00  0.00    +0.043 A 
ATOM      3  C   UNL A   1     -25.962  -2.568  29.945  0.00  0.00    +0.054 A 
ATOM      4  C   UNL A   1     -24.746  -2.075  29.513  0.00  0.00    -0.004 A 
ATOM      5  C   UNL A   1     -24.286  -4.292  28.750  0.00  0.00    +0.196 A 
ATOM      6  C   UNL A   1     -23.903  -3.004  28.890  0.00  0.00    +0.039 A 
ATOM      7 CL   UNL A   1     -27.026  -1.411  30.659  0.00  0.00    -0.083 Cl
ATOM      8  O   UNL A   1     -23.500  -5.243  28.135  0.00  0.00    -0.287 OA
ENDROOT
BRANCH   4   9
ATOM      9  C   UNL A   1     -24.330  -0.674  29.683  0.00  0.00    +0.051 C 
BRANCH   9  10
ATOM     10  C   UNL A   1     -23.684   0.038  28.700  0.00  0.00    -0.022 C 
ATOM     11  C   UNL A   1     -22.581   0.556  28.838  0.00  0.00    -0.007 C 
ATOM     12  C   UNL A   1     -22.022   1.375  27.738  0.00  0.00    -0.004 C 
ATOM     13  C   UNL A   1     -22.927   1.659  26.726  0.00  0.00    -0.007 C 
ATOM     14  C   UNL A   1     -24.317   0.450  27.402  0.00  0.00    +0.132 C 
BRANCH  14  15
ATOM     15  C   UNL A   1     -25.418   0.287  26.673  0.00  0.00    +0.081 C 
ATOM     16  N   UNL A   1     -26.423   0.205  25.938  0.00  0.00    -0.195 NA
ENDBRANCH  14  15
ENDBRANCH   9  10
ENDBRANCH   4   9
TORSDOF 3
ENDMDL
ENDMDL
