REMARK  Name = No_4629-gen_results/8p0m/2024-11-26-14-13-15/
REMARK  3 active torsions:
REMARK  status: ('A' for Active; 'I' for Inactive)
REMARK    1  A    between atoms: C_4  and  C_9
REMARK    2  A    between atoms: C_9  and  C_10
REMARK    3  A    between atoms: C_14  and  C_15
REMARK                            x       y       z     vdW  Elec       q    Type
REMARK                         _______ _______ _______ _____ _____    ______ ____
ROOT
ATOM      1  C   UNL A   1     -28.016  -0.814  28.878  0.00  0.00    +0.014 A 
ATOM      2  C   UNL A   1     -28.469  -0.785  29.829  0.00  0.00    +0.043 A 
ATOM      3  C   UNL A   1     -27.136   0.236  28.535  0.00  0.00    +0.054 A 
ATOM      4  C   UNL A   1     -26.875   1.282  29.398  0.00  0.00    -0.004 A 
ATOM      5  C   UNL A   1     -28.361   0.199  30.924  0.00  0.00    +0.196 A 
ATOM      6  C   UNL A   1     -27.528   1.223  30.636  0.00  0.00    +0.039 A 
ATOM      7 CL   UNL A   1     -26.285   0.276  27.034  0.00  0.00    -0.083 Cl
ATOM      8  O   UNL A   1     -29.019   0.087  32.130  0.00  0.00    -0.287 OA
ENDROOT
BRANCH   4   9
ATOM      9  C   UNL A   1     -25.979   2.402  29.071  0.00  0.00    +0.051 C 
BRANCH   9  10
ATOM     10  C   UNL A   1     -26.033   3.078  27.875  0.00  0.00    -0.022 C 
ATOM     11  C   UNL A   1     -27.009   3.711  27.486  0.00  0.00    -0.007 C 
ATOM     12  C   UNL A   1     -26.983   4.326  26.139  0.00  0.00    -0.004 C 
ATOM     13  C   UNL A   1     -25.915   3.923  25.351  0.00  0.00    -0.007 C 
ATOM     14  C   UNL A   1     -24.992   2.971  26.797  0.00  0.00    +0.132 C 
BRANCH  14  15
ATOM     15  C   UNL A   1     -23.790   2.460  26.547  0.00  0.00    +0.081 C 
ATOM     16  N   UNL A   1     -22.666   1.938  26.394  0.00  0.00    -0.195 NA
ENDBRANCH  14  15
ENDBRANCH   9  10
ENDBRANCH   4   9
TORSDOF 3
