MODEL 462
MODEL 1
REMARK VINA RESULT:    -4.349      0.000      0.000
REMARK INTER + INTRA:          -4.349
REMARK INTER:                  -4.349
REMARK INTRA:                   0.000
REMARK UNBOUND:                 0.000
REMARK  Name = No_462-gen_results/8p0m/2024-11-26-14-13-15/
REMARK  0 active torsions:
REMARK  status: ('A' for Active; 'I' for Inactive)
REMARK                            x       y       z     vdW  Elec       q    Type
REMARK                         _______ _______ _______ _____ _____    ______ ____
ROOT
ATOM      1  C   UNL A   1     -24.793  -2.715  29.041  0.00  0.00    +0.000 A 
ATOM      2  C   UNL A   1     -23.947  -3.461  28.605  0.00  0.00    +0.000 A 
ATOM      3  C   UNL A   1     -24.141  -4.838  28.591  0.00  0.00    +0.000 A 
ATOM      4  C   UNL A   1     -24.996  -5.343  29.023  0.00  0.00    +0.000 A 
ATOM      5  C   UNL A   1     -26.126  -4.605  29.649  0.00  0.00    +0.000 A 
ATOM      6  C   UNL A   1     -25.972  -3.301  29.660  0.00  0.00    +0.000 A 
ENDROOT
TORSDOF 0
ENDMDL
ENDMDL
