REMARK  Name = No_4630-gen_results/8p0m/2024-11-26-14-13-15/
REMARK  4 active torsions:
REMARK  status: ('A' for Active; 'I' for Inactive)
REMARK    1  A    between atoms: C_2  and  C_11
REMARK    2  A    between atoms: C_4  and  C_7
REMARK    3  A    between atoms: N_13  and  C_14
REMARK    4  A    between atoms: C_18  and  C_20
REMARK                            x       y       z     vdW  Elec       q    Type
REMARK                         _______ _______ _______ _____ _____    ______ ____
ROOT
ATOM      1  C   UNL A   1     -30.091  -0.796  29.829  0.00  0.00    +0.269 C 
ATOM      2  O   UNL A   1     -30.508  -0.337  28.872  0.00  0.00    -0.268 OA
ATOM      3  N   UNL A   1     -30.805  -1.287  30.858  0.00  0.00    -0.175 NA
ENDROOT
BRANCH   1   5
ATOM      4  C   UNL A   1     -28.016  -0.814  28.878  0.00  0.00    +0.005 A 
ATOM      5  C   UNL A   1     -28.469  -0.785  29.829  0.00  0.00    +0.055 A 
ATOM      6  C   UNL A   1     -26.504  -0.778  28.877  0.00  0.00    +0.005 A 
ATOM      7  C   UNL A   1     -25.810  -0.853  30.103  0.00  0.00    +0.055 A 
ATOM      8  C   UNL A   1     -27.991  -0.892  31.226  0.00  0.00    +0.005 A 
ATOM      9  C   UNL A   1     -26.604  -0.868  31.265  0.00  0.00    +0.005 A 
BRANCH   7  10
ATOM     10  C   UNL A   1     -24.389  -0.805  30.164  0.00  0.00    +0.265 C 
ATOM     11  N   UNL A   1     -23.673  -1.059  29.251  0.00  0.00    -0.200 NA
ATOM     12  C   UNL A   1     -22.299  -0.732  29.207  0.00  0.00    +0.139 C 
ATOM     13  O   UNL A   1     -23.859  -0.615  31.363  0.00  0.00    -0.268 OA
ENDBRANCH   7  10
ENDBRANCH   1   5
BRANCH   3  14
ATOM     14  C   UNL A   1     -32.248  -1.271  30.779  0.00  0.00    +0.074 A 
ATOM     15  C   UNL A   1     -32.939  -0.621  30.326  0.00  0.00    +0.017 A 
ATOM     16  C   UNL A   1     -33.844  -0.207  30.213  0.00  0.00    +0.001 A 
ATOM     17  C   UNL A   1     -34.770  -0.461  31.343  0.00  0.00    +0.000 A 
ATOM     18  C   UNL A   1     -34.222  -1.391  32.262  0.00  0.00    +0.001 A 
ATOM     19  C   UNL A   1     -32.837  -1.688  32.150  0.00  0.00    +0.017 A 
BRANCH  18  20
ATOM     20  C   UNL A   1     -34.955  -1.799  33.484  0.00  0.00    -0.004 C 
ATOM     21  C   UNL A   1     -34.721  -1.143  34.585  0.00  0.00    -0.026 C 
ATOM     22  C   UNL A   1     -35.412  -1.576  35.799  0.00  0.00    +0.031 C 
ENDBRANCH  18  20
ENDBRANCH   3  14
TORSDOF 4
