REMARK  Name = No_4631-gen_results/8p0m/2024-11-26-14-13-15/
REMARK  8 active torsions:
REMARK  status: ('A' for Active; 'I' for Inactive)
REMARK    1  A    between atoms: C_2  and  C_5
REMARK    2  A    between atoms: N_3  and  C_4
REMARK    3  A    between atoms: C_4  and  C_11
REMARK    4  A    between atoms: C_9  and  C_23
REMARK    5  A    between atoms: C_11  and  C_13
REMARK    6  A    between atoms: C_12  and  C_26
REMARK    7  A    between atoms: C_13  and  C_14
REMARK    8  A    between atoms: C_18  and  C_20
REMARK                            x       y       z     vdW  Elec       q    Type
REMARK                         _______ _______ _______ _____ _____    ______ ____
ROOT
ATOM      1  C   UNL A   1     -26.049   0.668  25.829  0.00  0.00    -0.018 C 
ATOM      2  C   UNL A   1     -26.688   0.504  24.749  0.00  0.00    -0.006 C 
ENDROOT
BRANCH   2   3
ATOM      3  C   UNL A   1     -27.813   1.396  24.472  0.00  0.00    -0.001 A 
ATOM      4  C   UNL A   1     -29.004   1.077  23.830  0.00  0.00    -0.000 A 
ATOM      5  C   UNL A   1     -30.007   1.993  23.737  0.00  0.00    -0.000 A 
ATOM      6  C   UNL A   1     -31.226   1.839  23.091  0.00  0.00    -0.000 A 
ATOM      7  C   UNL A   1     -32.110   2.876  22.794  0.00  0.00    +0.000 A 
ATOM      8  C   UNL A   1     -31.990   4.067  23.536  0.00  0.00    +0.000 A 
ATOM      9  C   UNL A   1     -30.933   4.197  24.443  0.00  0.00    +0.000 A 
ATOM     10  C   UNL A   1     -29.896   3.265  24.517  0.00  0.00    -0.000 A 
ATOM     11  C   UNL A   1     -27.711   2.765  25.097  0.00  0.00    -0.000 A 
ATOM     12  C   UNL A   1     -28.683   3.529  25.183  0.00  0.00    -0.000 A 
ENDBRANCH   2   3
BRANCH   1  13
ATOM     13  C   UNL A   1     -26.148  -0.495  26.876  0.00  0.00    +0.138 C 
BRANCH  13  16
ATOM     14  O   UNL A   1     -28.123  -1.335  28.487  0.00  0.00    -0.268 OA
ATOM     15  C   UNL A   1     -27.481  -0.404  28.709  0.00  0.00    +0.265 C 
ATOM     16  N   UNL A   1     -26.460  -0.110  28.005  0.00  0.00    -0.197 NA
BRANCH  15  17
ATOM     17  C   UNL A   1     -27.642   0.498  29.978  0.00  0.00    +0.055 A 
ATOM     18  C   UNL A   1     -28.612   0.439  30.625  0.00  0.00    +0.005 A 
ATOM     19  C   UNL A   1     -28.783   1.202  31.778  0.00  0.00    +0.000 A 
ATOM     20  C   UNL A   1     -27.757   2.145  32.119  0.00  0.00    +0.007 A 
ATOM     21  C   UNL A   1     -26.588   2.200  31.326  0.00  0.00    +0.080 A 
ATOM     22  C   UNL A   1     -26.456   1.313  30.205  0.00  0.00    +0.011 A 
BRANCH  21  23
ATOM     23  C   UNL A   1     -25.482   3.088  31.665  0.00  0.00    +0.388 C 
ATOM     24  O   UNL A   1     -25.451   3.735  32.575  0.00  0.00    -0.241 OA
ATOM     25  O   UNL A   1     -24.394   2.840  30.989  0.00  0.00    -0.241 OA
ENDBRANCH  21  23
ENDBRANCH  15  17
ENDBRANCH  13  16
ENDBRANCH   1  13
BRANCH   1  26
ATOM     26  C   UNL A   1     -24.990   1.634  25.977  0.00  0.00    +0.050 C 
BRANCH  26  27
ATOM     27  C   UNL A   1     -23.841   1.543  26.689  0.00  0.00    -0.018 A 
ATOM     28  C   UNL A   1     -22.728   2.324  26.671  0.00  0.00    -0.004 A 
ATOM     29  C   UNL A   1     -21.690   2.172  27.562  0.00  0.00    -0.001 A 
ATOM     30  C   UNL A   1     -21.669   0.979  28.423  0.00  0.00    -0.004 A 
ATOM     31  C   UNL A   1     -22.761   0.188  28.465  0.00  0.00    -0.023 A 
ATOM     32  C   UNL A   1     -23.803   0.436  27.677  0.00  0.00    -0.008 A 
BRANCH  31  33
ATOM     33  C   UNL A   1     -22.828  -0.911  29.454  0.00  0.00    +0.022 C 
ATOM     34  C   UNL A   1     -22.278  -0.729  30.744  0.00  0.00    +0.005 C 
ATOM     35  C   UNL A   1     -23.605  -2.058  29.092  0.00  0.00    +0.005 C 
ENDBRANCH  31  33
ENDBRANCH  26  27
ENDBRANCH   1  26
TORSDOF 8
