REMARK  Name = No_4632-gen_results/8p0m/2024-11-26-14-13-15/
REMARK  3 active torsions:
REMARK  status: ('A' for Active; 'I' for Inactive)
REMARK    1  A    between atoms: C_1  and  C_2
REMARK    2  A    between atoms: C_3  and  C_4
REMARK    3  A    between atoms: C_6  and  C_7
REMARK                            x       y       z     vdW  Elec       q    Type
REMARK                         _______ _______ _______ _____ _____    ______ ____
ROOT
ATOM      1  C   UNL A   1     -28.016  -0.814  28.878  0.00  0.00    -0.026 C 
ATOM      2  C   UNL A   1     -27.087   0.290  28.638  0.00  0.00    -0.005 C 
ENDROOT
BRANCH   1   3
ATOM      3  C   UNL A   1     -28.469  -0.785  29.829  0.00  0.00    +0.026 C 
ATOM      4  C   UNL A   1     -29.444  -1.948  30.184  0.00  0.00    +0.005 C 
ENDBRANCH   1   3
BRANCH   2   5
ATOM      5  C   UNL A   1     -26.832   1.249  29.587  0.00  0.00    -0.000 C 
ATOM      6  C   UNL A   1     -25.899   2.366  29.389  0.00  0.00    -0.000 C 
BRANCH   6   7
ATOM      7  C   UNL A   1     -25.269   2.447  28.604  0.00  0.00    -0.000 C 
ATOM      8  C   UNL A   1     -25.268   1.540  27.419  0.00  0.00    -0.000 C 
ENDBRANCH   6   7
ENDBRANCH   2   5
TORSDOF 3
