MODEL 4633
MODEL 1
REMARK VINA RESULT:    -6.840      0.000      0.000
REMARK INTER + INTRA:         -10.036
REMARK INTER:                  -8.440
REMARK INTRA:                  -1.596
REMARK UNBOUND:                -1.596
REMARK  Name = No_4633-gen_results/8p0m/2024-11-26-14-13-15/
REMARK  4 active torsions:
REMARK  status: ('A' for Active; 'I' for Inactive)
REMARK    1  A    between atoms: C_3  and  C_7
REMARK    2  A    between atoms: C_8  and  C_9
REMARK    3  A    between atoms: C_9  and  C_10
REMARK    4  A    between atoms: C_9  and  C_16
REMARK                            x       y       z     vdW  Elec       q    Type
REMARK                         _______ _______ _______ _____ _____    ______ ____
ROOT
ATOM      1  C   UNL A   1     -24.120  -1.338  28.540  0.00  0.00    +0.066 C 
ENDROOT
BRANCH   1   2
ATOM      2  C   UNL A   1     -24.562  -2.500  28.940  0.00  0.00    -0.014 A 
ATOM      3  C   UNL A   1     -25.913  -2.548  29.543  0.00  0.00    -0.004 A 
ATOM      4  C   UNL A   1     -26.578  -3.734  29.938  0.00  0.00    -0.000 A 
ATOM      5  C   UNL A   1     -25.920  -4.919  29.553  0.00  0.00    -0.000 A 
ATOM      6  C   UNL A   1     -24.679  -4.923  29.008  0.00  0.00    -0.000 A 
ATOM      7  C   UNL A   1     -23.984  -3.718  28.718  0.00  0.00    -0.004 A 
ENDBRANCH   1   2
BRANCH   1   9
ATOM      8  C   UNL A   1     -22.423  -0.650  30.161  0.00  0.00    -0.004 C 
ATOM      9  C   UNL A   1     -22.806  -1.107  28.956  0.00  0.00    -0.018 C 
BRANCH   8  12
ATOM     10  C   UNL A   1     -24.801   1.401  32.062  0.00  0.00    -0.000 A 
ATOM     11  C   UNL A   1     -24.070   0.989  31.192  0.00  0.00    -0.000 A 
ATOM     12  C   UNL A   1     -23.434  -0.241  31.200  0.00  0.00    -0.000 A 
ATOM     13  C   UNL A   1     -23.691  -1.096  32.312  0.00  0.00    -0.000 A 
ATOM     14  C   UNL A   1     -24.627  -0.683  33.183  0.00  0.00    -0.000 A 
ATOM     15  C   UNL A   1     -25.208   0.476  33.070  0.00  0.00    -0.000 A 
ENDBRANCH   8  12
ENDBRANCH   1   9
BRANCH   1  16
ATOM     16  C   UNL A   1     -24.715  -0.358  27.708  0.00  0.00    -0.018 C 
ATOM     17  C   UNL A   1     -24.011   0.593  27.156  0.00  0.00    -0.004 C 
ENDBRANCH   1  16
TORSDOF 4
ENDMDL
ENDMDL
