REMARK  Name = No_4633-gen_results/8p0m/2024-11-26-14-13-15/
REMARK  4 active torsions:
REMARK  status: ('A' for Active; 'I' for Inactive)
REMARK    1  A    between atoms: C_3  and  C_7
REMARK    2  A    between atoms: C_8  and  C_9
REMARK    3  A    between atoms: C_9  and  C_10
REMARK    4  A    between atoms: C_9  and  C_16
REMARK                            x       y       z     vdW  Elec       q    Type
REMARK                         _______ _______ _______ _____ _____    ______ ____
ROOT
ATOM      1  C   UNL A   1     -25.787   2.901  29.106  0.00  0.00    +0.066 C 
ENDROOT
BRANCH   1   2
ATOM      2  C   UNL A   1     -25.393   2.236  30.159  0.00  0.00    -0.014 A 
ATOM      3  C   UNL A   1     -25.922   2.661  31.474  0.00  0.00    -0.004 A 
ATOM      4  C   UNL A   1     -25.674   1.992  32.698  0.00  0.00    -0.000 A 
ATOM      5  C   UNL A   1     -25.008   0.759  32.555  0.00  0.00    -0.000 A 
ATOM      6  C   UNL A   1     -24.497   0.335  31.373  0.00  0.00    -0.000 A 
ATOM      7  C   UNL A   1     -24.667   1.079  30.174  0.00  0.00    -0.004 A 
ENDBRANCH   1   2
BRANCH   1   9
ATOM      8  C   UNL A   1     -25.711   1.452  27.138  0.00  0.00    -0.004 C 
ATOM      9  C   UNL A   1     -25.207   2.413  27.932  0.00  0.00    -0.018 C 
BRANCH   8  12
ATOM     10  C   UNL A   1     -28.016  -0.814  28.878  0.00  0.00    -0.000 A 
ATOM     11  C   UNL A   1     -27.064  -0.119  28.608  0.00  0.00    -0.000 A 
ATOM     12  C   UNL A   1     -26.972   0.714  27.506  0.00  0.00    -0.000 A 
ATOM     13  C   UNL A   1     -28.105   0.774  26.642  0.00  0.00    -0.000 A 
ATOM     14  C   UNL A   1     -29.204   0.118  27.048  0.00  0.00    -0.000 A 
ATOM     15  C   UNL A   1     -29.213  -0.609  28.128  0.00  0.00    -0.000 A 
ENDBRANCH   8  12
ENDBRANCH   1   9
BRANCH   1  16
ATOM     16  C   UNL A   1     -26.742   3.938  28.971  0.00  0.00    -0.018 C 
ATOM     17  C   UNL A   1     -26.388   5.193  28.905  0.00  0.00    -0.004 C 
ENDBRANCH   1  16
TORSDOF 4
