MODEL 4634
MODEL 1
REMARK VINA RESULT:    -8.296      0.000      0.000
REMARK INTER + INTRA:          -9.985
REMARK INTER:                  -9.751
REMARK INTRA:                  -0.234
REMARK UNBOUND:                -0.234
REMARK  Name = No_4634-gen_results/8p0m/2024-11-26-14-13-15/
REMARK  3 active torsions:
REMARK  status: ('A' for Active; 'I' for Inactive)
REMARK    1  A    between atoms: C_2  and  C_14
REMARK    2  A    between atoms: C_3  and  C_4
REMARK    3  A    between atoms: C_4  and  C_8
REMARK                            x       y       z     vdW  Elec       q    Type
REMARK                         _______ _______ _______ _____ _____    ______ ____
ROOT
ATOM      1  C   UNL A   1     -24.196   0.025  28.366  0.00  0.00    +0.001 A 
ATOM      2  C   UNL A   1     -23.784  -0.568  29.134  0.00  0.00    +0.053 A 
ATOM      3  C   UNL A   1     -23.223   0.944  27.662  0.00  0.00    -0.018 A 
ATOM      4  C   UNL A   1     -22.394  -0.844  29.520  0.00  0.00    +0.004 A 
ATOM      5  C   UNL A   1     -21.444  -0.062  28.899  0.00  0.00    -0.000 A 
ATOM      6  C   UNL A   1     -21.811   0.835  27.930  0.00  0.00    -0.004 A 
ENDROOT
BRANCH   2   7
ATOM      7  C   UNL A   1     -24.928  -1.362  29.827  0.00  0.00    +0.249 C 
ATOM      8  O   UNL A   1     -25.818  -0.872  30.401  0.00  0.00    -0.270 OA
ATOM      9  N   UNL A   1     -25.048  -2.636  29.335  0.00  0.00    -0.276 N 
ATOM     10  C   UNL A   1     -26.047  -3.529  29.854  0.00  0.00    +0.094 C 
ATOM     11  C   UNL A   1     -26.014  -4.586  29.617  0.00  0.00    +0.022 C 
ATOM     12  C   UNL A   1     -25.322  -5.162  29.158  0.00  0.00    +0.004 C 
ATOM     13  C   UNL A   1     -24.098  -4.541  28.514  0.00  0.00    +0.022 C 
ATOM     14  C   UNL A   1     -23.962  -3.268  28.681  0.00  0.00    +0.094 C 
ENDBRANCH   2   7
BRANCH   3  15
ATOM     15  C   UNL A   1     -23.555   1.953  26.687  0.00  0.00    +0.053 C 
BRANCH  15  16
ATOM     16  C   UNL A   1     -24.722   1.674  25.869  0.00  0.00    -0.018 A 
ATOM     17  C   UNL A   1     -24.565   0.506  25.141  0.00  0.00    -0.004 A 
ATOM     18  C   UNL A   1     -25.763  -0.029  24.484  0.00  0.00    -0.000 A 
ATOM     19  C   UNL A   1     -26.952   0.608  24.602  0.00  0.00    -0.000 A 
ATOM     20  C   UNL A   1     -25.963   2.239  26.105  0.00  0.00    -0.004 A 
ATOM     21  C   UNL A   1     -27.060   1.716  25.468  0.00  0.00    -0.000 A 
ENDBRANCH  15  16
ENDBRANCH   3  15
TORSDOF 3
ENDMDL
ENDMDL
