REMARK  Name = No_4634-gen_results/8p0m/2024-11-26-14-13-15/
REMARK  3 active torsions:
REMARK  status: ('A' for Active; 'I' for Inactive)
REMARK    1  A    between atoms: C_2  and  C_14
REMARK    2  A    between atoms: C_3  and  C_4
REMARK    3  A    between atoms: C_4  and  C_8
REMARK                            x       y       z     vdW  Elec       q    Type
REMARK                         _______ _______ _______ _____ _____    ______ ____
ROOT
ATOM      1  C   UNL A   1     -28.016  -0.814  28.878  0.00  0.00    +0.001 A 
ATOM      2  C   UNL A   1     -28.469  -0.785  29.829  0.00  0.00    +0.053 A 
ATOM      3  C   UNL A   1     -26.504  -0.778  28.877  0.00  0.00    -0.018 A 
ATOM      4  C   UNL A   1     -27.918  -0.937  31.182  0.00  0.00    +0.004 A 
ATOM      5  C   UNL A   1     -26.542  -0.940  31.261  0.00  0.00    -0.000 A 
ATOM      6  C   UNL A   1     -25.783  -0.893  30.120  0.00  0.00    -0.004 A 
ENDROOT
BRANCH   2   7
ATOM      7  C   UNL A   1     -30.012  -0.712  29.650  0.00  0.00    +0.249 C 
ATOM      8  O   UNL A   1     -30.775  -1.390  30.215  0.00  0.00    -0.270 OA
ATOM      9  N   UNL A   1     -30.418   0.488  29.127  0.00  0.00    -0.276 N 
ATOM     10  C   UNL A   1     -31.811   0.746  28.882  0.00  0.00    +0.094 C 
ATOM     11  C   UNL A   1     -32.114   1.600  28.288  0.00  0.00    +0.022 C 
ATOM     12  C   UNL A   1     -31.595   2.262  27.728  0.00  0.00    +0.004 C 
ATOM     13  C   UNL A   1     -30.079   2.255  27.724  0.00  0.00    +0.022 C 
ATOM     14  C   UNL A   1     -29.521   1.302  28.393  0.00  0.00    +0.094 C 
ENDBRANCH   2   7
BRANCH   3  15
ATOM     15  C   UNL A   1     -25.654  -0.660  27.719  0.00  0.00    +0.053 C 
BRANCH  15  16
ATOM     16  C   UNL A   1     -25.220   0.687  27.394  0.00  0.00    -0.018 A 
ATOM     17  C   UNL A   1     -23.901   0.898  27.760  0.00  0.00    -0.004 A 
ATOM     18  C   UNL A   1     -23.262   2.117  27.251  0.00  0.00    -0.000 A 
ATOM     19  C   UNL A   1     -23.951   2.975  26.462  0.00  0.00    -0.000 A 
ATOM     20  C   UNL A   1     -25.872   1.489  26.473  0.00  0.00    -0.004 A 
ATOM     21  C   UNL A   1     -25.245   2.624  26.024  0.00  0.00    -0.000 A 
ENDBRANCH  15  16
ENDBRANCH   3  15
TORSDOF 3
