REMARK  Name = No_4635-gen_results/8p0m/2024-11-26-14-13-15/
REMARK  9 active torsions:
REMARK  status: ('A' for Active; 'I' for Inactive)
REMARK    1  A    between atoms: C_3  and  C_8
REMARK    2  A    between atoms: N_4  and  C_18
REMARK    3  A    between atoms: C_6  and  C_22
REMARK    4  A    between atoms: C_8  and  C_10
REMARK    5  A    between atoms: C_10  and  C_11
REMARK    6  A    between atoms: C_11  and  C_12
REMARK    7  A    between atoms: C_16  and  C_19
REMARK    8  A    between atoms: C_22  and  C_24
REMARK    9  A    between atoms: C_24  and  N_25
REMARK                            x       y       z     vdW  Elec       q    Type
REMARK                         _______ _______ _______ _____ _____    ______ ____
ROOT
ATOM      1  O   UNL A   1     -28.123  -1.335  28.487  0.00  0.00    -0.275 OA
ATOM      2  C   UNL A   1     -27.481  -0.404  28.709  0.00  0.00    +0.230 C 
ATOM      3  C   UNL A   1     -26.380  -0.087  27.939  0.00  0.00    +0.092 C 
ATOM      4  N   UNL A   1     -27.666   0.447  29.899  0.00  0.00    -0.258 N 
ATOM      5  C   UNL A   1     -25.177  -0.439  28.395  0.00  0.00    +0.017 C 
ATOM      6  C   UNL A   1     -24.870  -0.105  29.831  0.00  0.00    +0.049 C 
ATOM      7  C   UNL A   1     -26.193   0.218  30.562  0.00  0.00    +0.103 C 
ENDROOT
BRANCH   4   8
ATOM      8  C   UNL A   1     -28.741   0.118  30.748  0.00  0.00    +0.054 A 
ATOM      9  C   UNL A   1     -28.929  -0.855  31.517  0.00  0.00    +0.015 A 
ATOM     10  C   UNL A   1     -30.073  -1.070  32.313  0.00  0.00    +0.001 A 
ATOM     11  C   UNL A   1     -31.146  -0.132  32.127  0.00  0.00    +0.000 A 
ATOM     12  C   UNL A   1     -30.891   1.011  31.375  0.00  0.00    +0.001 A 
ATOM     13  C   UNL A   1     -29.761   1.206  30.654  0.00  0.00    +0.015 A 
ENDBRANCH   4   8
BRANCH   6  14
ATOM     14  C   UNL A   1     -23.674  -0.234  30.537  0.00  0.00    +0.031 C 
ATOM     15  C   UNL A   1     -23.512  -0.321  31.664  0.00  0.00    -0.015 C 
ATOM     16  N   UNL A   1     -23.916  -0.836  32.772  0.00  0.00    -0.227 NA
ATOM     17  C   UNL A   1     -23.504  -1.577  33.592  0.00  0.00    +0.163 C 
BRANCH  14  18
ATOM     18  C   UNL A   1     -22.504   0.016  29.648  0.00  0.00    +0.148 C 
BRANCH  18  19
ATOM     19  N   UNL A   1     -22.470   0.557  28.533  0.00  0.00    -0.181 NA
ATOM     20  C   UNL A   1     -21.319   1.062  27.953  0.00  0.00    +0.359 C 
ATOM     21  N   UNL A   1     -21.507   1.944  26.930  0.00  0.00    -0.068 NA
ATOM     22  O   UNL A   1     -20.263   0.621  28.270  0.00  0.00    -0.247 OA
ENDBRANCH  18  19
ENDBRANCH  14  18
ENDBRANCH   6  14
BRANCH   3  23
ATOM     23  C   UNL A   1     -26.512   1.214  27.179  0.00  0.00    +0.089 C 
ATOM     24 CL   UNL A   1     -26.162   2.237  27.180  0.00  0.00    -0.115 Cl
BRANCH  23  25
ATOM     25  C   UNL A   1     -27.352   0.709  25.839  0.00  0.00    +0.021 C 
BRANCH  25  26
ATOM     26  C   UNL A   1     -27.993   1.503  25.173  0.00  0.00    +0.028 C 
BRANCH  26  27
ATOM     27  C   UNL A   1     -29.274   1.744  25.444  0.00  0.00    -0.022 A 
ATOM     28  C   UNL A   1     -30.032   2.687  24.622  0.00  0.00    -0.004 A 
ATOM     29  C   UNL A   1     -31.325   3.072  24.854  0.00  0.00    -0.000 A 
ATOM     30  C   UNL A   1     -31.976   2.446  25.893  0.00  0.00    +0.007 A 
ATOM     31  C   UNL A   1     -31.373   1.537  26.684  0.00  0.00    +0.080 A 
ATOM     32  C   UNL A   1     -30.057   1.226  26.505  0.00  0.00    +0.002 A 
BRANCH  31  33
ATOM     33  C   UNL A   1     -32.151   0.955  27.852  0.00  0.00    +0.388 C 
ATOM     34  O   UNL A   1     -32.149   1.286  28.930  0.00  0.00    -0.241 OA
ATOM     35  O   UNL A   1     -33.014   0.060  27.389  0.00  0.00    -0.241 OA
ENDBRANCH  31  33
ENDBRANCH  26  27
ENDBRANCH  25  26
ENDBRANCH  23  25
ENDBRANCH   3  23
TORSDOF 9
