MODEL 4636
MODEL 1
REMARK VINA RESULT:    -6.289      0.000      0.000
REMARK INTER + INTRA:          -7.975
REMARK INTER:                  -7.392
REMARK INTRA:                  -0.582
REMARK UNBOUND:                -0.582
REMARK  Name = No_4636-gen_results/8p0m/2024-11-26-14-13-15/
REMARK  3 active torsions:
REMARK  status: ('A' for Active; 'I' for Inactive)
REMARK    1  A    between atoms: C_2  and  C_3
REMARK    2  A    between atoms: C_5  and  O_10
REMARK    3  A    between atoms: C_6  and  C_12
REMARK                            x       y       z     vdW  Elec       q    Type
REMARK                         _______ _______ _______ _____ _____    ______ ____
ROOT
ATOM      1  C   UNL A   1     -25.975  -2.415  29.613  0.00  0.00    +0.099 A 
ATOM      2  C   UNL A   1     -26.661  -3.644  29.856  0.00  0.00    +0.144 A 
ATOM      3  C   UNL A   1     -24.664  -2.525  29.025  0.00  0.00    +0.001 A 
ATOM      4  C   UNL A   1     -25.961  -4.894  29.690  0.00  0.00    +0.037 A 
ATOM      5  C   UNL A   1     -24.037  -3.777  28.701  0.00  0.00    -0.003 A 
ATOM      6  C   UNL A   1     -24.767  -4.965  29.015  0.00  0.00    +0.003 A 
ENDROOT
BRANCH   3   7
ATOM      7  C   UNL A   1     -23.870  -1.321  28.700  0.00  0.00    +0.080 C 
ATOM      8  C   UNL A   1     -24.210  -0.406  27.828  0.00  0.00    +0.021 C 
ATOM      9  C   UNL A   1     -23.469   0.790  27.889  0.00  0.00    +0.003 C 
ATOM     10  C   UNL A   1     -22.892   1.054  29.130  0.00  0.00    +0.017 C 
ATOM     11  C   UNL A   1     -23.220   0.166  30.132  0.00  0.00    +0.072 C 
ATOM     12  N   UNL A   1     -23.038  -1.111  29.720  0.00  0.00    -0.269 NA
ATOM     13  C   UNL A   1     -21.720  -0.610  29.005  0.00  0.00    +0.090 C 
ENDBRANCH   3   7
BRANCH   1  15
ATOM     14  O   UNL A   1     -27.441  -0.824  29.152  0.00  0.00    -0.254 OA
ATOM     15  C   UNL A   1     -26.598  -1.204  29.840  0.00  0.00    +0.336 C 
ATOM     16  F   UNL A   1     -26.286  -0.504  30.994  0.00  0.00    -0.159 F 
ENDBRANCH   1  15
BRANCH   2  17
ATOM     17  O   UNL A   1     -27.706  -3.823  30.544  0.00  0.00    -0.471 OA
ATOM     18  C   UNL A   1     -28.472  -4.840  30.172  0.00  0.00    +0.253 C 
ENDBRANCH   2  17
TORSDOF 3
ENDMDL
ENDMDL
