MODEL 4637
MODEL 1
REMARK VINA RESULT:    -5.886      0.000      0.000
REMARK INTER + INTRA:          -5.886
REMARK INTER:                  -5.886
REMARK INTRA:                   0.000
REMARK UNBOUND:                 0.000
REMARK  Name = No_4637-gen_results/8p0m/2024-11-26-14-13-15/
REMARK  0 active torsions:
REMARK  status: ('A' for Active; 'I' for Inactive)
REMARK                            x       y       z     vdW  Elec       q    Type
REMARK                         _______ _______ _______ _____ _____    ______ ____
ROOT
ATOM      1  C   UNL A   1     -23.988  -4.165  28.733  0.00  0.00    -0.000 A 
ATOM      2  C   UNL A   1     -24.248  -3.047  29.112  0.00  0.00    -0.000 A 
ATOM      3  C   UNL A   1     -25.420  -2.699  29.702  0.00  0.00    -0.000 A 
ATOM      4  C   UNL A   1     -26.396  -3.697  29.888  0.00  0.00    -0.000 A 
ATOM      5  C   UNL A   1     -24.900  -5.253  28.977  0.00  0.00    -0.000 A 
ATOM      6  C   UNL A   1     -26.104  -4.952  29.541  0.00  0.00    -0.000 A 
ATOM      7  C   UNL A   1     -23.269  -1.888  28.986  0.00  0.00    -0.000 A 
ATOM      8  C   UNL A   1     -23.166  -0.975  30.122  0.00  0.00    -0.004 A 
ATOM      9  C   UNL A   1     -24.351  -0.371  30.512  0.00  0.00    -0.022 A 
ATOM     10  C   UNL A   1     -25.471  -1.467  30.601  0.00  0.00    -0.004 A 
ATOM     11  C   UNL A   1     -24.219   0.219  31.903  0.00  0.00    +0.031 C 
ENDROOT
TORSDOF 0
ENDMDL
ENDMDL
