REMARK  Name = No_4638-gen_results/8p0m/2024-11-26-14-13-15/
REMARK  3 active torsions:
REMARK  status: ('A' for Active; 'I' for Inactive)
REMARK    1  A    between atoms: C_2  and  C_7
REMARK    2  A    between atoms: C_3  and  C_15
REMARK    3  A    between atoms: C_15  and  C_16
REMARK                            x       y       z     vdW  Elec       q    Type
REMARK                         _______ _______ _______ _____ _____    ______ ____
ROOT
ATOM      1  C   UNL A   1     -28.016  -0.814  28.878  0.00  0.00    +0.001 A 
ATOM      2  C   UNL A   1     -28.469  -0.785  29.829  0.00  0.00    +0.053 A 
ATOM      3  C   UNL A   1     -26.504  -0.778  28.877  0.00  0.00    -0.018 A 
ATOM      4  C   UNL A   1     -25.810  -0.853  30.103  0.00  0.00    -0.004 A 
ATOM      5  C   UNL A   1     -27.991  -0.892  31.226  0.00  0.00    +0.004 A 
ATOM      6  C   UNL A   1     -26.604  -0.868  31.265  0.00  0.00    -0.000 A 
ENDROOT
BRANCH   2   7
ATOM      7  C   UNL A   1     -30.074  -0.836  29.861  0.00  0.00    +0.249 C 
ATOM      8  O   UNL A   1     -30.689  -1.655  30.223  0.00  0.00    -0.270 OA
ATOM      9  N   UNL A   1     -30.602   0.433  29.598  0.00  0.00    -0.276 N 
ATOM     10  C   UNL A   1     -32.010   0.551  29.476  0.00  0.00    +0.094 C 
ATOM     11  C   UNL A   1     -32.346   1.539  28.751  0.00  0.00    +0.022 C 
ATOM     12  C   UNL A   1     -31.443   2.578  28.271  0.00  0.00    +0.004 C 
ATOM     13  C   UNL A   1     -30.050   2.320  28.414  0.00  0.00    +0.020 C 
ATOM     14  C   UNL A   1     -29.644   1.255  28.964  0.00  0.00    +0.094 C 
ATOM     15  C   UNL A   1     -29.166   3.380  27.789  0.00  0.00    +0.002 C 
ENDBRANCH   2   7
BRANCH   3  16
ATOM     16  C   UNL A   1     -25.659  -0.680  27.665  0.00  0.00    +0.049 C 
BRANCH  16  17
ATOM     17  C   UNL A   1     -25.878   0.358  26.726  0.00  0.00    -0.035 C 
ATOM     18  C   UNL A   1     -25.538   1.373  26.671  0.00  0.00    -0.008 C 
ATOM     19  C   UNL A   1     -25.728   2.315  25.527  0.00  0.00    -0.005 C 
ATOM     20  C   UNL A   1     -26.721   1.865  24.668  0.00  0.00    -0.022 C 
ATOM     21  C   UNL A   1     -26.900   0.155  25.583  0.00  0.00    +0.048 C 
ENDBRANCH  16  17
ENDBRANCH   3  16
TORSDOF 3
