MODEL 4639
MODEL 1
REMARK VINA RESULT:    -4.288      0.000      0.000
REMARK INTER + INTRA:          -5.046
REMARK INTER:                  -4.790
REMARK INTRA:                  -0.257
REMARK UNBOUND:                -0.257
REMARK  Name = No_4639-gen_results/8p0m/2024-11-26-14-13-15/
REMARK  2 active torsions:
REMARK  status: ('A' for Active; 'I' for Inactive)
REMARK    1  A    between atoms: C_3  and  C_4
REMARK    2  A    between atoms: C_5  and  C_6
REMARK                            x       y       z     vdW  Elec       q    Type
REMARK                         _______ _______ _______ _____ _____    ______ ____
ROOT
ATOM      1  C   UNL A   1     -23.254  -1.217  29.999  0.00  0.00    +0.002 C 
ATOM      2  C   UNL A   1     -23.633  -1.854  28.948  0.00  0.00    -0.000 C 
ENDROOT
BRANCH   1   5
ATOM      3  F   UNL A   1     -22.220  -1.123  32.300  0.00  0.00    -0.202 F 
ATOM      4  C   UNL A   1     -23.299  -1.187  32.295  0.00  0.00    +0.167 C 
ATOM      5  C   UNL A   1     -23.975  -1.246  31.200  0.00  0.00    +0.032 C 
ENDBRANCH   1   5
BRANCH   2   6
ATOM      6  C   UNL A   1     -24.480  -3.008  29.163  0.00  0.00    -0.005 C 
ATOM      7  C   UNL A   1     -24.081  -4.242  28.779  0.00  0.00    -0.026 C 
ATOM      8  C   UNL A   1     -24.842  -5.404  29.023  0.00  0.00    +0.031 C 
ENDBRANCH   2   6
TORSDOF 2
ENDMDL
ENDMDL
