MODEL 463
MODEL 1
REMARK VINA RESULT:    -4.292      0.000      0.000
REMARK INTER + INTRA:          -4.292
REMARK INTER:                  -4.292
REMARK INTRA:                   0.000
REMARK UNBOUND:                 0.000
REMARK  Name = No_463-gen_results/8p0m/2024-11-26-14-13-15/
REMARK  0 active torsions:
REMARK  status: ('A' for Active; 'I' for Inactive)
REMARK                            x       y       z     vdW  Elec       q    Type
REMARK                         _______ _______ _______ _____ _____    ______ ____
ROOT
ATOM      1  C   UNL A   1     -24.943  -5.369  28.967  0.00  0.00    +0.000 A 
ATOM      2  C   UNL A   1     -24.190  -4.669  28.739  0.00  0.00    +0.000 A 
ATOM      3  C   UNL A   1     -26.125  -4.775  29.591  0.00  0.00    +0.000 A 
ATOM      4  C   UNL A   1     -26.226  -3.427  29.828  0.00  0.00    +0.000 A 
ATOM      5  C   UNL A   1     -24.024  -3.221  28.868  0.00  0.00    +0.000 A 
ATOM      6  C   UNL A   1     -25.163  -2.636  29.471  0.00  0.00    +0.000 A 
ENDROOT
TORSDOF 0
ENDMDL
ENDMDL
