MODEL 4640
MODEL 1
REMARK VINA RESULT:    -6.430      0.000      0.000
REMARK INTER + INTRA:          -7.724
REMARK INTER:                  -7.182
REMARK INTRA:                  -0.542
REMARK UNBOUND:                -0.542
REMARK  Name = No_4640-gen_results/8p0m/2024-11-26-14-13-15/
REMARK  2 active torsions:
REMARK  status: ('A' for Active; 'I' for Inactive)
REMARK    1  A    between atoms: C_3  and  C_7
REMARK    2  A    between atoms: C_7  and  C_8
REMARK                            x       y       z     vdW  Elec       q    Type
REMARK                         _______ _______ _______ _____ _____    ______ ____
ROOT
ATOM      1  C   UNL A   1     -24.466  -1.187  29.363  0.00  0.00    +0.053 C 
ENDROOT
BRANCH   1   2
ATOM      2  C   UNL A   1     -23.902  -0.677  28.157  0.00  0.00    -0.018 A 
ATOM      3  C   UNL A   1     -23.105   0.431  28.224  0.00  0.00    -0.004 A 
ATOM      4  C   UNL A   1     -23.186   1.480  28.078  0.00  0.00    -0.005 A 
ATOM      5  C   UNL A   1     -24.126   1.918  26.922  0.00  0.00    -0.022 A 
ATOM      6  C   UNL A   1     -24.901   0.817  26.467  0.00  0.00    -0.005 A 
ATOM      7  C   UNL A   1     -24.936  -0.393  27.127  0.00  0.00    -0.004 A 
ATOM      8  C   UNL A   1     -24.142   3.212  26.357  0.00  0.00    +0.031 C 
ENDBRANCH   1   2
BRANCH   1  11
ATOM      9  C   UNL A   1     -23.892  -3.592  28.775  0.00  0.00    -0.004 A 
ATOM     10  C   UNL A   1     -24.179  -4.603  28.857  0.00  0.00    -0.000 A 
ATOM     11  C   UNL A   1     -24.868  -2.659  29.351  0.00  0.00    -0.018 A 
ATOM     12  C   UNL A   1     -26.075  -3.049  29.764  0.00  0.00    -0.004 A 
ATOM     13  C   UNL A   1     -25.410  -5.252  29.236  0.00  0.00    -0.000 A 
ATOM     14  C   UNL A   1     -26.313  -4.366  29.745  0.00  0.00    -0.000 A 
ENDBRANCH   1  11
TORSDOF 2
ENDMDL
ENDMDL
