REMARK  Name = No_4640-gen_results/8p0m/2024-11-26-14-13-15/
REMARK  2 active torsions:
REMARK  status: ('A' for Active; 'I' for Inactive)
REMARK    1  A    between atoms: C_3  and  C_7
REMARK    2  A    between atoms: C_7  and  C_8
REMARK                            x       y       z     vdW  Elec       q    Type
REMARK                         _______ _______ _______ _____ _____    ______ ____
ROOT
ATOM      1  C   UNL A   1     -27.459   0.493  26.770  0.00  0.00    +0.053 C 
ENDROOT
BRANCH   1   2
ATOM      2  C   UNL A   1     -26.481   1.521  26.630  0.00  0.00    -0.018 A 
ATOM      3  C   UNL A   1     -25.282   1.208  26.052  0.00  0.00    -0.004 A 
ATOM      4  C   UNL A   1     -24.295   0.957  26.353  0.00  0.00    -0.005 A 
ATOM      5  C   UNL A   1     -23.778   1.696  27.617  0.00  0.00    -0.022 A 
ATOM      6  C   UNL A   1     -24.846   2.366  28.273  0.00  0.00    -0.005 A 
ATOM      7  C   UNL A   1     -26.167   2.182  27.924  0.00  0.00    -0.004 A 
ATOM      8  C   UNL A   1     -22.422   1.754  28.006  0.00  0.00    +0.031 C 
ENDBRANCH   1   2
BRANCH   1  11
ATOM      9  C   UNL A   1     -28.016  -0.814  28.878  0.00  0.00    -0.004 A 
ATOM     10  C   UNL A   1     -28.469  -0.785  29.829  0.00  0.00    -0.000 A 
ATOM     11  C   UNL A   1     -28.182   0.428  28.113  0.00  0.00    -0.018 A 
ATOM     12  C   UNL A   1     -28.984   1.415  28.515  0.00  0.00    -0.004 A 
ATOM     13  C   UNL A   1     -29.380   0.138  30.461  0.00  0.00    -0.000 A 
ATOM     14  C   UNL A   1     -29.541   1.274  29.724  0.00  0.00    -0.000 A 
ENDBRANCH   1  11
TORSDOF 2
