REMARK  Name = No_4641-gen_results/8p0m/2024-11-26-14-13-15/
REMARK  1 active torsions:
REMARK  status: ('A' for Active; 'I' for Inactive)
REMARK    1  A    between atoms: C_3  and  N_11
REMARK                            x       y       z     vdW  Elec       q    Type
REMARK                         _______ _______ _______ _____ _____    ______ ____
ROOT
ATOM      1  N   UNL A   1     -25.781   1.349  27.106  0.00  0.00    -0.287 N 
ATOM      2  C   UNL A   1     -25.215   2.247  27.942  0.00  0.00    +0.048 A 
ATOM      3  C   UNL A   1     -23.990   2.584  28.142  0.00  0.00    -0.009 A 
ATOM      4  C   UNL A   1     -26.177   3.319  28.494  0.00  0.00    +0.015 A 
ATOM      5  C   UNL A   1     -25.717   4.350  29.263  0.00  0.00    +0.001 A 
ATOM      6  C   UNL A   1     -23.409   3.649  28.953  0.00  0.00    -0.003 A 
ATOM      7  C   UNL A   1     -24.386   4.477  29.532  0.00  0.00    -0.000 A 
ATOM      8  C   UNL A   1     -23.183   1.503  27.541  0.00  0.00    +0.025 C 
ATOM      9  C   UNL A   1     -25.205   1.030  25.917  0.00  0.00    +0.096 C 
ATOM     10  C   UNL A   1     -23.721   0.868  26.365  0.00  0.00    +0.026 C 
ATOM     11  C   UNL A   1     -21.814   1.284  27.865  0.00  0.00    +0.005 C 
ENDROOT
BRANCH   1  14
ATOM     12  C   UNL A   1     -28.016  -0.814  28.878  0.00  0.00    +0.003 A 
ATOM     13  C   UNL A   1     -27.064  -0.119  28.608  0.00  0.00    +0.015 A 
ATOM     14  C   UNL A   1     -27.001   0.691  27.491  0.00  0.00    +0.053 A 
ATOM     15  C   UNL A   1     -28.137   0.736  26.635  0.00  0.00    +0.034 A 
ATOM     16  C   UNL A   1     -29.236   0.076  27.069  0.00  0.00    +0.083 A 
ATOM     17  C   UNL A   1     -29.218  -0.643  28.175  0.00  0.00    +0.018 A 
ATOM     18  N   UNL A   1     -30.352   0.156  26.243  0.00  0.00    -0.244 NA
ATOM     19  C   UNL A   1     -31.431  -0.431  26.600  0.00  0.00    +0.099 A 
ATOM     20  C   UNL A   1     -31.483  -1.121  27.841  0.00  0.00    +0.021 A 
ATOM     21  C   UNL A   1     -30.409  -1.293  28.580  0.00  0.00    +0.003 A 
ENDBRANCH   1  14
TORSDOF 1
