MODEL 4642
MODEL 1
REMARK VINA RESULT:    -5.427      0.000      0.000
REMARK INTER + INTRA:          -6.319
REMARK INTER:                  -6.062
REMARK INTRA:                  -0.257
REMARK UNBOUND:                -0.257
REMARK  Name = No_4642-gen_results/8p0m/2024-11-26-14-13-15/
REMARK  2 active torsions:
REMARK  status: ('A' for Active; 'I' for Inactive)
REMARK    1  A    between atoms: C_1  and  C_2
REMARK    2  A    between atoms: C_5  and  C_9
REMARK                            x       y       z     vdW  Elec       q    Type
REMARK                         _______ _______ _______ _____ _____    ______ ____
ROOT
ATOM      1  C   UNL A   1     -23.798  -1.769  28.943  0.00  0.00    +0.013 A 
ATOM      2  C   UNL A   1     -24.630  -1.109  28.099  0.00  0.00    -0.002 A 
ATOM      3  C   UNL A   1     -24.300   0.162  27.415  0.00  0.00    +0.004 A 
ATOM      4  C   UNL A   1     -23.014   0.733  27.693  0.00  0.00    +0.071 A 
ATOM      5  C   UNL A   1     -22.207   0.053  28.632  0.00  0.00    +0.004 A 
ATOM      6  C   UNL A   1     -22.580  -1.124  29.228  0.00  0.00    -0.002 A 
ENDROOT
BRANCH   4   7
ATOM      7  C   UNL A   1     -22.570   1.964  27.111  0.00  0.00    +0.419 C 
ATOM      8  F   UNL A   1     -23.045   2.777  27.473  0.00  0.00    -0.166 F 
ATOM      9  F   UNL A   1     -21.172   1.977  27.204  0.00  0.00    -0.166 F 
ATOM     10  F   UNL A   1     -22.849   1.908  25.790  0.00  0.00    -0.166 F 
ENDBRANCH   4   7
BRANCH   1  11
ATOM     11  C   UNL A   1     -24.081  -2.806  29.497  0.00  0.00    +0.220 C 
ATOM     12  F   UNL A   1     -23.639  -3.869  28.576  0.00  0.00    -0.229 F 
ENDBRANCH   1  11
TORSDOF 2
ENDMDL
ENDMDL
