REMARK  Name = No_4642-gen_results/8p0m/2024-11-26-14-13-15/
REMARK  2 active torsions:
REMARK  status: ('A' for Active; 'I' for Inactive)
REMARK    1  A    between atoms: C_1  and  C_2
REMARK    2  A    between atoms: C_5  and  C_9
REMARK                            x       y       z     vdW  Elec       q    Type
REMARK                         _______ _______ _______ _____ _____    ______ ____
ROOT
ATOM      1  C   UNL A   1     -27.064  -0.119  28.608  0.00  0.00    +0.013 A 
ATOM      2  C   UNL A   1     -26.929   1.171  29.008  0.00  0.00    -0.002 A 
ATOM      3  C   UNL A   1     -25.770   2.034  28.688  0.00  0.00    +0.004 A 
ATOM      4  C   UNL A   1     -24.714   1.443  27.919  0.00  0.00    +0.071 A 
ATOM      5  C   UNL A   1     -24.859   0.078  27.584  0.00  0.00    +0.004 A 
ATOM      6  C   UNL A   1     -25.965  -0.661  27.916  0.00  0.00    -0.002 A 
ENDROOT
BRANCH   4   7
ATOM      7  C   UNL A   1     -23.529   2.158  27.549  0.00  0.00    +0.419 C 
ATOM      8  F   UNL A   1     -23.198   2.789  28.263  0.00  0.00    -0.166 F 
ATOM      9  F   UNL A   1     -22.606   1.209  27.092  0.00  0.00    -0.166 F 
ATOM     10  F   UNL A   1     -23.837   2.918  26.474  0.00  0.00    -0.166 F 
ENDBRANCH   4   7
BRANCH   1  11
ATOM     11  C   UNL A   1     -28.016  -0.814  28.878  0.00  0.00    +0.220 C 
ATOM     12  F   UNL A   1     -28.494  -0.323  30.183  0.00  0.00    -0.229 F 
ENDBRANCH   1  11
TORSDOF 2
