MODEL 4643
MODEL 1
REMARK VINA RESULT:    -4.914      0.000      0.000
REMARK INTER + INTRA:          -5.276
REMARK INTER:                  -5.201
REMARK INTRA:                  -0.075
REMARK UNBOUND:                -0.075
REMARK  Name = No_4643-gen_results/8p0m/2024-11-26-14-13-15/
REMARK  1 active torsions:
REMARK  status: ('A' for Active; 'I' for Inactive)
REMARK    1  A    between atoms: C_2  and  C_7
REMARK                            x       y       z     vdW  Elec       q    Type
REMARK                         _______ _______ _______ _____ _____    ______ ____
ROOT
ATOM      1  C   UNL A   1     -23.907  -3.481  28.560  0.00  0.00    -0.000 A 
ATOM      2  C   UNL A   1     -24.690  -2.638  28.931  0.00  0.00    -0.000 A 
ATOM      3  C   UNL A   1     -25.888  -2.991  29.543  0.00  0.00    -0.000 A 
ATOM      4  C   UNL A   1     -26.254  -4.374  29.713  0.00  0.00    -0.000 A 
ATOM      5  C   UNL A   1     -25.301  -5.282  29.234  0.00  0.00    -0.000 A 
ATOM      6  C   UNL A   1     -24.191  -4.897  28.648  0.00  0.00    -0.000 A 
ENDROOT
BRANCH   2   7
ATOM      7  C   UNL A   1     -24.490  -1.169  28.812  0.00  0.00    -0.005 C 
ATOM      8  C   UNL A   1     -23.657  -0.511  29.538  0.00  0.00    -0.026 C 
ATOM      9  C   UNL A   1     -23.369  -1.039  30.939  0.00  0.00    +0.031 C 
ENDBRANCH   2   7
TORSDOF 1
ENDMDL
ENDMDL
