MODEL 4644
MODEL 1
REMARK VINA RESULT:    -5.047      0.000      0.000
REMARK INTER + INTRA:          -5.047
REMARK INTER:                  -5.047
REMARK INTRA:                   0.000
REMARK UNBOUND:                 0.000
REMARK  Name = No_4644-gen_results/8p0m/2024-11-26-14-13-15/
REMARK  0 active torsions:
REMARK  status: ('A' for Active; 'I' for Inactive)
REMARK                            x       y       z     vdW  Elec       q    Type
REMARK                         _______ _______ _______ _____ _____    ______ ____
ROOT
ATOM      1  C   UNL A   1      -9.101  -9.116  20.132  0.00  0.00    +0.053 A 
ATOM      2  C   UNL A   1      -8.124  -9.810  19.966  0.00  0.00    +0.061 A 
ATOM      3  C   UNL A   1      -8.012 -10.639  18.855  0.00  0.00    +0.012 A 
ATOM      4  C   UNL A   1      -9.077 -10.733  17.890  0.00  0.00    +0.004 A 
ATOM      5  C   UNL A   1     -10.180  -9.915  18.172  0.00  0.00    +0.042 A 
ATOM      6  C   UNL A   1     -10.243  -9.161  19.246  0.00  0.00    +0.197 A 
ATOM      7 CL   UNL A   1      -6.787  -9.860  21.034  0.00  0.00    -0.082 Cl
ATOM      8  O   UNL A   1     -11.373  -8.418  19.457  0.00  0.00    -0.286 OA
ENDROOT
TORSDOF 0
ENDMDL
ENDMDL
