MODEL 4645
MODEL 1
REMARK VINA RESULT:    -4.305      0.000      0.000
REMARK INTER + INTRA:          -4.305
REMARK INTER:                  -4.305
REMARK INTRA:                   0.000
REMARK UNBOUND:                 0.000
REMARK  Name = No_4645-gen_results/8p0m/2024-11-26-14-13-15/
REMARK  0 active torsions:
REMARK  status: ('A' for Active; 'I' for Inactive)
REMARK                            x       y       z     vdW  Elec       q    Type
REMARK                         _______ _______ _______ _____ _____    ______ ____
ROOT
ATOM      1  C   UNL A   1     -24.957  -5.448  28.991  0.00  0.00    +0.000 A 
ATOM      2  C   UNL A   1     -24.186  -4.793  28.695  0.00  0.00    +0.000 A 
ATOM      3  C   UNL A   1     -26.089  -4.772  29.624  0.00  0.00    +0.000 A 
ATOM      4  C   UNL A   1     -26.126  -3.409  29.788  0.00  0.00    +0.000 A 
ATOM      5  C   UNL A   1     -23.959  -3.349  28.736  0.00  0.00    +0.000 A 
ATOM      6  C   UNL A   1     -25.049  -2.685  29.347  0.00  0.00    +0.000 A 
ENDROOT
TORSDOF 0
ENDMDL
ENDMDL
