REMARK  Name = No_4646-gen_results/8p0m/2024-11-26-14-13-15/
REMARK  2 active torsions:
REMARK  status: ('A' for Active; 'I' for Inactive)
REMARK    1  A    between atoms: C_6  and  C_8
REMARK    2  A    between atoms: C_11  and  C_14
REMARK                            x       y       z     vdW  Elec       q    Type
REMARK                         _______ _______ _______ _____ _____    ______ ____
ROOT
ATOM      1  C   UNL A   1     -30.081   1.511  31.011  0.00  0.00    +0.000 A 
ATOM      2  C   UNL A   1     -31.097   1.127  31.137  0.00  0.00    +0.000 A 
ATOM      3  C   UNL A   1     -32.166   1.675  32.014  0.00  0.00    +0.000 A 
ATOM      4  C   UNL A   1     -31.821   2.863  32.700  0.00  0.00    +0.000 A 
ATOM      5  C   UNL A   1     -30.575   3.372  32.548  0.00  0.00    +0.000 A 
ATOM      6  C   UNL A   1     -29.624   2.768  31.749  0.00  0.00    +0.000 A 
ENDROOT
BRANCH   1  12
ATOM      7  C   UNL A   1     -28.016  -0.814  28.878  0.00  0.00    +0.011 A 
ATOM      8  C   UNL A   1     -27.064  -0.119  28.608  0.00  0.00    +0.058 A 
ATOM      9  C   UNL A   1     -26.929   1.171  29.008  0.00  0.00    +0.011 A 
ATOM     10  C   UNL A   1     -27.956   1.741  29.784  0.00  0.00    +0.001 A 
ATOM     11  C   UNL A   1     -29.057  -0.327  29.747  0.00  0.00    +0.001 A 
ATOM     12  C   UNL A   1     -28.983   0.972  30.152  0.00  0.00    +0.000 A 
ATOM     13 CL   UNL A   1     -25.735  -0.730  27.663  0.00  0.00    -0.082 Cl
ENDBRANCH   1  12
BRANCH   4  14
ATOM     14  C   UNL A   1     -32.819   3.491  33.554  0.00  0.00    +0.000 A 
ATOM     15  C   UNL A   1     -33.868   3.835  33.480  0.00  0.00    +0.000 A 
ATOM     16  C   UNL A   1     -34.713   4.469  34.458  0.00  0.00    +0.000 A 
ATOM     17  C   UNL A   1     -32.187   3.774  34.945  0.00  0.00    +0.000 A 
ATOM     18  C   UNL A   1     -32.920   4.372  35.916  0.00  0.00    +0.000 A 
ATOM     19  C   UNL A   1     -34.187   4.729  35.678  0.00  0.00    +0.000 A 
ENDBRANCH   4  14
TORSDOF 2
