REMARK  Name = No_4647-gen_results/8p0m/2024-11-26-14-13-15/
REMARK  2 active torsions:
REMARK  status: ('A' for Active; 'I' for Inactive)
REMARK    1  A    between atoms: C_2  and  C_7
REMARK    2  A    between atoms: C_7  and  C_8
REMARK                            x       y       z     vdW  Elec       q    Type
REMARK                         _______ _______ _______ _____ _____    ______ ____
ROOT
ATOM      1  C   UNL A   1     -28.016  -0.814  28.878  0.00  0.00    -0.004 A 
ATOM      2  C   UNL A   1     -27.064  -0.119  28.608  0.00  0.00    -0.018 A 
ATOM      3  C   UNL A   1     -26.929   1.171  29.008  0.00  0.00    -0.004 A 
ATOM      4  C   UNL A   1     -27.956   1.741  29.784  0.00  0.00    -0.000 A 
ATOM      5  C   UNL A   1     -29.057  -0.327  29.747  0.00  0.00    -0.000 A 
ATOM      6  C   UNL A   1     -28.983   0.972  30.152  0.00  0.00    -0.000 A 
ENDROOT
BRANCH   2   7
ATOM      7  C   UNL A   1     -25.881  -0.626  27.794  0.00  0.00    +0.052 C 
BRANCH   7   8
ATOM      8  C   UNL A   1     -24.547  -0.231  28.239  0.00  0.00    -0.021 C 
ATOM      9  C   UNL A   1     -24.328   1.134  28.333  0.00  0.00    -0.005 C 
ENDBRANCH   7   8
ENDBRANCH   2   7
TORSDOF 2
