MODEL 4647
MODEL 1
REMARK VINA RESULT:    -4.900      0.000      0.000
REMARK INTER + INTRA:          -5.696
REMARK INTER:                  -5.473
REMARK INTRA:                  -0.223
REMARK UNBOUND:                -0.223
REMARK  Name = No_4647-gen_results/8p0m/2024-11-26-14-13-15/
REMARK  2 active torsions:
REMARK  status: ('A' for Active; 'I' for Inactive)
REMARK    1  A    between atoms: C_2  and  C_7
REMARK    2  A    between atoms: C_7  and  C_8
REMARK                            x       y       z     vdW  Elec       q    Type
REMARK                         _______ _______ _______ _____ _____    ______ ____
ROOT
ATOM      1  C   UNL A   1     -25.804  -2.903  29.611  0.00  0.00    -0.004 A 
ATOM      2  C   UNL A   1     -24.750  -2.680  29.063  0.00  0.00    -0.018 A 
ATOM      3  C   UNL A   1     -23.925  -3.646  28.586  0.00  0.00    -0.004 A 
ATOM      4  C   UNL A   1     -24.313  -4.991  28.735  0.00  0.00    -0.000 A 
ATOM      5  C   UNL A   1     -26.309  -4.249  29.713  0.00  0.00    -0.000 A 
ATOM      6  C   UNL A   1     -25.505  -5.258  29.275  0.00  0.00    -0.000 A 
ENDROOT
BRANCH   2   7
ATOM      7  C   UNL A   1     -24.230  -1.269  28.823  0.00  0.00    +0.052 C 
BRANCH   7   8
ATOM      8  C   UNL A   1     -22.790  -1.059  28.946  0.00  0.00    -0.021 C 
ATOM      9  C   UNL A   1     -22.374  -0.436  30.112  0.00  0.00    -0.005 C 
ENDBRANCH   7   8
ENDBRANCH   2   7
TORSDOF 2
ENDMDL
ENDMDL
