REMARK  Name = No_4648-gen_results/8p0m/2024-11-26-14-13-15/
REMARK  5 active torsions:
REMARK  status: ('A' for Active; 'I' for Inactive)
REMARK    1  A    between atoms: C_2  and  C_5
REMARK    2  A    between atoms: C_4  and  C_10
REMARK    3  A    between atoms: C_10  and  C_11
REMARK    4  A    between atoms: C_11  and  C_15
REMARK    5  A    between atoms: C_12  and  C_13
REMARK                            x       y       z     vdW  Elec       q    Type
REMARK                         _______ _______ _______ _____ _____    ______ ____
ROOT
ATOM      1  C   UNL A   1     -28.016  -0.814  28.878  0.00  0.00    +0.006 A 
ATOM      2  C   UNL A   1     -28.469  -0.785  29.829  0.00  0.00    +0.080 A 
ATOM      3  C   UNL A   1     -26.546  -0.876  28.850  0.00  0.00    -0.004 A 
ATOM      4  C   UNL A   1     -25.804  -1.032  30.057  0.00  0.00    -0.017 A 
ATOM      5  C   UNL A   1     -26.575  -1.056  31.201  0.00  0.00    -0.004 A 
ATOM      6  C   UNL A   1     -27.925  -0.974  31.168  0.00  0.00    +0.006 A 
ENDROOT
BRANCH   2   7
ATOM      7  C   UNL A   1     -30.006  -0.746  29.898  0.00  0.00    +0.388 C 
ATOM      8  O   UNL A   1     -30.587  -0.116  30.835  0.00  0.00    -0.241 OA
ATOM      9  O   UNL A   1     -30.638  -1.317  28.945  0.00  0.00    -0.241 OA
ENDBRANCH   2   7
BRANCH   4  10
ATOM     10  C   UNL A   1     -24.355  -1.108  30.049  0.00  0.00    +0.063 C 
BRANCH  10  11
ATOM     11  C   UNL A   1     -23.695   0.142  30.009  0.00  0.00    +0.046 C 
ATOM     12  C   UNL A   1     -22.470   0.295  29.271  0.00  0.00    -0.020 C 
BRANCH  12  13
ATOM     13  C   UNL A   1     -21.922   1.500  28.957  0.00  0.00    +0.026 C 
ATOM     14  C   UNL A   1     -21.089   1.481  27.790  0.00  0.00    +0.005 C 
ENDBRANCH  12  13
BRANCH  11  15
ATOM     15  C   UNL A   1     -24.177   1.267  30.773  0.00  0.00    +0.096 C 
ATOM     16  N   UNL A   1     -24.794   2.080  31.009  0.00  0.00    -0.191 NA
ENDBRANCH  11  15
ENDBRANCH  10  11
ENDBRANCH   4  10
TORSDOF 5
