MODEL 464
MODEL 1
REMARK VINA RESULT:    -5.198      0.000      0.000
REMARK INTER + INTRA:          -5.674
REMARK INTER:                  -5.502
REMARK INTRA:                  -0.172
REMARK UNBOUND:                -0.172
REMARK  Name = No_464-gen_results/8p0m/2024-11-26-14-13-15/
REMARK  1 active torsions:
REMARK  status: ('A' for Active; 'I' for Inactive)
REMARK    1  A    between atoms: C_3  and  C_4
REMARK                            x       y       z     vdW  Elec       q    Type
REMARK                         _______ _______ _______ _____ _____    ______ ____
ROOT
ATOM      1  C   UNL A   1     -24.936  -5.166  28.954  0.00  0.00    -0.000 A 
ATOM      2  C   UNL A   1     -24.104  -4.302  28.802  0.00  0.00    -0.000 A 
ATOM      3  C   UNL A   1     -24.289  -3.002  29.144  0.00  0.00    -0.000 A 
ATOM      4  C   UNL A   1     -26.224  -4.830  29.590  0.00  0.00    -0.000 A 
ATOM      5  C   UNL A   1     -26.497  -3.576  29.929  0.00  0.00    -0.000 A 
ATOM      6  C   UNL A   1     -25.526  -2.602  29.737  0.00  0.00    -0.000 A 
ENDROOT
BRANCH   3   7
ATOM      7  C   UNL A   1     -23.279  -1.934  28.967  0.00  0.00    -0.005 C 
ATOM      8  C   UNL A   1     -23.756  -0.659  28.517  0.00  0.00    -0.026 C 
ATOM      9  C   UNL A   1     -22.875   0.409  28.285  0.00  0.00    +0.031 C 
ENDBRANCH   3   7
TORSDOF 1
ENDMDL
ENDMDL
