MODEL 4650
MODEL 1
REMARK VINA RESULT:    -6.887      0.000      0.000
REMARK INTER + INTRA:          -9.336
REMARK INTER:                  -8.498
REMARK INTRA:                  -0.839
REMARK UNBOUND:                -0.839
REMARK  Name = No_4650-gen_results/8p0m/2024-11-26-14-13-15/
REMARK  4 active torsions:
REMARK  status: ('A' for Active; 'I' for Inactive)
REMARK    1  A    between atoms: C_2  and  O_15
REMARK    2  A    between atoms: C_3  and  C_4
REMARK    3  A    between atoms: C_4  and  C_8
REMARK    4  A    between atoms: O_15  and  C_16
REMARK                            x       y       z     vdW  Elec       q    Type
REMARK                         _______ _______ _______ _____ _____    ______ ____
ROOT
ATOM      1  C   UNL A   1     -24.330  -0.051  27.815  0.00  0.00    +0.034 A 
ATOM      2  C   UNL A   1     -23.964   0.613  27.082  0.00  0.00    +0.146 A 
ATOM      3  C   UNL A   1     -23.324  -0.487  28.857  0.00  0.00    -0.015 A 
ATOM      4  C   UNL A   1     -22.716   1.381  26.992  0.00  0.00    +0.037 A 
ATOM      5  C   UNL A   1     -21.756   1.059  27.927  0.00  0.00    +0.003 A 
ATOM      6  C   UNL A   1     -22.028   0.142  28.910  0.00  0.00    -0.004 A 
ENDROOT
BRANCH   3   7
ATOM      7  C   UNL A   1     -23.526  -1.492  29.870  0.00  0.00    +0.052 C 
BRANCH   7   8
ATOM      8  C   UNL A   1     -24.390  -2.611  29.499  0.00  0.00    -0.022 A 
ATOM      9  C   UNL A   1     -25.654  -2.622  30.001  0.00  0.00    -0.025 A 
ATOM     10  C   UNL A   1     -26.141  -1.584  30.800  0.00  0.00    +0.031 C 
ATOM     11  C   UNL A   1     -23.949  -3.673  28.673  0.00  0.00    -0.004 A 
ATOM     12  C   UNL A   1     -24.103  -4.676  28.573  0.00  0.00    -0.000 A 
ATOM     13  C   UNL A   1     -25.565  -4.993  29.096  0.00  0.00    -0.000 A 
ATOM     14  C   UNL A   1     -26.273  -3.942  29.892  0.00  0.00    -0.005 A 
ENDBRANCH   7   8
ENDBRANCH   3   7
BRANCH   2  15
ATOM     15  O   UNL A   1     -24.901   0.990  26.047  0.00  0.00    -0.439 OA
BRANCH  15  16
ATOM     16  C   UNL A   1     -25.852   0.200  25.767  0.00  0.00    +0.264 C 
ATOM     17  C   UNL A   1     -26.423   0.334  24.644  0.00  0.00    +0.175 C 
ATOM     18  O   UNL A   1     -27.509  -0.275  24.330  0.00  0.00    -0.228 OA
ENDBRANCH  15  16
ENDBRANCH   2  15
TORSDOF 4
ENDMDL
ENDMDL
