REMARK  Name = No_4650-gen_results/8p0m/2024-11-26-14-13-15/
REMARK  4 active torsions:
REMARK  status: ('A' for Active; 'I' for Inactive)
REMARK    1  A    between atoms: C_2  and  O_15
REMARK    2  A    between atoms: C_3  and  C_4
REMARK    3  A    between atoms: C_4  and  C_8
REMARK    4  A    between atoms: O_15  and  C_16
REMARK                            x       y       z     vdW  Elec       q    Type
REMARK                         _______ _______ _______ _____ _____    ______ ____
ROOT
ATOM      1  C   UNL A   1     -28.016  -0.814  28.878  0.00  0.00    +0.034 A 
ATOM      2  C   UNL A   1     -28.469  -0.785  29.829  0.00  0.00    +0.146 A 
ATOM      3  C   UNL A   1     -26.504  -0.778  28.877  0.00  0.00    -0.015 A 
ATOM      4  C   UNL A   1     -27.918  -0.937  31.182  0.00  0.00    +0.037 A 
ATOM      5  C   UNL A   1     -26.542  -0.940  31.261  0.00  0.00    +0.003 A 
ATOM      6  C   UNL A   1     -25.783  -0.893  30.120  0.00  0.00    -0.004 A 
ENDROOT
BRANCH   3   7
ATOM      7  C   UNL A   1     -25.654  -0.660  27.719  0.00  0.00    +0.052 C 
BRANCH   7   8
ATOM      8  C   UNL A   1     -25.213   0.692  27.383  0.00  0.00    -0.022 A 
ATOM      9  C   UNL A   1     -25.365   1.100  26.094  0.00  0.00    -0.025 A 
ATOM     10  C   UNL A   1     -25.965   0.289  25.128  0.00  0.00    +0.031 C 
ATOM     11  C   UNL A   1     -24.621   1.559  28.333  0.00  0.00    -0.004 A 
ATOM     12  C   UNL A   1     -23.911   2.291  28.360  0.00  0.00    -0.000 A 
ATOM     13  C   UNL A   1     -23.869   2.974  26.931  0.00  0.00    -0.000 A 
ATOM     14  C   UNL A   1     -24.553   2.279  25.796  0.00  0.00    -0.005 A 
ENDBRANCH   7   8
ENDBRANCH   3   7
BRANCH   2  15
ATOM     15  O   UNL A   1     -29.915  -0.759  29.840  0.00  0.00    -0.439 OA
BRANCH  15  16
ATOM     16  C   UNL A   1     -30.522  -0.167  28.898  0.00  0.00    +0.264 C 
ATOM     17  C   UNL A   1     -31.633  -0.642  28.517  0.00  0.00    +0.175 C 
ATOM     18  O   UNL A   1     -32.242  -0.246  27.458  0.00  0.00    -0.228 OA
ENDBRANCH  15  16
ENDBRANCH   2  15
TORSDOF 4
