REMARK  Name = No_4651-gen_results/8p0m/2024-11-26-14-13-15/
REMARK  2 active torsions:
REMARK  status: ('A' for Active; 'I' for Inactive)
REMARK    1  A    between atoms: C_3  and  C_4
REMARK    2  A    between atoms: C_5  and  C_6
REMARK                            x       y       z     vdW  Elec       q    Type
REMARK                         _______ _______ _______ _____ _____    ______ ____
ROOT
ATOM      1  C   UNL A   1     -25.770   2.034  28.688  0.00  0.00    -0.005 C 
ATOM      2  C   UNL A   1     -24.714   1.443  27.919  0.00  0.00    -0.026 C 
ENDROOT
BRANCH   1   5
ATOM      3  C   UNL A   1     -28.016  -0.814  28.878  0.00  0.00    +0.031 C 
ATOM      4  C   UNL A   1     -27.064  -0.119  28.608  0.00  0.00    -0.026 C 
ATOM      5  C   UNL A   1     -26.929   1.171  29.008  0.00  0.00    -0.005 C 
ENDBRANCH   1   5
BRANCH   2   6
ATOM      6  C   UNL A   1     -24.859   0.078  27.584  0.00  0.00    +0.026 C 
ATOM      7  C   UNL A   1     -25.965  -0.661  27.916  0.00  0.00    +0.005 C 
ENDBRANCH   2   6
TORSDOF 2
