MODEL 4652
MODEL 1
REMARK VINA RESULT:    -6.472      0.000      0.000
REMARK INTER + INTRA:          -6.472
REMARK INTER:                  -6.472
REMARK INTRA:                   0.000
REMARK UNBOUND:                 0.000
REMARK  Name = No_4652-gen_results/8p0m/2024-11-26-14-13-15/
REMARK  0 active torsions:
REMARK  status: ('A' for Active; 'I' for Inactive)
REMARK                            x       y       z     vdW  Elec       q    Type
REMARK                         _______ _______ _______ _____ _____    ______ ____
ROOT
ATOM      1  O   UNL A   1     -21.468  -0.055  29.398  0.00  0.00    -0.296 OA
ATOM      2  C   UNL A   1     -22.443  -0.718  29.026  0.00  0.00    +0.151 C 
ATOM      3  C   UNL A   1     -22.898  -1.749  29.190  0.00  0.00    +0.065 C 
ATOM      4  C   UNL A   1     -24.257  -2.302  28.825  0.00  0.00    +0.009 C 
ATOM      5  C   UNL A   1     -25.032  -1.450  28.087  0.00  0.00    +0.013 C 
ATOM      6  C   UNL A   1     -24.578  -0.185  27.840  0.00  0.00    +0.030 C 
ATOM      7  C   UNL A   1     -23.430   0.235  28.184  0.00  0.00    +0.069 C 
ATOM      8  C   UNL A   1     -24.718  -3.668  29.074  0.00  0.00    +0.005 C 
ATOM      9  C   UNL A   1     -24.189  -4.823  28.544  0.00  0.00    +0.000 C 
ATOM     10  C   UNL A   1     -25.995  -3.746  29.793  0.00  0.00    +0.026 C 
ATOM     11  C   UNL A   1     -26.725  -2.683  30.292  0.00  0.00    -0.030 C 
ATOM     12  C   UNL A   1     -26.826  -1.447  29.642  0.00  0.00    -0.027 C 
ATOM     13  C   UNL A   1     -26.261  -1.120  28.822  0.00  0.00    +0.044 C 
ATOM     14  C   UNL A   1     -25.493   0.801  27.159  0.00  0.00    -0.030 C 
ATOM     15  C   UNL A   1     -26.889   0.235  27.993  0.00  0.00    -0.027 C 
ENDROOT
TORSDOF 0
ENDMDL
ENDMDL
