REMARK  Name = No_4652-gen_results/8p0m/2024-11-26-14-13-15/
REMARK  0 active torsions:
REMARK  status: ('A' for Active; 'I' for Inactive)
REMARK                            x       y       z     vdW  Elec       q    Type
REMARK                         _______ _______ _______ _____ _____    ______ ____
ROOT
ATOM      1  O   UNL A   1     -28.123  -1.335  28.487  0.00  0.00    -0.296 OA
ATOM      2  C   UNL A   1     -27.064  -0.824  28.869  0.00  0.00    +0.151 C 
ATOM      3  C   UNL A   1     -25.946  -1.040  28.849  0.00  0.00    +0.065 C 
ATOM      4  C   UNL A   1     -24.760  -0.156  29.164  0.00  0.00    +0.009 C 
ATOM      5  C   UNL A   1     -25.092   1.079  29.649  0.00  0.00    +0.013 C 
ATOM      6  C   UNL A   1     -26.409   1.438  29.707  0.00  0.00    +0.030 C 
ATOM      7  C   UNL A   1     -27.369   0.659  29.415  0.00  0.00    +0.069 C 
ATOM      8  C   UNL A   1     -23.356  -0.564  29.121  0.00  0.00    +0.005 C 
ATOM      9  C   UNL A   1     -22.754  -1.522  29.905  0.00  0.00    +0.000 C 
ATOM     10  C   UNL A   1     -22.507   0.305  28.298  0.00  0.00    +0.026 C 
ATOM     11  C   UNL A   1     -22.922   1.384  27.540  0.00  0.00    -0.030 C 
ATOM     12  C   UNL A   1     -23.940   2.258  27.939  0.00  0.00    -0.027 C 
ATOM     13  C   UNL A   1     -24.603   2.126  28.741  0.00  0.00    +0.044 C 
ATOM     14  C   UNL A   1     -26.767   2.850  30.097  0.00  0.00    -0.030 C 
ATOM     15  C   UNL A   1     -25.439   3.530  29.238  0.00  0.00    -0.027 C 
ENDROOT
TORSDOF 0
