MODEL 4653
MODEL 1
REMARK VINA RESULT:    -5.882      0.000      0.000
REMARK INTER + INTRA:          -6.845
REMARK INTER:                  -6.570
REMARK INTRA:                  -0.275
REMARK UNBOUND:                -0.275
REMARK  Name = No_4653-gen_results/8p0m/2024-11-26-14-13-15/
REMARK  2 active torsions:
REMARK  status: ('A' for Active; 'I' for Inactive)
REMARK    1  A    between atoms: C_2  and  C_11
REMARK    2  A    between atoms: C_3  and  C_7
REMARK                            x       y       z     vdW  Elec       q    Type
REMARK                         _______ _______ _______ _____ _____    ______ ____
ROOT
ATOM      1  C   UNL A   1     -28.362 -11.756  31.213  0.00  0.00    +0.010 A 
ATOM      2  C   UNL A   1     -28.301 -11.455  32.221  0.00  0.00    +0.080 A 
ATOM      3  C   UNL A   1     -29.360 -11.016  30.441  0.00  0.00    +0.072 A 
ATOM      4  C   UNL A   1     -29.911 -10.090  30.862  0.00  0.00    +0.004 A 
ATOM      5  C   UNL A   1     -28.887 -10.374  32.989  0.00  0.00    +0.007 A 
ATOM      6  C   UNL A   1     -29.811  -9.651  32.187  0.00  0.00    +0.000 A 
ENDROOT
BRANCH   3   7
ATOM      7  C   UNL A   1     -29.494 -11.405  28.955  0.00  0.00    +0.419 C 
ATOM      8  F   UNL A   1     -28.540 -11.705  28.444  0.00  0.00    -0.166 F 
ATOM      9  F   UNL A   1     -30.458 -12.439  28.862  0.00  0.00    -0.166 F 
ATOM     10  F   UNL A   1     -30.195 -10.362  28.236  0.00  0.00    -0.166 F 
ENDBRANCH   3   7
BRANCH   2  11
ATOM     11  C   UNL A   1     -27.189 -12.156  33.198  0.00  0.00    +0.388 C 
ATOM     12  O   UNL A   1     -26.400 -12.985  32.649  0.00  0.00    -0.241 OA
ATOM     13  O   UNL A   1     -27.370 -12.234  34.365  0.00  0.00    -0.241 OA
ENDBRANCH   2  11
TORSDOF 2
ENDMDL
ENDMDL
