REMARK  Name = No_4653-gen_results/8p0m/2024-11-26-14-13-15/
REMARK  2 active torsions:
REMARK  status: ('A' for Active; 'I' for Inactive)
REMARK    1  A    between atoms: C_2  and  C_11
REMARK    2  A    between atoms: C_3  and  C_7
REMARK                            x       y       z     vdW  Elec       q    Type
REMARK                         _______ _______ _______ _____ _____    ______ ____
ROOT
ATOM      1  C   UNL A   1     -28.016  -0.814  28.878  0.00  0.00    +0.010 A 
ATOM      2  C   UNL A   1     -28.469  -0.785  29.829  0.00  0.00    +0.080 A 
ATOM      3  C   UNL A   1     -27.087   0.290  28.638  0.00  0.00    +0.072 A 
ATOM      4  C   UNL A   1     -26.768   1.027  29.472  0.00  0.00    +0.004 A 
ATOM      5  C   UNL A   1     -28.276   0.027  31.015  0.00  0.00    +0.007 A 
ATOM      6  C   UNL A   1     -27.329   1.054  30.753  0.00  0.00    +0.000 A 
ENDROOT
BRANCH   3   7
ATOM      7  C   UNL A   1     -26.386   0.301  27.266  0.00  0.00    +0.419 C 
ATOM      8  F   UNL A   1     -26.934  -0.221  26.436  0.00  0.00    -0.166 F 
ATOM      9  F   UNL A   1     -26.126   1.651  26.922  0.00  0.00    -0.166 F 
ATOM     10  F   UNL A   1     -25.025  -0.173  27.406  0.00  0.00    -0.166 F 
ENDBRANCH   3   7
BRANCH   2  11
ATOM     11  C   UNL A   1     -29.494  -1.987  30.263  0.00  0.00    +0.388 C 
ATOM     12  O   UNL A   1     -29.955  -1.935  31.444  0.00  0.00    -0.241 OA
ATOM     13  O   UNL A   1     -29.471  -3.033  29.709  0.00  0.00    -0.241 OA
ENDBRANCH   2  11
TORSDOF 2
