REMARK  Name = No_4654-gen_results/8p0m/2024-11-26-14-13-15/
REMARK  2 active torsions:
REMARK  status: ('A' for Active; 'I' for Inactive)
REMARK    1  A    between atoms: C_2  and  C_5
REMARK    2  A    between atoms: N_12  and  C_14
REMARK                            x       y       z     vdW  Elec       q    Type
REMARK                         _______ _______ _______ _____ _____    ______ ____
ROOT
ATOM      1  C   UNL A   1     -28.016  -0.814  28.878  0.00  0.00    +0.005 A 
ATOM      2  C   UNL A   1     -28.469  -0.785  29.829  0.00  0.00    +0.055 A 
ATOM      3  C   UNL A   1     -27.136   0.236  28.535  0.00  0.00    +0.000 A 
ATOM      4  C   UNL A   1     -26.335   0.290  27.284  0.00  0.00    +0.000 A 
ATOM      5  C   UNL A   1     -28.230   0.301  30.904  0.00  0.00    +0.005 A 
ATOM      6  C   UNL A   1     -25.380   1.274  27.067  0.00  0.00    +0.000 A 
ATOM      7  C   UNL A   1     -27.415   1.311  30.614  0.00  0.00    +0.000 A 
ATOM      8  C   UNL A   1     -26.745   1.318  29.404  0.00  0.00    +0.000 A 
ATOM      9  C   UNL A   1     -25.164   2.320  27.982  0.00  0.00    +0.000 A 
ATOM     10  C   UNL A   1     -25.810   2.345  29.104  0.00  0.00    +0.000 A 
ENDROOT
BRANCH   2  11
ATOM     11  C   UNL A   1     -29.381  -1.913  30.355  0.00  0.00    +0.269 C 
ATOM     12  N   UNL A   1     -30.502  -2.079  29.920  0.00  0.00    -0.174 NA
ATOM     13  O   UNL A   1     -28.914  -2.818  31.241  0.00  0.00    -0.268 OA
BRANCH  12  14
ATOM     14  C   UNL A   1     -31.189  -1.113  29.190  0.00  0.00    +0.084 C 
ATOM     15  C   UNL A   1     -31.436  -0.099  29.372  0.00  0.00    -0.008 C 
ATOM     16  C   UNL A   1     -32.169   0.866  28.509  0.00  0.00    +0.032 C 
ENDBRANCH  12  14
ENDBRANCH   2  11
TORSDOF 2
