MODEL 4654
MODEL 1
REMARK VINA RESULT:    -6.507      0.000      0.000
REMARK INTER + INTRA:          -7.368
REMARK INTER:                  -7.268
REMARK INTRA:                  -0.101
REMARK UNBOUND:                -0.101
REMARK  Name = No_4654-gen_results/8p0m/2024-11-26-14-13-15/
REMARK  2 active torsions:
REMARK  status: ('A' for Active; 'I' for Inactive)
REMARK    1  A    between atoms: C_2  and  C_5
REMARK    2  A    between atoms: N_12  and  C_14
REMARK                            x       y       z     vdW  Elec       q    Type
REMARK                         _______ _______ _______ _____ _____    ______ ____
ROOT
ATOM      1  C   UNL A   1     -25.322  -0.782  29.969  0.00  0.00    +0.005 A 
ATOM      2  C   UNL A   1     -24.424  -0.253  29.812  0.00  0.00    +0.055 A 
ATOM      3  C   UNL A   1     -25.349  -2.152  29.630  0.00  0.00    +0.000 A 
ATOM      4  C   UNL A   1     -26.495  -3.063  29.889  0.00  0.00    +0.000 A 
ATOM      5  C   UNL A   1     -23.111  -0.860  29.265  0.00  0.00    +0.005 A 
ATOM      6  C   UNL A   1     -26.409  -4.430  29.665  0.00  0.00    +0.000 A 
ATOM      7  C   UNL A   1     -23.099  -2.145  28.926  0.00  0.00    +0.000 A 
ATOM      8  C   UNL A   1     -24.225  -2.917  29.148  0.00  0.00    +0.000 A 
ATOM      9  C   UNL A   1     -25.261  -5.027  29.112  0.00  0.00    +0.000 A 
ATOM     10  C   UNL A   1     -24.212  -4.310  28.866  0.00  0.00    +0.000 A 
ENDROOT
BRANCH   2  11
ATOM     11  C   UNL A   1     -24.241   1.223  30.220  0.00  0.00    +0.269 C 
ATOM     12  N   UNL A   1     -24.290   2.119  29.402  0.00  0.00    -0.174 NA
ATOM     13  O   UNL A   1     -24.129   1.569  31.520  0.00  0.00    -0.268 OA
BRANCH  12  14
ATOM     14  C   UNL A   1     -24.171   1.910  28.031  0.00  0.00    +0.084 C 
ATOM     15  C   UNL A   1     -23.500   2.266  27.294  0.00  0.00    -0.008 C 
ATOM     16  C   UNL A   1     -23.447   1.965  25.838  0.00  0.00    +0.032 C 
ENDBRANCH  12  14
ENDBRANCH   2  11
TORSDOF 2
ENDMDL
ENDMDL
