MODEL 4655
MODEL 1
REMARK VINA RESULT:    -5.871      0.000      0.000
REMARK INTER + INTRA:          -6.831
REMARK INTER:                  -6.557
REMARK INTRA:                  -0.274
REMARK UNBOUND:                -0.274
REMARK  Name = No_4655-gen_results/8p0m/2024-11-26-14-13-15/
REMARK  2 active torsions:
REMARK  status: ('A' for Active; 'I' for Inactive)
REMARK    1  A    between atoms: C_2  and  C_11
REMARK    2  A    between atoms: C_3  and  C_7
REMARK                            x       y       z     vdW  Elec       q    Type
REMARK                         _______ _______ _______ _____ _____    ______ ____
ROOT
ATOM      1  C   UNL A   1     -28.351 -11.881  31.090  0.00  0.00    +0.010 A 
ATOM      2  C   UNL A   1     -28.247 -11.571  32.092  0.00  0.00    +0.080 A 
ATOM      3  C   UNL A   1     -29.255 -11.171  30.270  0.00  0.00    +0.072 A 
ATOM      4  C   UNL A   1     -29.999 -10.111  30.750  0.00  0.00    +0.004 A 
ATOM      5  C   UNL A   1     -29.796  -9.766  32.076  0.00  0.00    +0.000 A 
ATOM      6  C   UNL A   1     -28.876 -10.464  32.828  0.00  0.00    +0.007 A 
ENDROOT
BRANCH   3   7
ATOM      7  C   UNL A   1     -29.482 -11.491  28.823  0.00  0.00    +0.419 C 
ATOM      8  F   UNL A   1     -28.545 -11.791  28.204  0.00  0.00    -0.166 F 
ATOM      9  F   UNL A   1     -30.467 -12.508  28.629  0.00  0.00    -0.166 F 
ATOM     10  F   UNL A   1     -30.183 -10.365  28.221  0.00  0.00    -0.166 F 
ENDBRANCH   3   7
BRANCH   2  11
ATOM     11  C   UNL A   1     -27.137 -12.261  33.047  0.00  0.00    +0.388 C 
ATOM     12  O   UNL A   1     -26.320 -12.987  32.517  0.00  0.00    -0.241 OA
ATOM     13  O   UNL A   1     -27.292 -12.202  34.262  0.00  0.00    -0.241 OA
ENDBRANCH   2  11
TORSDOF 2
ENDMDL
ENDMDL
