MODEL 4656
MODEL 1
REMARK VINA RESULT:    -7.156      0.000      0.000
REMARK INTER + INTRA:         -12.573
REMARK INTER:                 -10.503
REMARK INTRA:                  -2.071
REMARK UNBOUND:                -2.071
REMARK  Name = No_4656-gen_results/8p0m/2024-11-26-14-13-15/
REMARK  8 active torsions:
REMARK  status: ('A' for Active; 'I' for Inactive)
REMARK    1  A    between atoms: C_1  and  C_21
REMARK    2  A    between atoms: C_3  and  C_13
REMARK    3  A    between atoms: C_5  and  N_7
REMARK    4  A    between atoms: C_14  and  C_26
REMARK    5  A    between atoms: C_16  and  C_17
REMARK    6  A    between atoms: C_26  and  O_28
REMARK    7  A    between atoms: O_28  and  C_29
REMARK    8  A    between atoms: C_29  and  C_30
REMARK                            x       y       z     vdW  Elec       q    Type
REMARK                         _______ _______ _______ _____ _____    ______ ____
ROOT
ATOM      1  C   UNL A   1     -25.046   1.908  26.977  0.00  0.00    +0.029 C 
ATOM      2  C   UNL A   1     -25.898   2.666  27.839  0.00  0.00    +0.104 C 
ATOM      3  C   UNL A   1     -25.926   3.936  27.983  0.00  0.00    +0.023 C 
ATOM      4  C   UNL A   1     -25.197   4.736  26.947  0.00  0.00    +0.104 C 
ATOM      5  C   UNL A   1     -24.105   2.938  26.422  0.00  0.00    +0.005 C 
ATOM      6  C   UNL A   1     -24.737   4.119  25.899  0.00  0.00    +0.012 C 
ATOM      7  C   UNL A   1     -25.884   1.339  25.791  0.00  0.00    +0.005 C 
ENDROOT
BRANCH   1  10
ATOM      8  C   UNL A   1     -22.378  -0.233  28.298  0.00  0.00    +0.081 A 
ATOM      9  C   UNL A   1     -22.984   0.736  27.903  0.00  0.00    +0.002 A 
ATOM     10  C   UNL A   1     -24.343   0.740  27.657  0.00  0.00    -0.021 A 
ATOM     11  C   UNL A   1     -25.072  -0.453  27.922  0.00  0.00    +0.010 A 
ATOM     12  C   UNL A   1     -24.383  -1.451  28.522  0.00  0.00    +0.048 A 
ATOM     13  C   UNL A   1     -23.089  -1.352  28.758  0.00  0.00    +0.021 A 
BRANCH  12  14
ATOM     14  N   UNL A   1     -25.114  -2.599  28.810  0.00  0.00    -0.307 N 
ATOM     15  C   UNL A   1     -24.630  -3.804  28.646  0.00  0.00    +0.091 C 
ATOM     16  C   UNL A   1     -25.161  -4.803  29.229  0.00  0.00    +0.021 C 
ATOM     17  C   UNL A   1     -26.272  -2.502  29.525  0.00  0.00    +0.091 C 
ATOM     18  C   UNL A   1     -26.910  -3.587  30.106  0.00  0.00    +0.021 C 
ATOM     19  C   UNL A   1     -26.431  -4.791  29.834  0.00  0.00    +0.004 C 
ENDBRANCH  12  14
BRANCH   8  20
ATOM     20  C   UNL A   1     -20.903  -0.158  28.620  0.00  0.00    +0.388 C 
ATOM     21  O   UNL A   1     -20.407   0.735  28.416  0.00  0.00    -0.241 OA
ATOM     22  O   UNL A   1     -20.315  -1.242  28.998  0.00  0.00    -0.241 OA
ENDBRANCH   8  20
ENDBRANCH   1  10
BRANCH   4  23
ATOM     23  C   UNL A   1     -25.152   6.166  27.193  0.00  0.00    +0.364 C 
ATOM     24  O   UNL A   1     -24.484   6.579  28.186  0.00  0.00    -0.246 OA
ATOM     25  O   UNL A   1     -26.300   6.831  26.805  0.00  0.00    -0.246 OA
ENDBRANCH   4  23
BRANCH   2  26
ATOM     26  C   UNL A   1     -26.687   1.845  28.917  0.00  0.00    +0.322 C 
ATOM     27  O   UNL A   1     -27.559   1.180  28.824  0.00  0.00    -0.250 OA
BRANCH  26  28
ATOM     28  O   UNL A   1     -26.339   2.275  30.191  0.00  0.00    -0.402 OA
BRANCH  28  29
ATOM     29  C   UNL A   1     -25.881   1.299  31.016  0.00  0.00    +0.301 C 
ATOM     30  N   UNL A   1     -26.798   0.426  31.501  0.00  0.00    -0.232 NA
ATOM     31  C   UNL A   1     -26.601  -0.347  32.531  0.00  0.00    +0.155 C 
BRANCH  29  32
ATOM     32  C   UNL A   1     -24.648   1.458  31.414  0.00  0.00    +0.469 C 
ATOM     33  F   UNL A   1     -24.506   1.776  32.598  0.00  0.00    -0.162 F 
ATOM     34  F   UNL A   1     -23.989   0.200  31.417  0.00  0.00    -0.162 F 
ATOM     35  F   UNL A   1     -23.869   2.205  30.563  0.00  0.00    -0.162 F 
ENDBRANCH  29  32
ENDBRANCH  28  29
ENDBRANCH  26  28
ENDBRANCH   2  26
TORSDOF 8
ENDMDL
ENDMDL
