MODEL 4657
MODEL 1
REMARK VINA RESULT:    -6.643      0.000      0.000
REMARK INTER + INTRA:          -8.255
REMARK INTER:                  -7.808
REMARK INTRA:                  -0.447
REMARK UNBOUND:                -0.447
REMARK  Name = No_4657-gen_results/8p0m/2024-11-26-14-13-15/
REMARK  3 active torsions:
REMARK  status: ('A' for Active; 'I' for Inactive)
REMARK    1  A    between atoms: C_2  and  O_13
REMARK    2  A    between atoms: C_4  and  C_6
REMARK    3  A    between atoms: O_13  and  C_14
REMARK                            x       y       z     vdW  Elec       q    Type
REMARK                         _______ _______ _______ _____ _____    ______ ____
ROOT
ATOM      1  C   UNL A   1     -24.566   0.709  25.409  0.00  0.00    +0.037 A 
ATOM      2  C   UNL A   1     -24.750   1.544  26.024  0.00  0.00    +0.145 A 
ATOM      3  C   UNL A   1     -25.793   0.063  24.805  0.00  0.00    +0.003 A 
ATOM      4  C   UNL A   1     -27.051   0.679  24.972  0.00  0.00    +0.000 A 
ATOM      5  C   UNL A   1     -25.928   2.388  26.328  0.00  0.00    +0.037 A 
ATOM      6  C   UNL A   1     -27.097   1.831  25.753  0.00  0.00    +0.003 A 
ENDROOT
BRANCH   4   7
ATOM      7  C   UNL A   1     -28.238   0.139  24.425  0.00  0.00    +0.000 A 
ATOM      8  C   UNL A   1     -28.394  -0.899  24.049  0.00  0.00    +0.000 A 
ATOM      9  C   UNL A   1     -29.597  -1.477  23.420  0.00  0.00    +0.000 A 
ATOM     10  C   UNL A   1     -30.586  -0.594  23.245  0.00  0.00    +0.000 A 
ATOM     11  C   UNL A   1     -29.514   0.923  24.143  0.00  0.00    +0.000 A 
ATOM     12  C   UNL A   1     -30.581   0.624  23.616  0.00  0.00    +0.000 A 
ENDBRANCH   4   7
BRANCH   2  13
ATOM     13  O   UNL A   1     -23.561   2.144  26.663  0.00  0.00    -0.454 OA
BRANCH  13  14
ATOM     14  C   UNL A   1     -22.764   1.346  27.422  0.00  0.00    +0.145 A 
ATOM     15  C   UNL A   1     -21.620   1.405  27.382  0.00  0.00    +0.037 A 
ATOM     16  C   UNL A   1     -20.736   0.522  28.151  0.00  0.00    +0.003 A 
ATOM     17  C   UNL A   1     -21.352  -0.423  28.991  0.00  0.00    +0.000 A 
ATOM     18  C   UNL A   1     -22.723  -0.473  29.009  0.00  0.00    +0.003 A 
ATOM     19  C   UNL A   1     -23.466   0.335  28.257  0.00  0.00    +0.037 A 
ENDBRANCH  13  14
ENDBRANCH   2  13
TORSDOF 3
ENDMDL
ENDMDL
