REMARK  Name = No_4657-gen_results/8p0m/2024-11-26-14-13-15/
REMARK  3 active torsions:
REMARK  status: ('A' for Active; 'I' for Inactive)
REMARK    1  A    between atoms: C_2  and  O_13
REMARK    2  A    between atoms: C_4  and  C_6
REMARK    3  A    between atoms: O_13  and  C_14
REMARK                            x       y       z     vdW  Elec       q    Type
REMARK                         _______ _______ _______ _____ _____    ______ ____
ROOT
ATOM      1  C   UNL A   1     -28.016  -0.814  28.878  0.00  0.00    +0.037 A 
ATOM      2  C   UNL A   1     -28.469  -0.785  29.829  0.00  0.00    +0.145 A 
ATOM      3  C   UNL A   1     -26.504  -0.778  28.877  0.00  0.00    +0.003 A 
ATOM      4  C   UNL A   1     -25.810  -0.853  30.103  0.00  0.00    +0.000 A 
ATOM      5  C   UNL A   1     -27.991  -0.892  31.226  0.00  0.00    +0.037 A 
ATOM      6  C   UNL A   1     -26.575  -0.890  31.266  0.00  0.00    +0.003 A 
ENDROOT
BRANCH   4   7
ATOM      7  C   UNL A   1     -24.398  -0.836  30.177  0.00  0.00    +0.000 A 
ATOM      8  C   UNL A   1     -23.771  -0.918  31.096  0.00  0.00    +0.000 A 
ATOM      9  C   UNL A   1     -22.302  -0.844  31.215  0.00  0.00    +0.000 A 
ATOM     10  C   UNL A   1     -21.683  -0.588  30.058  0.00  0.00    +0.000 A 
ATOM     11  C   UNL A   1     -23.457  -0.586  29.004  0.00  0.00    +0.000 A 
ATOM     12  C   UNL A   1     -22.239  -0.469  28.918  0.00  0.00    +0.000 A 
ENDBRANCH   4   7
BRANCH   2  13
ATOM     13  O   UNL A   1     -29.946  -0.762  29.835  0.00  0.00    -0.454 OA
BRANCH  13  14
ATOM     14  C   UNL A   1     -30.572   0.407  30.135  0.00  0.00    +0.145 A 
ATOM     15  C   UNL A   1     -31.509   0.762  29.578  0.00  0.00    +0.037 A 
ATOM     16  C   UNL A   1     -32.175   2.041  29.846  0.00  0.00    +0.003 A 
ATOM     17  C   UNL A   1     -31.627   2.845  30.862  0.00  0.00    +0.000 A 
ATOM     18  C   UNL A   1     -30.501   2.395  31.503  0.00  0.00    +0.003 A 
ATOM     19  C   UNL A   1     -29.925   1.238  31.184  0.00  0.00    +0.037 A 
ENDBRANCH  13  14
ENDBRANCH   2  13
TORSDOF 3
