MODEL 4658
MODEL 1
REMARK VINA RESULT:    -6.680      0.000      0.000
REMARK INTER + INTRA:          -7.116
REMARK INTER:                  -7.071
REMARK INTRA:                  -0.045
REMARK UNBOUND:                -0.045
REMARK  Name = No_4658-gen_results/8p0m/2024-11-26-14-13-15/
REMARK  1 active torsions:
REMARK  status: ('A' for Active; 'I' for Inactive)
REMARK    1  A    between atoms: C_5  and  C_10
REMARK                            x       y       z     vdW  Elec       q    Type
REMARK                         _______ _______ _______ _____ _____    ______ ____
ROOT
ATOM      1  C   UNL A   1      -8.327   0.214  35.037  0.00  0.00    +0.119 C 
ATOM      2  C   UNL A   1      -7.225  -0.273  34.930  0.00  0.00    +0.008 C 
ATOM      3  C   UNL A   1      -7.000  -1.596  34.553  0.00  0.00    +0.030 C 
ATOM      4  C   UNL A   1      -5.696  -2.274  34.410  0.00  0.00    +0.020 C 
ATOM      5  C   UNL A   1      -4.547  -1.428  34.469  0.00  0.00    +0.126 C 
ATOM      6  C   UNL A   1      -4.731  -0.081  34.800  0.00  0.00    -0.015 C 
ATOM      7  C   UNL A   1      -5.948   0.472  35.002  0.00  0.00    -0.006 C 
ATOM      8  C   UNL A   1      -8.943  -0.050  36.391  0.00  0.00    +0.089 C 
ATOM      9  C   UNL A   1     -10.309   0.410  36.643  0.00  0.00    -0.021 C 
ATOM     10  C   UNL A   1     -10.840   1.040  35.673  0.00  0.00    +0.016 C 
ATOM     11  C   UNL A   1     -12.203   1.511  36.015  0.00  0.00    +0.034 C 
ATOM     12  C   UNL A   1     -12.880   2.197  34.977  0.00  0.00    +0.051 C 
ATOM     13  C   UNL A   1     -12.155   2.954  34.269  0.00  0.00    +0.071 C 
ATOM     14  N   UNL A   1     -10.936   3.124  34.436  0.00  0.00    -0.231 NA
ATOM     15  C   UNL A   1     -10.212   2.149  35.120  0.00  0.00    +0.290 C 
ATOM     16  O   UNL A   1      -9.043   1.609  34.425  0.00  0.00    -0.458 OA
ENDROOT
BRANCH   5  17
ATOM     17  C   UNL A   1      -3.266  -2.085  34.263  0.00  0.00    +0.368 C 
ATOM     18  O   UNL A   1      -2.718  -2.185  33.153  0.00  0.00    -0.245 OA
ATOM     19  O   UNL A   1      -2.518  -2.280  35.354  0.00  0.00    -0.245 OA
ENDBRANCH   5  17
TORSDOF 1
ENDMDL
ENDMDL
