REMARK  Name = No_4658-gen_results/8p0m/2024-11-26-14-13-15/
REMARK  1 active torsions:
REMARK  status: ('A' for Active; 'I' for Inactive)
REMARK    1  A    between atoms: C_5  and  C_10
REMARK                            x       y       z     vdW  Elec       q    Type
REMARK                         _______ _______ _______ _____ _____    ______ ____
ROOT
ATOM      1  C   UNL A   1     -28.016  -0.814  28.878  0.00  0.00    +0.119 C 
ATOM      2  C   UNL A   1     -27.064  -0.119  28.608  0.00  0.00    +0.008 C 
ATOM      3  C   UNL A   1     -25.765  -0.390  29.036  0.00  0.00    +0.030 C 
ATOM      4  C   UNL A   1     -24.552   0.406  28.765  0.00  0.00    +0.020 C 
ATOM      5  C   UNL A   1     -24.696   1.448  27.799  0.00  0.00    +0.126 C 
ATOM      6  C   UNL A   1     -25.976   1.725  27.308  0.00  0.00    -0.015 C 
ATOM      7  C   UNL A   1     -27.072   1.013  27.654  0.00  0.00    -0.006 C 
ATOM      8  C   UNL A   1     -28.618  -0.469  30.221  0.00  0.00    +0.089 C 
ATOM      9  C   UNL A   1     -29.730  -1.277  30.721  0.00  0.00    -0.021 C 
ATOM     10  C   UNL A   1     -30.112  -2.196  29.927  0.00  0.00    +0.016 C 
ATOM     11  C   UNL A   1     -31.266  -2.944  30.481  0.00  0.00    +0.034 C 
ATOM     12  C   UNL A   1     -31.737  -4.007  29.672  0.00  0.00    +0.051 C 
ATOM     13  C   UNL A   1     -31.720  -3.786  28.427  0.00  0.00    +0.071 C 
ATOM     14  N   UNL A   1     -31.336  -2.727  27.902  0.00  0.00    -0.231 NA
ATOM     15  C   UNL A   1     -30.480  -1.896  28.622  0.00  0.00    +0.290 C 
ATOM     16  O   UNL A   1     -29.230  -1.529  27.956  0.00  0.00    -0.458 OA
ENDROOT
BRANCH   5  17
ATOM     17  C   UNL A   1     -23.486   2.190  27.484  0.00  0.00    +0.368 C 
ATOM     18  O   UNL A   1     -22.345   1.794  27.772  0.00  0.00    -0.245 OA
ATOM     19  O   UNL A   1     -23.604   3.152  26.563  0.00  0.00    -0.245 OA
ENDBRANCH   5  17
TORSDOF 1
