REMARK  Name = No_4659-gen_results/8p0m/2024-11-26-14-13-15/
REMARK  1 active torsions:
REMARK  status: ('A' for Active; 'I' for Inactive)
REMARK    1  A    between atoms: C_5  and  C_16
REMARK                            x       y       z     vdW  Elec       q    Type
REMARK                         _______ _______ _______ _____ _____    ______ ____
ROOT
ATOM      1  C   UNL A   1     -28.016  -0.814  28.878  0.00  0.00    +0.003 A 
ATOM      2  C   UNL A   1     -27.064  -0.119  28.608  0.00  0.00    -0.015 A 
ATOM      3  C   UNL A   1     -26.876   1.133  28.913  0.00  0.00    +0.035 A 
ATOM      4  C   UNL A   1     -27.901   1.807  29.644  0.00  0.00    +0.003 A 
ATOM      5  C   UNL A   1     -29.046  -0.232  29.718  0.00  0.00    +0.080 A 
ATOM      6  C   UNL A   1     -28.940   1.052  30.060  0.00  0.00    +0.007 A 
ATOM      7  C   UNL A   1     -25.873  -0.713  27.805  0.00  0.00    +0.053 C 
ATOM      8  C   UNL A   1     -25.286   0.051  26.800  0.00  0.00    -0.015 A 
ATOM      9  C   UNL A   1     -24.476  -0.263  26.015  0.00  0.00    -0.004 A 
ATOM     10  C   UNL A   1     -24.162   0.733  24.889  0.00  0.00    -0.000 A 
ATOM     11  C   UNL A   1     -23.940   1.923  25.312  0.00  0.00    +0.000 A 
ATOM     12  C   UNL A   1     -25.117   1.591  26.984  0.00  0.00    +0.035 A 
ATOM     13  C   UNL A   1     -24.543   2.403  26.280  0.00  0.00    +0.003 A 
ATOM     14  C   UNL A   1     -26.145   2.033  28.244  0.00  0.00    +0.195 C 
ATOM     15  O   UNL A   1     -25.637   3.101  28.807  0.00  0.00    -0.287 OA
ENDROOT
BRANCH   5  16
ATOM     16  C   UNL A   1     -30.139  -1.164  30.210  0.00  0.00    +0.388 C 
ATOM     17  O   UNL A   1     -29.953  -2.146  30.825  0.00  0.00    -0.241 OA
ATOM     18  O   UNL A   1     -31.315  -0.599  30.251  0.00  0.00    -0.241 OA
ENDBRANCH   5  16
TORSDOF 1
