MODEL 4659
MODEL 1
REMARK VINA RESULT:    -6.975      0.000      0.000
REMARK INTER + INTRA:          -7.474
REMARK INTER:                  -7.383
REMARK INTRA:                  -0.092
REMARK UNBOUND:                -0.092
REMARK  Name = No_4659-gen_results/8p0m/2024-11-26-14-13-15/
REMARK  1 active torsions:
REMARK  status: ('A' for Active; 'I' for Inactive)
REMARK    1  A    between atoms: C_5  and  C_16
REMARK                            x       y       z     vdW  Elec       q    Type
REMARK                         _______ _______ _______ _____ _____    ______ ____
ROOT
ATOM      1  C   UNL A   1     -28.315 -11.925  31.093  0.00  0.00    +0.003 A 
ATOM      2  C   UNL A   1     -28.950 -11.263  30.306  0.00  0.00    -0.015 A 
ATOM      3  C   UNL A   1     -29.703 -10.230  30.554  0.00  0.00    +0.035 A 
ATOM      4  C   UNL A   1     -29.831  -9.803  31.911  0.00  0.00    +0.003 A 
ATOM      5  C   UNL A   1     -28.304 -11.484  32.475  0.00  0.00    +0.080 A 
ATOM      6  C   UNL A   1     -29.064 -10.444  32.819  0.00  0.00    +0.007 A 
ATOM      7  C   UNL A   1     -28.917 -11.615  28.792  0.00  0.00    +0.053 C 
ATOM      8  C   UNL A   1     -30.099 -11.565  28.059  0.00  0.00    -0.015 A 
ATOM      9  C   UNL A   1     -30.298 -11.909  26.958  0.00  0.00    -0.004 A 
ATOM     10  C   UNL A   1     -31.756 -11.924  26.476  0.00  0.00    -0.000 A 
ATOM     11  C   UNL A   1     -32.384 -10.834  26.726  0.00  0.00    +0.000 A 
ATOM     12  C   UNL A   1     -31.152 -10.449  28.346  0.00  0.00    +0.035 A 
ATOM     13  C   UNL A   1     -32.181 -10.176  27.753  0.00  0.00    +0.003 A 
ATOM     14  C   UNL A   1     -30.765  -9.810  29.857  0.00  0.00    +0.195 C 
ATOM     15  O   UNL A   1     -31.189  -8.571  29.877  0.00  0.00    -0.287 OA
ENDROOT
BRANCH   5  16
ATOM     16  C   UNL A   1     -27.356 -12.203  33.419  0.00  0.00    +0.388 C 
ATOM     17  O   UNL A   1     -27.569 -12.403  34.555  0.00  0.00    -0.241 OA
ATOM     18  O   UNL A   1     -26.471 -12.934  32.798  0.00  0.00    -0.241 OA
ENDBRANCH   5  16
TORSDOF 1
ENDMDL
ENDMDL
