MODEL 465
MODEL 1
REMARK VINA RESULT:    -4.513      0.000      0.000
REMARK INTER + INTRA:          -4.513
REMARK INTER:                  -4.513
REMARK INTRA:                   0.000
REMARK UNBOUND:                 0.000
REMARK  Name = No_465-gen_results/8p0m/2024-11-26-14-13-15/
REMARK  0 active torsions:
REMARK  status: ('A' for Active; 'I' for Inactive)
REMARK                            x       y       z     vdW  Elec       q    Type
REMARK                         _______ _______ _______ _____ _____    ______ ____
ROOT
ATOM      1  C   UNL A   1     -24.034  -4.370  28.672  0.00  0.00    +0.030 A 
ATOM      2  C   UNL A   1     -24.913  -4.910  28.888  0.00  0.00    +0.140 A 
ATOM      3  C   UNL A   1     -24.080  -2.896  29.008  0.00  0.00    +0.002 A 
ATOM      4  C   UNL A   1     -25.196  -2.378  29.698  0.00  0.00    +0.000 A 
ATOM      5  C   UNL A   1     -26.170  -4.628  29.617  0.00  0.00    +0.030 A 
ATOM      6  C   UNL A   1     -26.245  -3.282  29.948  0.00  0.00    +0.002 A 
ATOM      7  F   UNL A   1     -24.859  -6.327  28.576  0.00  0.00    -0.204 F 
ENDROOT
TORSDOF 0
ENDMDL
ENDMDL
