MODEL 4660
MODEL 1
REMARK VINA RESULT:    -7.437      0.000      0.000
REMARK INTER + INTRA:          -9.634
REMARK INTER:                  -8.741
REMARK INTRA:                  -0.894
REMARK UNBOUND:                -0.894
REMARK  Name = No_4660-gen_results/8p0m/2024-11-26-14-13-15/
REMARK  3 active torsions:
REMARK  status: ('A' for Active; 'I' for Inactive)
REMARK    1  A    between atoms: C_3  and  C_4
REMARK    2  A    between atoms: C_4  and  N_8
REMARK    3  A    between atoms: C_11  and  C_12
REMARK                            x       y       z     vdW  Elec       q    Type
REMARK                         _______ _______ _______ _____ _____    ______ ____
ROOT
ATOM      1  N   UNL A   1     -25.274  -0.807  30.395  0.00  0.00    -0.300 N 
ATOM      2  C   UNL A   1     -25.624  -0.911  31.370  0.00  0.00    +0.057 C 
ATOM      3  C   UNL A   1     -25.239  -0.022  32.483  0.00  0.00    -0.008 C 
ATOM      4  C   UNL A   1     -24.157   0.197  30.429  0.00  0.00    +0.100 C 
ATOM      5  C   UNL A   1     -24.162   0.691  31.773  0.00  0.00    +0.052 C 
ENDROOT
BRANCH   4   6
ATOM      6  C   UNL A   1     -23.211   0.424  29.466  0.00  0.00    -0.004 A 
ATOM      7  C   UNL A   1     -21.973  -0.217  29.401  0.00  0.00    -0.003 A 
ATOM      8  C   UNL A   1     -20.924   0.059  28.505  0.00  0.00    -0.000 A 
ATOM      9  C   UNL A   1     -21.226   1.119  27.567  0.00  0.00    -0.000 A 
ATOM     10  C   UNL A   1     -23.329   1.581  28.585  0.00  0.00    -0.003 A 
ATOM     11  C   UNL A   1     -22.388   1.826  27.646  0.00  0.00    -0.000 A 
ENDBRANCH   4   6
BRANCH   1  12
ATOM     12  C   UNL A   1     -25.471  -1.428  29.313  0.00  0.00    +0.118 C 
BRANCH  12  15
ATOM     13  C   UNL A   1     -26.357  -3.866  29.695  0.00  0.00    -0.003 A 
ATOM     14  C   UNL A   1     -26.067  -4.878  29.648  0.00  0.00    -0.000 A 
ATOM     15  C   UNL A   1     -25.377  -2.877  29.218  0.00  0.00    -0.002 A 
ATOM     16  C   UNL A   1     -24.916  -5.541  28.990  0.00  0.00    -0.000 A 
ATOM     17  C   UNL A   1     -23.945  -4.672  28.505  0.00  0.00    -0.000 A 
ATOM     18  C   UNL A   1     -24.134  -3.308  28.569  0.00  0.00    -0.003 A 
ENDBRANCH  12  15
ENDBRANCH   1  12
TORSDOF 3
ENDMDL
ENDMDL
