REMARK  Name = No_4660-gen_results/8p0m/2024-11-26-14-13-15/
REMARK  3 active torsions:
REMARK  status: ('A' for Active; 'I' for Inactive)
REMARK    1  A    between atoms: C_3  and  C_4
REMARK    2  A    between atoms: C_4  and  N_8
REMARK    3  A    between atoms: C_11  and  C_12
REMARK                            x       y       z     vdW  Elec       q    Type
REMARK                         _______ _______ _______ _____ _____    ______ ____
ROOT
ATOM      1  N   UNL A   1     -25.963  -0.042  26.695  0.00  0.00    -0.300 N 
ATOM      2  C   UNL A   1     -26.845   0.222  26.209  0.00  0.00    +0.057 C 
ATOM      3  C   UNL A   1     -26.904   1.114  25.035  0.00  0.00    -0.008 C 
ATOM      4  C   UNL A   1     -24.876   0.842  26.154  0.00  0.00    +0.100 C 
ATOM      5  C   UNL A   1     -25.501   1.565  25.087  0.00  0.00    +0.052 C 
ENDROOT
BRANCH   4   6
ATOM      6  C   UNL A   1     -23.640   1.070  26.696  0.00  0.00    -0.004 A 
ATOM      7  C   UNL A   1     -23.221   0.607  27.944  0.00  0.00    -0.003 A 
ATOM      8  C   UNL A   1     -22.010   0.907  28.594  0.00  0.00    -0.000 A 
ATOM      9  C   UNL A   1     -21.143   1.779  27.832  0.00  0.00    -0.000 A 
ATOM     10  C   UNL A   1     -22.758   2.072  26.106  0.00  0.00    -0.003 A 
ATOM     11  C   UNL A   1     -21.544   2.320  26.647  0.00  0.00    -0.000 A 
ENDBRANCH   4   6
BRANCH   1  12
ATOM     12  C   UNL A   1     -25.683  -0.777  27.683  0.00  0.00    +0.118 C 
BRANCH  12  15
ATOM     13  C   UNL A   1     -28.016  -0.814  28.878  0.00  0.00    -0.003 A 
ATOM     14  C   UNL A   1     -28.469  -0.785  29.829  0.00  0.00    -0.000 A 
ATOM     15  C   UNL A   1     -26.546  -0.876  28.850  0.00  0.00    -0.002 A 
ATOM     16  C   UNL A   1     -27.918  -1.003  31.188  0.00  0.00    -0.000 A 
ATOM     17  C   UNL A   1     -26.531  -1.079  31.246  0.00  0.00    -0.000 A 
ATOM     18  C   UNL A   1     -25.780  -1.046  30.090  0.00  0.00    -0.003 A 
ENDBRANCH  12  15
ENDBRANCH   1  12
TORSDOF 3
