MODEL 4661
MODEL 1
REMARK VINA RESULT:    -5.544      0.000      0.000
REMARK INTER + INTRA:          -6.509
REMARK INTER:                  -6.192
REMARK INTRA:                  -0.318
REMARK UNBOUND:                -0.318
REMARK  Name = No_4661-gen_results/8p0m/2024-11-26-14-13-15/
REMARK  2 active torsions:
REMARK  status: ('A' for Active; 'I' for Inactive)
REMARK    1  A    between atoms: C_1  and  C_2
REMARK    2  A    between atoms: C_5  and  C_11
REMARK                            x       y       z     vdW  Elec       q    Type
REMARK                         _______ _______ _______ _____ _____    ______ ____
ROOT
ATOM      1  C   UNL A   1     -22.386   0.153  28.540  0.00  0.00    +0.071 A 
ATOM      2  C   UNL A   1     -23.716   0.229  28.176  0.00  0.00    +0.004 A 
ATOM      3  C   UNL A   1     -24.299   1.235  27.307  0.00  0.00    +0.004 A 
ATOM      4  C   UNL A   1     -23.675   1.948  26.779  0.00  0.00    +0.048 A 
ATOM      5  C   UNL A   1     -22.196   2.088  26.977  0.00  0.00    +0.004 A 
ATOM      6  C   UNL A   1     -21.579   1.139  27.827  0.00  0.00    +0.004 A 
ENDROOT
BRANCH   1   7
ATOM      7  C   UNL A   1     -21.927  -0.740  29.214  0.00  0.00    +0.419 C 
ATOM      8  F   UNL A   1     -21.992  -0.512  30.455  0.00  0.00    -0.166 F 
ATOM      9  F   UNL A   1     -20.693  -1.075  28.930  0.00  0.00    -0.166 F 
ATOM     10  F   UNL A   1     -22.729  -1.884  28.994  0.00  0.00    -0.166 F 
ENDBRANCH   1   7
BRANCH   4  11
ATOM     11  C   UNL A   1     -24.153   3.098  25.860  0.00  0.00    +0.242 C 
ATOM     12  N   UNL A   1     -25.362   3.566  25.866  0.00  0.00    -0.116 NA
ATOM     13  F   UNL A   1     -23.290   3.620  25.097  0.00  0.00    -0.181 F 
ENDBRANCH   4  11
TORSDOF 2
ENDMDL
ENDMDL
