REMARK  Name = No_4661-gen_results/8p0m/2024-11-26-14-13-15/
REMARK  2 active torsions:
REMARK  status: ('A' for Active; 'I' for Inactive)
REMARK    1  A    between atoms: C_1  and  C_2
REMARK    2  A    between atoms: C_5  and  C_11
REMARK                            x       y       z     vdW  Elec       q    Type
REMARK                         _______ _______ _______ _____ _____    ______ ____
ROOT
ATOM      1  C   UNL A   1     -27.064  -0.119  28.608  0.00  0.00    +0.071 A 
ATOM      2  C   UNL A   1     -27.001   0.691  27.491  0.00  0.00    +0.004 A 
ATOM      3  C   UNL A   1     -25.855   1.482  27.083  0.00  0.00    +0.004 A 
ATOM      4  C   UNL A   1     -24.901   1.389  27.592  0.00  0.00    +0.048 A 
ATOM      5  C   UNL A   1     -24.678   0.576  28.830  0.00  0.00    +0.004 A 
ATOM      6  C   UNL A   1     -25.770  -0.205  29.280  0.00  0.00    +0.004 A 
ENDROOT
BRANCH   1   7
ATOM      7  C   UNL A   1     -28.016  -0.814  28.878  0.00  0.00    +0.419 C 
ATOM      8  F   UNL A   1     -27.693  -1.941  29.348  0.00  0.00    -0.166 F 
ATOM      9  F   UNL A   1     -28.857  -1.014  27.894  0.00  0.00    -0.166 F 
ATOM     10  F   UNL A   1     -28.730  -0.161  29.909  0.00  0.00    -0.166 F 
ENDBRANCH   1   7
BRANCH   4  11
ATOM     11  C   UNL A   1     -23.611   2.193  27.300  0.00  0.00    +0.242 C 
ATOM     12  N   UNL A   1     -22.625   2.295  28.136  0.00  0.00    -0.116 NA
ATOM     13  F   UNL A   1     -23.519   2.739  26.163  0.00  0.00    -0.181 F 
ENDBRANCH   4  11
TORSDOF 2
