REMARK  Name = No_4662-gen_results/8p0m/2024-11-26-14-13-15/
REMARK  9 active torsions:
REMARK  status: ('A' for Active; 'I' for Inactive)
REMARK    1  A    between atoms: C_2  and  C_23
REMARK    2  A    between atoms: C_3  and  C_4
REMARK    3  A    between atoms: C_7  and  O_17
REMARK    4  A    between atoms: N_8  and  C_9
REMARK    5  A    between atoms: O_17  and  C_18
REMARK    6  A    between atoms: C_18  and  C_19
REMARK    7  A    between atoms: C_23  and  O_24
REMARK    8  A    between atoms: O_24  and  C_26
REMARK    9  A    between atoms: C_27  and  C_28
REMARK                            x       y       z     vdW  Elec       q    Type
REMARK                         _______ _______ _______ _____ _____    ______ ____
ROOT
ATOM      1  C   UNL A   1     -28.016  -0.814  28.878  0.00  0.00    +0.014 A 
ATOM      2  C   UNL A   1     -28.469  -0.785  29.829  0.00  0.00    +0.076 A 
ATOM      3  C   UNL A   1     -27.087   0.290  28.638  0.00  0.00    +0.089 A 
ATOM      4  C   UNL A   1     -28.391   0.104  30.980  0.00  0.00    +0.010 A 
ATOM      5  C   UNL A   1     -27.533   1.167  30.787  0.00  0.00    +0.038 A 
ATOM      6  C   UNL A   1     -26.828   1.256  29.645  0.00  0.00    +0.153 A 
ENDROOT
BRANCH   3   7
ATOM      7  C   UNL A   1     -26.252   0.411  27.422  0.00  0.00    +0.256 C 
ATOM      8  N   UNL A   1     -25.064   0.267  27.526  0.00  0.00    -0.253 N 
ATOM      9  C   UNL A   1     -24.207   1.136  26.594  0.00  0.00    +0.120 C 
ATOM     10  O   UNL A   1     -26.919   0.243  26.364  0.00  0.00    -0.270 OA
BRANCH   8  11
ATOM     11  C   UNL A   1     -24.357  -0.563  28.302  0.00  0.00    +0.057 A 
ATOM     12  C   UNL A   1     -24.711  -1.660  28.879  0.00  0.00    +0.036 A 
ATOM     13  C   UNL A   1     -23.987  -2.513  29.670  0.00  0.00    +0.100 A 
ATOM     14  N   UNL A   1     -22.784  -1.969  29.928  0.00  0.00    -0.242 NA
ATOM     15  C   UNL A   1     -22.910  -0.339  28.701  0.00  0.00    +0.036 A 
ATOM     16  C   UNL A   1     -22.206  -0.962  29.440  0.00  0.00    +0.100 A 
ENDBRANCH   8  11
ENDBRANCH   3   7
BRANCH   2  17
ATOM     17  C   UNL A   1     -29.541  -1.972  30.192  0.00  0.00    +0.346 C 
ATOM     18  O   UNL A   1     -30.712  -1.779  29.958  0.00  0.00    -0.244 OA
BRANCH  17  19
ATOM     19  O   UNL A   1     -29.110  -2.965  30.601  0.00  0.00    -0.418 OA
BRANCH  19  20
ATOM     20  C   UNL A   1     -29.639  -4.262  30.382  0.00  0.00    +0.183 C 
ATOM     21  C   UNL A   1     -29.909  -4.762  29.352  0.00  0.00    +0.041 C 
BRANCH  21  22
ATOM     22  C   UNL A   1     -30.677  -5.964  29.166  0.00  0.00    +0.003 A 
ATOM     23  C   UNL A   1     -31.199  -6.326  27.886  0.00  0.00    +0.000 A 
ATOM     24  C   UNL A   1     -31.948  -7.445  27.736  0.00  0.00    +0.000 A 
ATOM     25  C   UNL A   1     -32.189  -8.287  28.808  0.00  0.00    +0.000 A 
ATOM     26  C   UNL A   1     -31.065  -6.938  30.153  0.00  0.00    +0.000 A 
ATOM     27  C   UNL A   1     -31.715  -8.012  30.030  0.00  0.00    +0.000 A 
ENDBRANCH  21  22
ENDBRANCH  19  20
ENDBRANCH  17  19
ENDBRANCH   2  17
BRANCH   6  28
ATOM     28  O   UNL A   1     -25.959   2.217  29.492  0.00  0.00    -0.416 OA
BRANCH  28  29
ATOM     29  C   UNL A   1     -26.284   3.425  29.004  0.00  0.00    +0.427 C 
ATOM     30  O   UNL A   1     -26.833   4.184  30.013  0.00  0.00    -0.237 OA
BRANCH  29  31
ATOM     31  C   UNL A   1     -25.305   4.087  28.253  0.00  0.00    +0.463 C 
ATOM     32  O   UNL A   1     -24.396   3.491  27.810  0.00  0.00    -0.233 OA
ATOM     33  O   UNL A   1     -25.506   5.362  27.949  0.00  0.00    -0.233 OA
ENDBRANCH  29  31
ENDBRANCH  28  29
ENDBRANCH   6  28
TORSDOF 9
