MODEL 4662
MODEL 1
REMARK VINA RESULT:    -7.226      0.000      0.000
REMARK INTER + INTRA:         -12.890
REMARK INTER:                 -11.028
REMARK INTRA:                  -1.861
REMARK UNBOUND:                -1.861
REMARK  Name = No_4662-gen_results/8p0m/2024-11-26-14-13-15/
REMARK  9 active torsions:
REMARK  status: ('A' for Active; 'I' for Inactive)
REMARK    1  A    between atoms: C_2  and  C_23
REMARK    2  A    between atoms: C_3  and  C_4
REMARK    3  A    between atoms: C_7  and  O_17
REMARK    4  A    between atoms: N_8  and  C_9
REMARK    5  A    between atoms: O_17  and  C_18
REMARK    6  A    between atoms: C_18  and  C_19
REMARK    7  A    between atoms: C_23  and  O_24
REMARK    8  A    between atoms: O_24  and  C_26
REMARK    9  A    between atoms: C_27  and  C_28
REMARK                            x       y       z     vdW  Elec       q    Type
REMARK                         _______ _______ _______ _____ _____    ______ ____
ROOT
ATOM      1  C   UNL A   1     -24.192   0.038  27.374  0.00  0.00    +0.014 A 
ATOM      2  C   UNL A   1     -24.902   0.624  26.861  0.00  0.00    +0.076 A 
ATOM      3  C   UNL A   1     -23.826   0.575  28.684  0.00  0.00    +0.089 A 
ATOM      4  C   UNL A   1     -25.617   1.860  27.148  0.00  0.00    +0.010 A 
ATOM      5  C   UNL A   1     -25.288   2.406  28.372  0.00  0.00    +0.038 A 
ATOM      6  C   UNL A   1     -24.434   1.756  29.183  0.00  0.00    +0.153 A 
ENDROOT
BRANCH   3   7
ATOM      7  C   UNL A   1     -22.930  -0.120  29.636  0.00  0.00    +0.256 C 
ATOM      8  N   UNL A   1     -23.386  -0.999  30.315  0.00  0.00    -0.253 N 
ATOM      9  C   UNL A   1     -22.798  -1.117  31.729  0.00  0.00    +0.120 C 
ATOM     10  O   UNL A   1     -21.712   0.010  29.330  0.00  0.00    -0.270 OA
BRANCH   8  11
ATOM     11  C   UNL A   1     -24.307  -1.926  30.027  0.00  0.00    +0.057 A 
ATOM     12  C   UNL A   1     -25.546  -2.000  30.376  0.00  0.00    +0.036 A 
ATOM     13  C   UNL A   1     -26.490  -2.947  30.079  0.00  0.00    +0.100 A 
ATOM     14  N   UNL A   1     -25.906  -3.973  29.433  0.00  0.00    -0.242 NA
ATOM     15  C   UNL A   1     -24.040  -3.170  29.199  0.00  0.00    +0.036 A 
ATOM     16  C   UNL A   1     -24.752  -4.095  28.941  0.00  0.00    +0.100 A 
ENDBRANCH   8  11
ENDBRANCH   3   7
BRANCH   2  17
ATOM     17  C   UNL A   1     -25.369   0.116  25.374  0.00  0.00    +0.346 C 
ATOM     18  O   UNL A   1     -24.569   0.178  24.469  0.00  0.00    -0.244 OA
BRANCH  17  19
ATOM     19  O   UNL A   1     -26.430  -0.336  25.280  0.00  0.00    -0.418 OA
BRANCH  19  20
ATOM     20  C   UNL A   1     -27.463   0.120  24.422  0.00  0.00    +0.183 C 
ATOM     21  C   UNL A   1     -28.330   0.871  24.680  0.00  0.00    +0.041 C 
BRANCH  21  22
ATOM     22  C   UNL A   1     -29.504   1.120  23.887  0.00  0.00    +0.003 A 
ATOM     23  C   UNL A   1     -30.496   0.111  23.686  0.00  0.00    +0.000 A 
ATOM     24  C   UNL A   1     -31.579   0.352  22.908  0.00  0.00    +0.000 A 
ATOM     25  C   UNL A   1     -31.774   1.593  22.326  0.00  0.00    +0.000 A 
ATOM     26  C   UNL A   1     -29.864   2.318  23.174  0.00  0.00    +0.000 A 
ATOM     27  C   UNL A   1     -30.889   2.585  22.489  0.00  0.00    +0.000 A 
ENDBRANCH  21  22
ENDBRANCH  19  20
ENDBRANCH  17  19
ENDBRANCH   2  17
BRANCH   6  28
ATOM     28  O   UNL A   1     -24.181   2.230  30.372  0.00  0.00    -0.416 OA
BRANCH  28  29
ATOM     29  C   UNL A   1     -25.131   2.410  31.304  0.00  0.00    +0.427 C 
ATOM     30  O   UNL A   1     -25.595   1.180  31.716  0.00  0.00    -0.237 OA
BRANCH  29  31
ATOM     31  C   UNL A   1     -24.831   3.291  32.350  0.00  0.00    +0.463 C 
ATOM     32  O   UNL A   1     -23.916   4.021  32.265  0.00  0.00    -0.233 OA
ATOM     33  O   UNL A   1     -25.681   3.369  33.365  0.00  0.00    -0.233 OA
ENDBRANCH  29  31
ENDBRANCH  28  29
ENDBRANCH   6  28
TORSDOF 9
ENDMDL
ENDMDL
