REMARK  Name = No_4663-gen_results/8p0m/2024-11-26-14-13-15/
REMARK  1 active torsions:
REMARK  status: ('A' for Active; 'I' for Inactive)
REMARK    1  A    between atoms: C_10  and  C_19
REMARK                            x       y       z     vdW  Elec       q    Type
REMARK                         _______ _______ _______ _____ _____    ______ ____
ROOT
ATOM      1  C   UNL A   1     -28.016  -0.814  28.878  0.00  0.00    +0.015 A 
ATOM      2  C   UNL A   1     -27.064  -0.119  28.608  0.00  0.00    +0.051 A 
ATOM      3  N   UNL A   1     -26.985   0.597  27.522  0.00  0.00    -0.243 N 
ATOM      4  C   UNL A   1     -27.961  -1.542  30.166  0.00  0.00    +0.001 A 
ATOM      5  C   UNL A   1     -26.781  -1.620  30.884  0.00  0.00    -0.000 A 
ATOM      6  C   UNL A   1     -25.646  -0.970  30.463  0.00  0.00    -0.003 A 
ATOM      7  C   UNL A   1     -25.756  -0.177  29.286  0.00  0.00    -0.001 A 
ATOM      8  C   UNL A   1     -25.902   0.896  26.809  0.00  0.00    +0.100 C 
ATOM      9  C   UNL A   1     -24.658   0.971  27.480  0.00  0.00    +0.035 C 
ATOM     10  C   UNL A   1     -24.549   0.378  28.709  0.00  0.00    +0.120 C 
ATOM     11  C   UNL A   1     -28.241   0.803  26.733  0.00  0.00    +0.311 C 
ATOM     12  O   UNL A   1     -28.359   0.725  25.561  0.00  0.00    -0.252 OA
ATOM     13  N   UNL A   1     -29.297   1.121  27.518  0.00  0.00    -0.264 N 
ATOM     14  C   UNL A   1     -29.351   1.553  28.788  0.00  0.00    +0.095 C 
ATOM     15  C   UNL A   1     -30.608   0.654  26.940  0.00  0.00    +0.095 C 
ATOM     16  C   UNL A   1     -30.490   1.665  29.465  0.00  0.00    +0.022 C 
ATOM     17  C   UNL A   1     -31.733   0.768  27.788  0.00  0.00    +0.022 C 
ATOM     18  C   UNL A   1     -31.701   1.320  28.983  0.00  0.00    +0.004 C 
ENDROOT
BRANCH  10  19
ATOM     19  C   UNL A   1     -23.298   0.356  29.471  0.00  0.00    +0.401 C 
ATOM     20  F   UNL A   1     -23.108   1.251  30.260  0.00  0.00    -0.170 F 
ATOM     21  F   UNL A   1     -22.153   0.474  28.628  0.00  0.00    -0.170 F 
ATOM     22  F   UNL A   1     -23.046  -0.857  30.053  0.00  0.00    -0.170 F 
ENDBRANCH  10  19
TORSDOF 1
