MODEL 4663
MODEL 1
REMARK VINA RESULT:    -6.935      0.000      0.000
REMARK INTER + INTRA:          -7.364
REMARK INTER:                  -7.341
REMARK INTRA:                  -0.023
REMARK UNBOUND:                -0.023
REMARK  Name = No_4663-gen_results/8p0m/2024-11-26-14-13-15/
REMARK  1 active torsions:
REMARK  status: ('A' for Active; 'I' for Inactive)
REMARK    1  A    between atoms: C_10  and  C_19
REMARK                            x       y       z     vdW  Elec       q    Type
REMARK                         _______ _______ _______ _____ _____    ______ ____
ROOT
ATOM      1  C   UNL A   1     -10.118   2.911  10.625  0.00  0.00    +0.015 A 
ATOM      2  C   UNL A   1      -9.118   2.353  10.235  0.00  0.00    +0.051 A 
ATOM      3  N   UNL A   1      -8.655   2.479   9.024  0.00  0.00    -0.243 N 
ATOM      4  C   UNL A   1     -10.493   2.686  12.040  0.00  0.00    +0.001 A 
ATOM      5  C   UNL A   1      -9.880   1.693  12.784  0.00  0.00    -0.000 A 
ATOM      6  C   UNL A   1      -8.861   0.935  12.260  0.00  0.00    -0.003 A 
ATOM      7  C   UNL A   1      -8.436   1.252  10.939  0.00  0.00    -0.001 A 
ATOM      8  C   UNL A   1      -8.016   1.573   8.288  0.00  0.00    +0.100 C 
ATOM      9  C   UNL A   1      -7.249   0.587   8.955  0.00  0.00    +0.035 C 
ATOM     10  C   UNL A   1      -7.493   0.368  10.284  0.00  0.00    +0.120 C 
ATOM     11  C   UNL A   1      -9.205   3.588   8.181  0.00  0.00    +0.311 C 
ATOM     12  O   UNL A   1      -9.536   3.517   7.050  0.00  0.00    -0.252 OA
ATOM     13  N   UNL A   1      -9.284   4.758   8.857  0.00  0.00    -0.264 N 
ATOM     14  C   UNL A   1      -8.710   5.153  10.004  0.00  0.00    +0.095 C 
ATOM     15  C   UNL A   1     -10.405   5.636   8.362  0.00  0.00    +0.095 C 
ATOM     16  C   UNL A   1      -9.025   6.290  10.616  0.00  0.00    +0.022 C 
ATOM     17  C   UNL A   1     -10.682   6.782   9.141  0.00  0.00    +0.022 C 
ATOM     18  C   UNL A   1      -9.977   7.146  10.192  0.00  0.00    +0.004 C 
ENDROOT
BRANCH  10  19
ATOM     19  C   UNL A   1      -6.791  -0.656  11.061  0.00  0.00    +0.401 C 
ATOM     20  F   UNL A   1      -6.321  -0.327  12.124  0.00  0.00    -0.170 F 
ATOM     21  F   UNL A   1      -5.637  -1.149  10.382  0.00  0.00    -0.170 F 
ATOM     22  F   UNL A   1      -7.508  -1.815  11.192  0.00  0.00    -0.170 F 
ENDBRANCH  10  19
TORSDOF 1
ENDMDL
ENDMDL
