MODEL 4664
MODEL 1
REMARK VINA RESULT:    -4.581      0.000      0.000
REMARK INTER + INTRA:          -4.581
REMARK INTER:                  -4.581
REMARK INTRA:                   0.000
REMARK UNBOUND:                 0.000
REMARK  Name = No_4664-gen_results/8p0m/2024-11-26-14-13-15/
REMARK  0 active torsions:
REMARK  status: ('A' for Active; 'I' for Inactive)
REMARK                            x       y       z     vdW  Elec       q    Type
REMARK                         _______ _______ _______ _____ _____    ______ ____
ROOT
ATOM      1  N   UNL A   1     -10.596  -9.345  18.766  0.00  0.00    -0.216 NA
ATOM      2  C   UNL A   1     -10.077  -9.961  18.019  0.00  0.00    +0.222 A 
ATOM      3  C   UNL A   1      -8.799 -10.383  18.135  0.00  0.00    +0.050 A 
ATOM      4  C   UNL A   1      -8.070 -10.105  19.349  0.00  0.00    +0.005 A 
ATOM      5  C   UNL A   1      -9.957  -8.991  20.010  0.00  0.00    +0.101 A 
ATOM      6  C   UNL A   1      -8.673  -9.372  20.293  0.00  0.00    +0.021 A 
ATOM      7  F   UNL A   1     -10.704 -10.196  16.881  0.00  0.00    -0.183 F 
ENDROOT
TORSDOF 0
ENDMDL
ENDMDL
