REMARK  Name = No_4664-gen_results/8p0m/2024-11-26-14-13-15/
REMARK  0 active torsions:
REMARK  status: ('A' for Active; 'I' for Inactive)
REMARK                            x       y       z     vdW  Elec       q    Type
REMARK                         _______ _______ _______ _____ _____    ______ ____
ROOT
ATOM      1  N   UNL A   1     -28.054  -1.050  28.725  0.00  0.00    -0.216 NA
ATOM      2  C   UNL A   1     -28.654  -0.567  29.508  0.00  0.00    +0.222 A 
ATOM      3  C   UNL A   1     -28.138   0.160  30.523  0.00  0.00    +0.050 A 
ATOM      4  C   UNL A   1     -26.719   0.420  30.556  0.00  0.00    +0.005 A 
ATOM      5  C   UNL A   1     -26.623  -0.874  28.671  0.00  0.00    +0.101 A 
ATOM      6  C   UNL A   1     -25.953  -0.135  29.609  0.00  0.00    +0.021 A 
ATOM      7  F   UNL A   1     -29.950  -0.821  29.527  0.00  0.00    -0.183 F 
ENDROOT
TORSDOF 0
