REMARK  Name = No_4665-gen_results/8p0m/2024-11-26-14-13-15/
REMARK  1 active torsions:
REMARK  status: ('A' for Active; 'I' for Inactive)
REMARK    1  A    between atoms: C_2  and  C_4
REMARK                            x       y       z     vdW  Elec       q    Type
REMARK                         _______ _______ _______ _____ _____    ______ ____
ROOT
ATOM      1  F   UNL A   1     -28.073  -1.254  28.532  0.00  0.00    -0.192 F 
ATOM      2  C   UNL A   1     -27.061  -0.629  28.872  0.00  0.00    +0.384 C 
ATOM      3  F   UNL A   1     -26.127  -1.078  29.200  0.00  0.00    -0.192 F 
ENDROOT
BRANCH   2   4
ATOM      4  C   UNL A   1     -27.109   0.836  28.640  0.00  0.00    +0.384 C 
ATOM      5  F   UNL A   1     -26.263   1.360  29.322  0.00  0.00    -0.192 F 
ATOM      6  F   UNL A   1     -28.293   1.313  29.000  0.00  0.00    -0.192 F 
ENDBRANCH   2   4
TORSDOF 1
