MODEL 4666
MODEL 1
REMARK VINA RESULT:    -6.420      0.000      0.000
REMARK INTER + INTRA:          -6.986
REMARK INTER:                  -6.795
REMARK INTRA:                  -0.191
REMARK UNBOUND:                -0.191
REMARK  Name = No_4666-gen_results/8p0m/2024-11-26-14-13-15/
REMARK  1 active torsions:
REMARK  status: ('A' for Active; 'I' for Inactive)
REMARK    1  A    between atoms: C_9  and  C_11
REMARK                            x       y       z     vdW  Elec       q    Type
REMARK                         _______ _______ _______ _____ _____    ______ ____
ROOT
ATOM      1  C   UNL A   1     -26.465  -3.406  29.954  0.00  0.00    -0.000 A 
ATOM      2  C   UNL A   1     -25.549  -2.621  29.875  0.00  0.00    -0.000 A 
ATOM      3  C   UNL A   1     -24.316  -3.005  29.358  0.00  0.00    -0.000 A 
ATOM      4  C   UNL A   1     -24.077  -4.363  28.944  0.00  0.00    -0.000 A 
ATOM      5  C   UNL A   1     -25.183  -5.211  29.092  0.00  0.00    -0.000 A 
ATOM      6  C   UNL A   1     -26.322  -4.802  29.602  0.00  0.00    -0.000 A 
ATOM      7  C   UNL A   1     -25.607  -1.190  30.280  0.00  0.00    -0.000 A 
ATOM      8  C   UNL A   1     -24.920  -0.267  29.705  0.00  0.00    +0.004 A 
ATOM      9  C   UNL A   1     -23.578  -0.659  29.099  0.00  0.00    +0.071 A 
ATOM     10  C   UNL A   1     -23.357  -2.002  28.821  0.00  0.00    +0.004 A 
ENDROOT
BRANCH   9  11
ATOM     11  C   UNL A   1     -22.605   0.356  28.717  0.00  0.00    +0.419 C 
ATOM     12  F   UNL A   1     -22.646   0.773  27.569  0.00  0.00    -0.166 F 
ATOM     13  F   UNL A   1     -22.748   1.488  29.592  0.00  0.00    -0.166 F 
ATOM     14  F   UNL A   1     -21.321  -0.049  29.053  0.00  0.00    -0.166 F 
ENDBRANCH   9  11
TORSDOF 1
ENDMDL
ENDMDL
