REMARK  Name = No_4667-gen_results/8p0m/2024-11-26-14-13-15/
REMARK  10 active torsions:
REMARK  status: ('A' for Active; 'I' for Inactive)
REMARK    1  A    between atoms: C_2  and  C_7
REMARK    2  A    between atoms: C_4  and  C_17
REMARK    3  A    between atoms: C_5  and  O_11
REMARK    4  A    between atoms: O_11  and  C_12
REMARK    5  A    between atoms: C_12  and  C_13
REMARK    6  A    between atoms: N_18  and  C_19
REMARK    7  A    between atoms: C_20  and  C_22
REMARK    8  A    between atoms: C_22  and  C_23
REMARK    9  A    between atoms: C_23  and  C_24
REMARK   10  A    between atoms: C_24  and  C_25
REMARK                            x       y       z     vdW  Elec       q    Type
REMARK                         _______ _______ _______ _____ _____    ______ ____
ROOT
ATOM      1  C   UNL A   1     -28.016  -0.814  28.878  0.00  0.00    +0.042 A 
ATOM      2  C   UNL A   1     -27.064  -0.119  28.608  0.00  0.00    +0.075 A 
ATOM      3  C   UNL A   1     -26.929   1.171  29.008  0.00  0.00    +0.009 A 
ATOM      4  C   UNL A   1     -27.956   1.741  29.784  0.00  0.00    +0.058 A 
ATOM      5  C   UNL A   1     -29.057  -0.327  29.747  0.00  0.00    +0.149 A 
ATOM      6  C   UNL A   1     -28.983   0.972  30.152  0.00  0.00    +0.042 A 
ENDROOT
BRANCH   2   7
ATOM      7  C   UNL A   1     -25.825  -0.433  27.754  0.00  0.00    +0.419 C 
ATOM      8  F   UNL A   1     -25.891  -0.149  26.696  0.00  0.00    -0.166 F 
ATOM      9  F   UNL A   1     -24.582  -0.058  28.283  0.00  0.00    -0.166 F 
ATOM     10  F   UNL A   1     -25.584  -1.881  27.940  0.00  0.00    -0.166 F 
ENDBRANCH   2   7
BRANCH   4  11
ATOM     11  C   UNL A   1     -27.793   3.175  30.184  0.00  0.00    +0.269 C 
ATOM     12  N   UNL A   1     -27.126   3.913  29.743  0.00  0.00    -0.174 NA
ATOM     13  O   UNL A   1     -28.828   3.552  30.941  0.00  0.00    -0.268 OA
BRANCH  12  14
ATOM     14  C   UNL A   1     -26.207   3.777  28.857  0.00  0.00    +0.084 C 
ATOM     15  C   UNL A   1     -25.223   4.915  28.483  0.00  0.00    -0.008 C 
BRANCH  15  16
ATOM     16  C   UNL A   1     -26.003   5.879  27.651  0.00  0.00    +0.028 C 
BRANCH  16  17
ATOM     17  C   UNL A   1     -26.293   7.020  28.212  0.00  0.00    +0.009 C 
BRANCH  17  18
ATOM     18  C   UNL A   1     -25.648   7.419  29.330  0.00  0.00    +0.026 C 
BRANCH  18  19
ATOM     19  C   UNL A   1     -25.547   8.782  29.719  0.00  0.00    -0.031 C 
ATOM     20  C   UNL A   1     -26.337   9.637  29.163  0.00  0.00    -0.030 C 
ATOM     21  C   UNL A   1     -26.364  10.983  29.647  0.00  0.00    +0.030 C 
ENDBRANCH  18  19
ENDBRANCH  17  18
ENDBRANCH  16  17
ENDBRANCH  15  16
ENDBRANCH  12  14
ENDBRANCH   4  11
BRANCH   5  22
ATOM     22  O   UNL A   1     -30.031  -1.182  30.114  0.00  0.00    -0.416 OA
BRANCH  22  23
ATOM     23  C   UNL A   1     -29.803  -2.307  30.672  0.00  0.00    +0.427 C 
ATOM     24  O   UNL A   1     -28.971  -2.425  31.654  0.00  0.00    -0.237 OA
BRANCH  23  25
ATOM     25  C   UNL A   1     -30.527  -3.440  30.118  0.00  0.00    +0.463 C 
ATOM     26  O   UNL A   1     -29.868  -4.546  30.103  0.00  0.00    -0.233 OA
ATOM     27  O   UNL A   1     -31.634  -3.374  29.652  0.00  0.00    -0.233 OA
ENDBRANCH  23  25
ENDBRANCH  22  23
ENDBRANCH   5  22
TORSDOF 10
