MODEL 4667
MODEL 1
REMARK VINA RESULT:    -5.413      0.000      0.000
REMARK INTER + INTRA:         -11.261
REMARK INTER:                  -8.577
REMARK INTRA:                  -2.683
REMARK UNBOUND:                -2.683
REMARK  Name = No_4667-gen_results/8p0m/2024-11-26-14-13-15/
REMARK  10 active torsions:
REMARK  status: ('A' for Active; 'I' for Inactive)
REMARK    1  A    between atoms: C_2  and  C_7
REMARK    2  A    between atoms: C_4  and  C_17
REMARK    3  A    between atoms: C_5  and  O_11
REMARK    4  A    between atoms: O_11  and  C_12
REMARK    5  A    between atoms: C_12  and  C_13
REMARK    6  A    between atoms: N_18  and  C_19
REMARK    7  A    between atoms: C_20  and  C_22
REMARK    8  A    between atoms: C_22  and  C_23
REMARK    9  A    between atoms: C_23  and  C_24
REMARK   10  A    between atoms: C_24  and  C_25
REMARK                            x       y       z     vdW  Elec       q    Type
REMARK                         _______ _______ _______ _____ _____    ______ ____
ROOT
ATOM      1  C   UNL A   1     -26.133   2.575  26.027  0.00  0.00    +0.042 A 
ATOM      2  C   UNL A   1     -25.582   1.537  25.741  0.00  0.00    +0.075 A 
ATOM      3  C   UNL A   1     -24.326   1.211  26.138  0.00  0.00    +0.009 A 
ATOM      4  C   UNL A   1     -23.615   2.132  26.930  0.00  0.00    +0.058 A 
ATOM      5  C   UNL A   1     -25.502   3.521  26.912  0.00  0.00    +0.149 A 
ATOM      6  C   UNL A   1     -24.228   3.254  27.315  0.00  0.00    +0.042 A 
ENDROOT
BRANCH   2   7
ATOM      7  C   UNL A   1     -26.070   0.370  24.868  0.00  0.00    +0.419 C 
ATOM      8  F   UNL A   1     -26.537  -0.465  25.405  0.00  0.00    -0.166 F 
ATOM      9  F   UNL A   1     -26.826   0.703  23.734  0.00  0.00    -0.166 F 
ATOM     10  F   UNL A   1     -24.887  -0.048  24.084  0.00  0.00    -0.166 F 
ENDBRANCH   2   7
BRANCH   4  11
ATOM     11  C   UNL A   1     -22.220   1.757  27.327  0.00  0.00    +0.269 C 
ATOM     12  N   UNL A   1     -21.909   1.219  28.220  0.00  0.00    -0.174 NA
ATOM     13  O   UNL A   1     -21.408   1.860  26.271  0.00  0.00    -0.268 OA
BRANCH  12  14
ATOM     14  C   UNL A   1     -22.586   0.853  29.247  0.00  0.00    +0.084 C 
ATOM     15  C   UNL A   1     -22.407  -0.531  29.924  0.00  0.00    -0.008 C 
BRANCH  15  16
ATOM     16  C   UNL A   1     -23.073  -1.520  29.024  0.00  0.00    +0.028 C 
BRANCH  16  17
ATOM     17  C   UNL A   1     -24.300  -1.840  29.329  0.00  0.00    +0.009 C 
BRANCH  17  18
ATOM     18  C   UNL A   1     -25.303  -1.634  28.448  0.00  0.00    +0.026 C 
BRANCH  18  19
ATOM     19  C   UNL A   1     -26.283  -0.619  28.616  0.00  0.00    -0.031 C 
ATOM     20  C   UNL A   1     -26.078   0.287  29.512  0.00  0.00    -0.030 C 
ATOM     21  C   UNL A   1     -26.968   1.404  29.594  0.00  0.00    +0.030 C 
ENDBRANCH  18  19
ENDBRANCH  17  18
ENDBRANCH  16  17
ENDBRANCH  15  16
ENDBRANCH  12  14
ENDBRANCH   4  11
BRANCH   5  22
ATOM     22  O   UNL A   1     -26.208   4.603  27.295  0.00  0.00    -0.416 OA
BRANCH  22  23
ATOM     23  C   UNL A   1     -25.713   5.554  27.987  0.00  0.00    +0.427 C 
ATOM     24  O   UNL A   1     -25.495   5.432  29.256  0.00  0.00    -0.237 OA
BRANCH  23  25
ATOM     25  C   UNL A   1     -25.431   6.780  27.258  0.00  0.00    +0.463 C 
ATOM     26  O   UNL A   1     -24.218   7.199  27.358  0.00  0.00    -0.233 OA
ATOM     27  O   UNL A   1     -26.253   7.407  26.645  0.00  0.00    -0.233 OA
ENDBRANCH  23  25
ENDBRANCH  22  23
ENDBRANCH   5  22
TORSDOF 10
ENDMDL
ENDMDL
