MODEL 4668
MODEL 1
REMARK VINA RESULT:    -7.404      0.000      0.000
REMARK INTER + INTRA:         -16.419
REMARK INTER:                 -11.300
REMARK INTRA:                  -5.119
REMARK UNBOUND:                -5.119
REMARK  Name = No_4668-gen_results/8p0m/2024-11-26-14-13-15/
REMARK  9 active torsions:
REMARK  status: ('A' for Active; 'I' for Inactive)
REMARK    1  A    between atoms: C_3  and  C_7
REMARK    2  A    between atoms: C_4  and  C_21
REMARK    3  A    between atoms: C_7  and  C_8
REMARK    4  A    between atoms: C_7  and  C_14
REMARK    5  A    between atoms: C_10  and  C_31
REMARK    6  A    between atoms: C_14  and  C_15
REMARK    7  A    between atoms: C_21  and  C_22
REMARK    8  A    between atoms: C_21  and  C_28
REMARK    9  A    between atoms: C_32  and  C_33
REMARK                            x       y       z     vdW  Elec       q    Type
REMARK                         _______ _______ _______ _____ _____    ______ ____
ROOT
ATOM      1  C   UNL A   1     -25.302   0.983  26.274  0.00  0.00    +0.049 C 
ENDROOT
BRANCH   1   4
ATOM      2  C   UNL A   1     -24.254   3.273  25.722  0.00  0.00    -0.004 A 
ATOM      3  C   UNL A   1     -24.244   4.287  26.009  0.00  0.00    -0.000 A 
ATOM      4  C   UNL A   1     -25.124   2.438  26.550  0.00  0.00    -0.021 A 
ATOM      5  C   UNL A   1     -25.863   2.955  27.585  0.00  0.00    -0.011 A 
ATOM      6  C   UNL A   1     -24.908   5.098  27.030  0.00  0.00    -0.000 A 
ATOM      7  C   UNL A   1     -25.752   4.298  27.837  0.00  0.00    -0.004 A 
BRANCH   5   8
ATOM      8  C   UNL A   1     -26.704   2.159  28.480  0.00  0.00    +0.147 C 
BRANCH   8   9
ATOM      9  C   UNL A   1     -26.410   1.634  29.543  0.00  0.00    -0.008 A 
ATOM     10  C   UNL A   1     -25.251   2.002  30.283  0.00  0.00    -0.003 A 
ATOM     11  C   UNL A   1     -27.208   0.556  30.126  0.00  0.00    -0.003 A 
ATOM     12  C   UNL A   1     -26.794  -0.216  31.264  0.00  0.00    -0.000 A 
ATOM     13  C   UNL A   1     -24.869   1.228  31.486  0.00  0.00    -0.000 A 
ATOM     14  C   UNL A   1     -25.644   0.210  31.908  0.00  0.00    -0.000 A 
ENDBRANCH   8   9
BRANCH   8  15
ATOM     15  C   UNL A   1     -28.158   2.103  28.028  0.00  0.00    +0.372 C 
ATOM     16  O   UNL A   1     -28.648   1.391  27.345  0.00  0.00    -0.245 OA
ATOM     17  O   UNL A   1     -28.960   3.187  28.480  0.00  0.00    -0.245 OA
ENDBRANCH   8  15
ENDBRANCH   5   8
ENDBRANCH   1   4
BRANCH   1  18
ATOM     18  C   UNL A   1     -24.688   0.152  27.024  0.00  0.00    -0.018 A 
ATOM     19  C   UNL A   1     -25.315  -0.979  27.591  0.00  0.00    -0.004 A 
ATOM     20  C   UNL A   1     -24.511  -1.744  28.550  0.00  0.00    -0.004 A 
ATOM     21  C   UNL A   1     -23.274  -1.230  28.929  0.00  0.00    -0.000 A 
ATOM     22  C   UNL A   1     -22.802  -0.057  28.488  0.00  0.00    -0.000 A 
ATOM     23  C   UNL A   1     -23.426   0.688  27.545  0.00  0.00    -0.004 A 
BRANCH  20  24
ATOM     24  C   UNL A   1     -24.955  -3.068  29.009  0.00  0.00    -0.022 C 
ATOM     25  C   UNL A   1     -26.145  -3.278  29.505  0.00  0.00    -0.004 C 
ATOM     26  C   UNL A   1     -24.115  -4.140  28.814  0.00  0.00    +0.031 C 
BRANCH  25  27
ATOM     27  C   UNL A   1     -26.578  -4.573  29.952  0.00  0.00    -0.000 C 
ATOM     28  C   UNL A   1     -27.933  -4.699  30.328  0.00  0.00    -0.000 C 
ENDBRANCH  25  27
ENDBRANCH  20  24
ENDBRANCH   1  18
BRANCH   1  29
ATOM     29  C   UNL A   1     -25.468   0.792  24.786  0.00  0.00    +0.035 C 
BRANCH  29  30
ATOM     30  C   UNL A   1     -27.014   0.862  24.442  0.00  0.00    -0.021 A 
ATOM     31  C   UNL A   1     -27.598   2.010  24.051  0.00  0.00    -0.004 A 
ATOM     32  C   UNL A   1     -28.969   2.031  23.883  0.00  0.00    -0.000 A 
ATOM     33  C   UNL A   1     -27.735  -0.361  24.305  0.00  0.00    -0.004 A 
ATOM     34  C   UNL A   1     -29.098  -0.334  24.051  0.00  0.00    -0.000 A 
ATOM     35  C   UNL A   1     -29.718   0.900  23.751  0.00  0.00    -0.000 A 
ENDBRANCH  29  30
ENDBRANCH   1  29
TORSDOF 9
ENDMDL
ENDMDL
