REMARK  Name = No_4668-gen_results/8p0m/2024-11-26-14-13-15/
REMARK  9 active torsions:
REMARK  status: ('A' for Active; 'I' for Inactive)
REMARK    1  A    between atoms: C_3  and  C_7
REMARK    2  A    between atoms: C_4  and  C_21
REMARK    3  A    between atoms: C_7  and  C_8
REMARK    4  A    between atoms: C_7  and  C_14
REMARK    5  A    between atoms: C_10  and  C_31
REMARK    6  A    between atoms: C_14  and  C_15
REMARK    7  A    between atoms: C_21  and  C_22
REMARK    8  A    between atoms: C_21  and  C_28
REMARK    9  A    between atoms: C_32  and  C_33
REMARK                            x       y       z     vdW  Elec       q    Type
REMARK                         _______ _______ _______ _____ _____    ______ ____
ROOT
ATOM      1  C   UNL A   1     -26.317   0.399  27.365  0.00  0.00    +0.049 C 
ENDROOT
BRANCH   1   4
ATOM      2  C   UNL A   1     -28.016  -0.814  28.878  0.00  0.00    -0.004 A 
ATOM      3  C   UNL A   1     -28.469  -0.785  29.829  0.00  0.00    -0.000 A 
ATOM      4  C   UNL A   1     -27.087   0.290  28.638  0.00  0.00    -0.021 A 
ATOM      5  C   UNL A   1     -26.832   1.249  29.587  0.00  0.00    -0.011 A 
ATOM      6  C   UNL A   1     -28.391   0.080  31.006  0.00  0.00    -0.000 A 
ATOM      7  C   UNL A   1     -27.494   1.152  30.784  0.00  0.00    -0.004 A 
BRANCH   5   8
ATOM      8  C   UNL A   1     -25.958   2.405  29.381  0.00  0.00    +0.147 C 
BRANCH   8   9
ATOM      9  C   UNL A   1     -26.067   3.315  28.574  0.00  0.00    -0.008 A 
ATOM     10  C   UNL A   1     -27.119   4.272  28.639  0.00  0.00    -0.003 A 
ATOM     11  C   UNL A   1     -25.145   3.474  27.451  0.00  0.00    -0.003 A 
ATOM     12  C   UNL A   1     -25.351   4.405  26.376  0.00  0.00    -0.000 A 
ATOM     13  C   UNL A   1     -27.284   5.260  27.548  0.00  0.00    -0.000 A 
ATOM     14  C   UNL A   1     -26.410   5.285  26.523  0.00  0.00    -0.000 A 
ENDBRANCH   8   9
BRANCH   8  15
ATOM     15  C   UNL A   1     -24.840   2.489  30.413  0.00  0.00    +0.372 C 
ATOM     16  O   UNL A   1     -23.857   2.980  30.336  0.00  0.00    -0.245 OA
ATOM     17  O   UNL A   1     -25.072   1.739  31.599  0.00  0.00    -0.245 OA
ENDBRANCH   8  15
ENDBRANCH   5   8
ENDBRANCH   1   4
BRANCH   1  18
ATOM     18  C   UNL A   1     -26.881   0.971  26.372  0.00  0.00    -0.018 A 
ATOM     19  C   UNL A   1     -28.203   1.464  26.421  0.00  0.00    -0.004 A 
ATOM     20  C   UNL A   1     -28.751   1.953  25.151  0.00  0.00    -0.004 A 
ATOM     21  C   UNL A   1     -27.999   1.766  23.994  0.00  0.00    -0.000 A 
ATOM     22  C   UNL A   1     -26.820   1.131  23.982  0.00  0.00    -0.000 A 
ATOM     23  C   UNL A   1     -26.190   0.712  25.105  0.00  0.00    -0.004 A 
BRANCH  20  24
ATOM     24  C   UNL A   1     -30.008   2.716  25.124  0.00  0.00    -0.022 C 
ATOM     25  C   UNL A   1     -30.318   3.592  26.041  0.00  0.00    -0.004 C 
ATOM     26  C   UNL A   1     -30.837   2.566  24.036  0.00  0.00    +0.031 C 
BRANCH  25  27
ATOM     27  C   UNL A   1     -31.546   4.338  26.013  0.00  0.00    -0.000 C 
ATOM     28  C   UNL A   1     -32.395   4.131  24.905  0.00  0.00    -0.000 C 
ENDBRANCH  25  27
ENDBRANCH  20  24
ENDBRANCH   1  18
BRANCH   1  29
ATOM     29  C   UNL A   1     -25.434  -0.817  27.231  0.00  0.00    +0.035 C 
BRANCH  29  30
ATOM     30  C   UNL A   1     -24.273  -0.714  28.305  0.00  0.00    -0.021 A 
ATOM     31  C   UNL A   1     -23.462   0.358  28.367  0.00  0.00    -0.004 A 
ATOM     32  C   UNL A   1     -22.396   0.332  29.245  0.00  0.00    -0.000 A 
ATOM     33  C   UNL A   1     -24.253  -1.658  29.375  0.00  0.00    -0.004 A 
ATOM     34  C   UNL A   1     -23.224  -1.625  30.304  0.00  0.00    -0.000 A 
ATOM     35  C   UNL A   1     -22.312  -0.546  30.284  0.00  0.00    -0.000 A 
ENDBRANCH  29  30
ENDBRANCH   1  29
TORSDOF 9
