MODEL 4669
MODEL 1
REMARK VINA RESULT:    -4.813      0.000      0.000
REMARK INTER + INTRA:          -5.616
REMARK INTER:                  -5.376
REMARK INTRA:                  -0.240
REMARK UNBOUND:                -0.240
REMARK  Name = No_4669-gen_results/8p0m/2024-11-26-14-13-15/
REMARK  2 active torsions:
REMARK  status: ('A' for Active; 'I' for Inactive)
REMARK    1  A    between atoms: C_3  and  C_7
REMARK    2  A    between atoms: C_7  and  C_8
REMARK                            x       y       z     vdW  Elec       q    Type
REMARK                         _______ _______ _______ _____ _____    ______ ____
ROOT
ATOM      1  C   UNL A   1     -26.018  -3.036  29.635  0.00  0.00    -0.004 A 
ATOM      2  C   UNL A   1     -26.226  -4.066  29.719  0.00  0.00    -0.000 A 
ATOM      3  C   UNL A   1     -24.799  -2.657  29.031  0.00  0.00    -0.018 A 
ATOM      4  C   UNL A   1     -23.891  -3.590  28.570  0.00  0.00    -0.004 A 
ATOM      5  C   UNL A   1     -25.442  -5.249  29.313  0.00  0.00    -0.000 A 
ATOM      6  C   UNL A   1     -24.265  -4.930  28.730  0.00  0.00    -0.000 A 
ENDROOT
BRANCH   3   7
ATOM      7  C   UNL A   1     -24.399  -1.225  28.818  0.00  0.00    +0.052 C 
BRANCH   7   8
ATOM      8  C   UNL A   1     -23.038  -0.903  29.000  0.00  0.00    -0.021 C 
ATOM      9  C   UNL A   1     -22.562  -0.483  30.227  0.00  0.00    -0.005 C 
ENDBRANCH   7   8
ENDBRANCH   3   7
TORSDOF 2
ENDMDL
ENDMDL
