MODEL 466
MODEL 1
REMARK VINA RESULT:    -6.119      0.000      0.000
REMARK INTER + INTRA:          -7.918
REMARK INTER:                  -7.907
REMARK INTRA:                  -0.011
REMARK UNBOUND:                -0.011
REMARK  Name = No_466-gen_results/8p0m/2024-11-26-14-13-15/
REMARK  5 active torsions:
REMARK  status: ('A' for Active; 'I' for Inactive)
REMARK    1  A    between atoms: C_3  and  P_16
REMARK    2  A    between atoms: C_4  and  C_8
REMARK    3  A    between atoms: C_8  and  C_9
REMARK    4  A    between atoms: C_9  and  C_10
REMARK    5  A    between atoms: C_10  and  N_11
REMARK                            x       y       z     vdW  Elec       q    Type
REMARK                         _______ _______ _______ _____ _____    ______ ____
ROOT
ATOM      1  C   UNL A   1     -26.086  -4.373  29.560  0.00  0.00    +0.033 A 
ATOM      2  C   UNL A   1     -25.164  -4.662  29.139  0.00  0.00    +0.140 A 
ATOM      3  C   UNL A   1     -26.186  -2.920  29.968  0.00  0.00    +0.038 A 
ATOM      4  C   UNL A   1     -25.220  -2.206  29.854  0.00  0.00    -0.018 A 
ATOM      5  C   UNL A   1     -23.910  -3.969  28.833  0.00  0.00    +0.029 A 
ATOM      6  C   UNL A   1     -23.980  -2.649  29.253  0.00  0.00    -0.002 A 
ATOM      7  F   UNL A   1     -25.062  -6.045  28.692  0.00  0.00    -0.204 F 
ENDROOT
BRANCH   3   8
ATOM      8  P   UNL A   1     -27.698  -2.317  30.800  0.00  0.00    +0.194 P 
ATOM      9  O   UNL A   1     -27.503  -1.441  31.931  0.00  0.00    -0.443 OA
ATOM     10  O   UNL A   1     -28.373  -1.566  29.662  0.00  0.00    -0.346 OA
ATOM     11  O   UNL A   1     -28.445  -3.597  31.017  0.00  0.00    -0.443 OA
ENDBRANCH   3   8
BRANCH   4  12
ATOM     12  C   UNL A   1     -25.233  -0.735  30.270  0.00  0.00    +0.028 C 
BRANCH  12  13
ATOM     13  C   UNL A   1     -23.903  -0.210  30.776  0.00  0.00    +0.028 C 
BRANCH  13  14
ATOM     14  C   UNL A   1     -23.302   0.797  30.422  0.00  0.00    +0.117 C 
BRANCH  14  15
ATOM     15  N   UNL A   1     -23.406   1.448  29.604  0.00  0.00    -0.187 NA
ATOM     16  C   UNL A   1     -23.011   1.353  28.371  0.00  0.00    +0.339 C 
ATOM     17  O   UNL A   1     -22.223   0.483  28.144  0.00  0.00    -0.249 OA
ATOM     18  N   UNL A   1     -23.232   2.371  27.491  0.00  0.00    -0.185 NA
ATOM     19  C   UNL A   1     -22.761   2.250  26.096  0.00  0.00    +0.140 C 
ENDBRANCH  14  15
ENDBRANCH  13  14
ENDBRANCH  12  13
ENDBRANCH   4  12
TORSDOF 5
ENDMDL
ENDMDL
