REMARK  Name = No_4670-gen_results/8p0m/2024-11-26-14-13-15/
REMARK  2 active torsions:
REMARK  status: ('A' for Active; 'I' for Inactive)
REMARK    1  A    between atoms: C_2  and  C_4
REMARK    2  A    between atoms: C_4  and  C_6
REMARK                            x       y       z     vdW  Elec       q    Type
REMARK                         _______ _______ _______ _____ _____    ______ ____
ROOT
ATOM      1  C   UNL A   1     -30.085   1.127  31.353  0.00  0.00    -0.004 A 
ATOM      2  C   UNL A   1     -30.232   0.742  32.556  0.00  0.00    -0.003 A 
ATOM      3  C   UNL A   1     -30.440   1.726  33.603  0.00  0.00    -0.000 A 
ATOM      4  C   UNL A   1     -30.404   3.086  33.225  0.00  0.00    -0.000 A 
ATOM      5  C   UNL A   1     -30.178   3.413  31.903  0.00  0.00    -0.000 A 
ATOM      6  C   UNL A   1     -29.944   2.454  30.907  0.00  0.00    -0.003 A 
ENDROOT
BRANCH   1   7
ATOM      7  C   UNL A   1     -29.867   0.115  30.229  0.00  0.00    +0.150 C 
ATOM      8 CL   UNL A   1     -30.989  -0.715  30.013  0.00  0.00    -0.106 Cl
BRANCH   7  10
ATOM      9 CL   UNL A   1     -28.149  -0.820  28.908  0.00  0.00    -0.075 Cl
ATOM     10  C   UNL A   1     -28.532  -0.047  29.773  0.00  0.00    +0.258 C 
ATOM     11  F   UNL A   1     -27.651   0.717  30.309  0.00  0.00    -0.218 F 
ENDBRANCH   7  10
ENDBRANCH   1   7
TORSDOF 2
