MODEL 4670
MODEL 1
REMARK VINA RESULT:    -5.419      0.000      0.000
REMARK INTER + INTRA:          -6.402
REMARK INTER:                  -6.053
REMARK INTRA:                  -0.349
REMARK UNBOUND:                -0.349
REMARK  Name = No_4670-gen_results/8p0m/2024-11-26-14-13-15/
REMARK  2 active torsions:
REMARK  status: ('A' for Active; 'I' for Inactive)
REMARK    1  A    between atoms: C_2  and  C_4
REMARK    2  A    between atoms: C_4  and  C_6
REMARK                            x       y       z     vdW  Elec       q    Type
REMARK                         _______ _______ _______ _____ _____    ______ ____
ROOT
ATOM      1  C   UNL A   1     -24.536  -2.630  28.990  0.00  0.00    -0.004 A 
ATOM      2  C   UNL A   1     -23.837  -3.646  28.680  0.00  0.00    -0.003 A 
ATOM      3  C   UNL A   1     -24.392  -4.977  28.849  0.00  0.00    -0.000 A 
ATOM      4  C   UNL A   1     -25.680  -5.070  29.418  0.00  0.00    -0.000 A 
ATOM      5  C   UNL A   1     -26.343  -3.914  29.781  0.00  0.00    -0.000 A 
ATOM      6  C   UNL A   1     -25.782  -2.636  29.645  0.00  0.00    -0.003 A 
ENDROOT
BRANCH   1   7
ATOM      7  C   UNL A   1     -23.981  -1.217  28.822  0.00  0.00    +0.150 C 
ATOM      8 CL   UNL A   1     -24.601  -0.505  27.771  0.00  0.00    -0.106 Cl
BRANCH   7  10
ATOM      9 CL   UNL A   1     -22.672  -0.579  30.680  0.00  0.00    -0.075 Cl
ATOM     10  C   UNL A   1     -22.775  -0.924  29.512  0.00  0.00    +0.258 C 
ATOM     11  F   UNL A   1     -21.688  -1.064  28.844  0.00  0.00    -0.218 F 
ENDBRANCH   7  10
ENDBRANCH   1   7
TORSDOF 2
ENDMDL
ENDMDL
