MODEL 4671
MODEL 1
REMARK VINA RESULT:    -7.093      0.000      0.000
REMARK INTER + INTRA:          -7.611
REMARK INTER:                  -7.508
REMARK INTRA:                  -0.103
REMARK UNBOUND:                -0.103
REMARK  Name = No_4671-gen_results/8p0m/2024-11-26-14-13-15/
REMARK  1 active torsions:
REMARK  status: ('A' for Active; 'I' for Inactive)
REMARK    1  A    between atoms: C_5  and  C_15
REMARK                            x       y       z     vdW  Elec       q    Type
REMARK                         _______ _______ _______ _____ _____    ______ ____
ROOT
ATOM      1  C   UNL A   1     -24.973  -1.700  28.278  0.00  0.00    +0.016 C 
ATOM      2  C   UNL A   1     -24.734  -0.543  28.538  0.00  0.00    +0.023 C 
ATOM      3  C   UNL A   1     -24.303  -0.166  29.805  0.00  0.00    -0.049 C 
ATOM      4  C   UNL A   1     -24.924   0.206  30.682  0.00  0.00    -0.035 C 
ATOM      5  C   UNL A   1     -25.296  -2.589  29.450  0.00  0.00    +0.104 C 
ATOM      6  C   UNL A   1     -25.633  -2.244  30.804  0.00  0.00    +0.016 C 
ATOM      7  C   UNL A   1     -25.183  -1.111  31.462  0.00  0.00    +0.026 C 
ATOM      8  C   UNL A   1     -23.947   0.226  27.429  0.00  0.00    +0.029 C 
ATOM      9  C   UNL A   1     -24.429   0.280  26.219  0.00  0.00    -0.030 C 
ATOM     10  C   UNL A   1     -22.726   0.959  27.710  0.00  0.00    +0.026 C 
ATOM     11  C   UNL A   1     -22.676   2.200  27.719  0.00  0.00    -0.030 C 
ATOM     12  C   UNL A   1     -24.185   1.519  25.515  0.00  0.00    -0.026 C 
ATOM     13  C   UNL A   1     -23.415   2.958  26.873  0.00  0.00    -0.026 C 
ATOM     14  C   UNL A   1     -23.923   2.720  25.739  0.00  0.00    +0.051 C 
ATOM     15  C   UNL A   1     -22.829  -0.114  30.109  0.00  0.00    +0.022 C 
ATOM     16  C   UNL A   1     -21.814   0.088  28.507  0.00  0.00    +0.009 C 
ENDROOT
BRANCH   5  17
ATOM     17  C   UNL A   1     -25.150  -4.069  29.216  0.00  0.00    +0.364 C 
ATOM     18  O   UNL A   1     -24.127  -4.532  28.574  0.00  0.00    -0.246 OA
ATOM     19  O   UNL A   1     -25.980  -4.883  29.619  0.00  0.00    -0.246 OA
ENDBRANCH   5  17
TORSDOF 1
ENDMDL
ENDMDL
