REMARK  Name = No_4671-gen_results/8p0m/2024-11-26-14-13-15/
REMARK  1 active torsions:
REMARK  status: ('A' for Active; 'I' for Inactive)
REMARK    1  A    between atoms: C_5  and  C_15
REMARK                            x       y       z     vdW  Elec       q    Type
REMARK                         _______ _______ _______ _____ _____    ______ ____
ROOT
ATOM      1  C   UNL A   1     -28.016  -0.814  28.878  0.00  0.00    +0.016 C 
ATOM      2  C   UNL A   1     -27.064  -0.119  28.608  0.00  0.00    +0.023 C 
ATOM      3  C   UNL A   1     -25.792  -0.430  29.076  0.00  0.00    -0.049 C 
ATOM      4  C   UNL A   1     -25.270  -0.049  30.012  0.00  0.00    -0.035 C 
ATOM      5  C   UNL A   1     -27.885  -1.668  30.112  0.00  0.00    +0.104 C 
ATOM      6  C   UNL A   1     -26.925  -1.604  31.180  0.00  0.00    +0.016 C 
ATOM      7  C   UNL A   1     -25.620  -1.159  31.039  0.00  0.00    +0.026 C 
ATOM      8  C   UNL A   1     -27.009   0.366  27.124  0.00  0.00    +0.029 C 
ATOM      9  C   UNL A   1     -28.017   1.025  26.626  0.00  0.00    -0.030 C 
ATOM     10  C   UNL A   1     -25.836   0.180  26.289  0.00  0.00    +0.026 C 
ATOM     11  C   UNL A   1     -25.092   1.118  25.960  0.00  0.00    -0.030 C 
ATOM     12  C   UNL A   1     -27.667   2.061  25.680  0.00  0.00    -0.026 C 
ATOM     13  C   UNL A   1     -25.566   2.364  25.717  0.00  0.00    -0.026 C 
ATOM     14  C   UNL A   1     -26.704   2.788  25.359  0.00  0.00    +0.051 C 
ATOM     15  C   UNL A   1     -24.880  -1.294  28.246  0.00  0.00    +0.022 C 
ATOM     16  C   UNL A   1     -25.381  -1.236  26.407  0.00  0.00    +0.009 C 
ENDROOT
BRANCH   5  17
ATOM     17  C   UNL A   1     -28.829  -2.836  30.210  0.00  0.00    +0.364 C 
ATOM     18  O   UNL A   1     -28.374  -4.047  30.210  0.00  0.00    -0.246 OA
ATOM     19  O   UNL A   1     -30.048  -2.691  30.295  0.00  0.00    -0.246 OA
ENDBRANCH   5  17
TORSDOF 1
