REMARK  Name = No_4672-gen_results/8p0m/2024-11-26-14-13-15/
REMARK  1 active torsions:
REMARK  status: ('A' for Active; 'I' for Inactive)
REMARK    1  A    between atoms: C_6  and  C_13
REMARK                            x       y       z     vdW  Elec       q    Type
REMARK                         _______ _______ _______ _____ _____    ______ ____
ROOT
ATOM      1  C   UNL A   1     -28.016  -0.814  28.878  0.00  0.00    +0.019 C 
ATOM      2  C   UNL A   1     -27.064  -0.119  28.608  0.00  0.00    +0.062 C 
ATOM      3  C   UNL A   1     -25.792  -0.430  29.076  0.00  0.00    +0.029 C 
ATOM      4  C   UNL A   1     -24.546   0.349  28.823  0.00  0.00    -0.023 A 
ATOM      5  C   UNL A   1     -23.241   0.022  29.332  0.00  0.00    -0.004 A 
ATOM      6  C   UNL A   1     -27.882  -1.899  29.863  0.00  0.00    +0.104 C 
ATOM      7  C   UNL A   1     -26.671  -2.327  30.321  0.00  0.00    +0.012 C 
ATOM      8  C   UNL A   1     -25.543  -1.585  29.932  0.00  0.00    +0.005 C 
ATOM      9  C   UNL A   1     -22.192   0.830  29.000  0.00  0.00    +0.003 A 
ATOM     10  C   UNL A   1     -22.147   1.778  28.029  0.00  0.00    +0.037 A 
ATOM     11  C   UNL A   1     -24.532   1.399  27.816  0.00  0.00    +0.015 A 
ATOM     12  C   UNL A   1     -23.362   2.069  27.461  0.00  0.00    +0.135 A 
ATOM     13  O   UNL A   1     -23.487   3.021  26.499  0.00  0.00    -0.476 OA
ATOM     14  C   UNL A   1     -24.795   3.375  26.136  0.00  0.00    +0.206 C 
ATOM     15  C   UNL A   1     -27.193   1.040  27.657  0.00  0.00    +0.154 C 
ATOM     16  C   UNL A   1     -25.901   1.746  27.295  0.00  0.00    +0.086 C 
ATOM     17  C   UNL A   1     -26.008   3.049  26.997  0.00  0.00    +0.059 C 
ATOM     18  O   UNL A   1     -28.204   1.286  27.102  0.00  0.00    -0.296 OA
ENDROOT
BRANCH   6  19
ATOM     19  C   UNL A   1     -29.068  -2.720  30.298  0.00  0.00    +0.364 C 
ATOM     20  O   UNL A   1     -30.123  -2.345  30.150  0.00  0.00    -0.246 OA
ATOM     21  O   UNL A   1     -28.768  -3.990  30.653  0.00  0.00    -0.246 OA
ENDBRANCH   6  19
TORSDOF 1
