REMARK  Name = No_4673-gen_results/8p0m/2024-11-26-14-13-15/
REMARK  5 active torsions:
REMARK  status: ('A' for Active; 'I' for Inactive)
REMARK    1  A    between atoms: C_5  and  C_17
REMARK    2  A    between atoms: N_14  and  C_15
REMARK    3  A    between atoms: C_15  and  C_20
REMARK    4  A    between atoms: C_20  and  C_21
REMARK    5  A    between atoms: C_22  and  C_26
REMARK                            x       y       z     vdW  Elec       q    Type
REMARK                         _______ _______ _______ _____ _____    ______ ____
ROOT
ATOM      1  C   UNL A   1     -28.016  -0.814  28.878  0.00  0.00    +0.018 A 
ATOM      2  C   UNL A   1     -27.064  -0.119  28.608  0.00  0.00    +0.063 A 
ATOM      3  C   UNL A   1     -26.972   0.714  27.506  0.00  0.00    +0.055 A 
ATOM      4  C   UNL A   1     -28.105   0.774  26.642  0.00  0.00    +0.011 A 
ATOM      5  C   UNL A   1     -29.204   0.118  27.048  0.00  0.00    +0.080 A 
ATOM      6  C   UNL A   1     -29.213  -0.609  28.128  0.00  0.00    +0.008 A 
ATOM      7  C   UNL A   1     -25.711   1.452  27.138  0.00  0.00    +0.198 A 
ATOM      8  C   UNL A   1     -24.605   0.925  27.690  0.00  0.00    +0.055 A 
ATOM      9  C   UNL A   1     -23.338   1.651  27.549  0.00  0.00    +0.005 A 
ATOM     10  C   UNL A   1     -22.176   1.228  28.287  0.00  0.00    +0.000 A 
ATOM     11  C   UNL A   1     -22.181   0.085  29.026  0.00  0.00    +0.002 A 
ATOM     12  C   UNL A   1     -23.361  -0.693  29.101  0.00  0.00    +0.017 A 
ATOM     13  C   UNL A   1     -24.531  -0.241  28.487  0.00  0.00    +0.063 A 
ATOM     14  N   UNL A   1     -25.768  -0.594  29.107  0.00  0.00    -0.327 N 
ATOM     15  O   UNL A   1     -25.747   2.361  26.287  0.00  0.00    -0.286 OA
ENDROOT
BRANCH   5  16
ATOM     16  C   UNL A   1     -30.430   0.320  26.259  0.00  0.00    +0.388 C 
ATOM     17  O   UNL A   1     -31.136  -0.622  25.963  0.00  0.00    -0.241 OA
ATOM     18  O   UNL A   1     -30.936   1.506  26.099  0.00  0.00    -0.241 OA
ENDBRANCH   5  16
BRANCH  14  19
ATOM     19  C   UNL A   1     -25.742  -1.560  30.161  0.00  0.00    +0.112 C 
BRANCH  19  20
ATOM     20  C   UNL A   1     -25.235  -2.744  29.750  0.00  0.00    +0.067 C 
BRANCH  20  21
ATOM     21  C   UNL A   1     -25.848  -3.521  28.729  0.00  0.00    +0.044 C 
ATOM     22  C   UNL A   1     -25.206  -4.806  28.654  0.00  0.00    +0.033 C 
ATOM     23  C   UNL A   1     -25.743  -5.660  29.019  0.00  0.00    +0.054 C 
ATOM     24  C   UNL A   1     -26.947  -5.366  29.773  0.00  0.00    +0.117 C 
ATOM     25  N   UNL A   1     -27.044  -3.713  29.041  0.00  0.00    -0.242 NA
BRANCH  22  26
ATOM     26  C   UNL A   1     -23.698  -4.723  28.321  0.00  0.00    +0.231 C 
ATOM     27  O   UNL A   1     -23.000  -3.724  28.724  0.00  0.00    -0.283 OA
ENDBRANCH  22  26
ENDBRANCH  20  21
ENDBRANCH  19  20
ENDBRANCH  14  19
TORSDOF 5
