REMARK  Name = No_4674-gen_results/8p0m/2024-11-26-14-13-15/
REMARK  4 active torsions:
REMARK  status: ('A' for Active; 'I' for Inactive)
REMARK    1  A    between atoms: C_3  and  C_7
REMARK    2  A    between atoms: C_7  and  C_8
REMARK    3  A    between atoms: C_7  and  C_14
REMARK    4  A    between atoms: C_14  and  C_15
REMARK                            x       y       z     vdW  Elec       q    Type
REMARK                         _______ _______ _______ _____ _____    ______ ____
ROOT
ATOM      1  C   UNL A   1     -26.311   0.392  27.364  0.00  0.00    +0.049 C 
ENDROOT
BRANCH   1   2
ATOM      2  C   UNL A   1     -24.969   0.248  27.481  0.00  0.00    -0.018 A 
ATOM      3  C   UNL A   1     -24.249  -0.047  28.652  0.00  0.00    -0.001 A 
ATOM      4  C   UNL A   1     -22.834   0.127  28.660  0.00  0.00    +0.042 A 
ATOM      5  C   UNL A   1     -22.222   1.029  27.753  0.00  0.00    +0.196 A 
ATOM      6  C   UNL A   1     -22.975   1.528  26.670  0.00  0.00    +0.042 A 
ATOM      7  C   UNL A   1     -24.361   1.291  26.653  0.00  0.00    -0.001 A 
ATOM      8  O   UNL A   1     -20.935   1.346  27.883  0.00  0.00    -0.287 OA
ENDBRANCH   1   2
BRANCH   1  11
ATOM      9  C   UNL A   1     -28.016  -0.814  28.878  0.00  0.00    -0.004 A 
ATOM     10  C   UNL A   1     -28.469  -0.785  29.829  0.00  0.00    -0.000 A 
ATOM     11  C   UNL A   1     -27.087   0.290  28.638  0.00  0.00    -0.018 A 
ATOM     12  C   UNL A   1     -26.832   1.249  29.587  0.00  0.00    -0.004 A 
ATOM     13  C   UNL A   1     -28.391   0.080  31.006  0.00  0.00    -0.000 A 
ATOM     14  C   UNL A   1     -27.494   1.152  30.784  0.00  0.00    -0.000 A 
ENDBRANCH   1  11
BRANCH   1  15
ATOM     15  C   UNL A   1     -26.962   0.198  26.171  0.00  0.00    +0.035 C 
BRANCH  15  16
ATOM     16  C   UNL A   1     -27.763   1.012  25.616  0.00  0.00    -0.021 A 
ATOM     17  C   UNL A   1     -28.390   0.806  24.362  0.00  0.00    -0.004 A 
ATOM     18  C   UNL A   1     -29.555   1.548  24.011  0.00  0.00    -0.000 A 
ATOM     19  C   UNL A   1     -29.962   2.641  24.828  0.00  0.00    -0.000 A 
ATOM     20  C   UNL A   1     -29.299   2.998  25.980  0.00  0.00    -0.000 A 
ATOM     21  C   UNL A   1     -28.326   2.153  26.463  0.00  0.00    -0.004 A 
ENDBRANCH  15  16
ENDBRANCH   1  15
TORSDOF 4
