MODEL 4674
MODEL 1
REMARK VINA RESULT:    -8.076      0.000      0.000
REMARK INTER + INTRA:         -11.848
REMARK INTER:                  -9.964
REMARK INTRA:                  -1.884
REMARK UNBOUND:                -1.884
REMARK  Name = No_4674-gen_results/8p0m/2024-11-26-14-13-15/
REMARK  4 active torsions:
REMARK  status: ('A' for Active; 'I' for Inactive)
REMARK    1  A    between atoms: C_3  and  C_7
REMARK    2  A    between atoms: C_7  and  C_8
REMARK    3  A    between atoms: C_7  and  C_14
REMARK    4  A    between atoms: C_14  and  C_15
REMARK                            x       y       z     vdW  Elec       q    Type
REMARK                         _______ _______ _______ _____ _____    ______ ____
ROOT
ATOM      1  C   UNL A   1     -23.852  -0.745  29.637  0.00  0.00    +0.049 C 
ENDROOT
BRANCH   1   2
ATOM      2  C   UNL A   1     -23.883  -0.515  30.972  0.00  0.00    -0.018 A 
ATOM      3  C   UNL A   1     -23.407  -1.361  31.988  0.00  0.00    -0.001 A 
ATOM      4  C   UNL A   1     -23.781  -1.104  33.339  0.00  0.00    +0.042 A 
ATOM      5  C   UNL A   1     -24.967  -0.381  33.625  0.00  0.00    +0.196 A 
ATOM      6  C   UNL A   1     -25.610   0.318  32.583  0.00  0.00    +0.042 A 
ATOM      7  C   UNL A   1     -25.183   0.094  31.262  0.00  0.00    -0.001 A 
ATOM      8  O   UNL A   1     -25.427  -0.306  34.872  0.00  0.00    -0.287 OA
ENDBRANCH   1   2
BRANCH   1  11
ATOM      9  C   UNL A   1     -21.484  -0.107  28.836  0.00  0.00    -0.004 A 
ATOM     10  C   UNL A   1     -20.955   0.558  28.213  0.00  0.00    -0.000 A 
ATOM     11  C   UNL A   1     -22.928   0.129  28.850  0.00  0.00    -0.018 A 
ATOM     12  C   UNL A   1     -23.514   1.117  28.099  0.00  0.00    -0.004 A 
ATOM     13  C   UNL A   1     -21.299   1.666  27.323  0.00  0.00    -0.000 A 
ATOM     14  C   UNL A   1     -22.694   1.902  27.329  0.00  0.00    -0.000 A 
ENDBRANCH   1  11
BRANCH   1  15
ATOM     15  C   UNL A   1     -24.875  -1.389  28.986  0.00  0.00    +0.035 C 
BRANCH  15  16
ATOM     16  C   UNL A   1     -25.012  -2.646  28.868  0.00  0.00    -0.021 A 
ATOM     17  C   UNL A   1     -24.070  -3.511  28.259  0.00  0.00    -0.004 A 
ATOM     18  C   UNL A   1     -24.103  -4.911  28.527  0.00  0.00    -0.000 A 
ATOM     19  C   UNL A   1     -25.208  -5.463  29.235  0.00  0.00    -0.000 A 
ATOM     20  C   UNL A   1     -26.243  -4.695  29.717  0.00  0.00    -0.000 A 
ATOM     21  C   UNL A   1     -26.112  -3.325  29.683  0.00  0.00    -0.004 A 
ENDBRANCH  15  16
ENDBRANCH   1  15
TORSDOF 4
ENDMDL
ENDMDL
