MODEL 4675
MODEL 1
REMARK VINA RESULT:    -4.353      0.000      0.000
REMARK INTER + INTRA:          -4.353
REMARK INTER:                  -4.353
REMARK INTRA:                   0.000
REMARK UNBOUND:                 0.000
REMARK  Name = No_4675-gen_results/8p0m/2024-11-26-14-13-15/
REMARK  0 active torsions:
REMARK  status: ('A' for Active; 'I' for Inactive)
REMARK                            x       y       z     vdW  Elec       q    Type
REMARK                         _______ _______ _______ _____ _____    ______ ____
ROOT
ATOM      1  C   UNL A   1     -24.151  -4.898  28.573  0.00  0.00    +0.000 A 
ATOM      2  C   UNL A   1     -25.003  -5.307  29.039  0.00  0.00    +0.000 A 
ATOM      3  C   UNL A   1     -24.038  -3.443  28.736  0.00  0.00    +0.000 A 
ATOM      4  C   UNL A   1     -25.016  -2.703  29.261  0.00  0.00    +0.000 A 
ATOM      5  C   UNL A   1     -26.180  -4.722  29.634  0.00  0.00    +0.000 A 
ATOM      6  C   UNL A   1     -26.067  -3.369  29.753  0.00  0.00    +0.000 A 
ENDROOT
TORSDOF 0
ENDMDL
ENDMDL
