REMARK  Name = No_4676-gen_results/8p0m/2024-11-26-14-13-15/
REMARK  6 active torsions:
REMARK  status: ('A' for Active; 'I' for Inactive)
REMARK    1  A    between atoms: C_2  and  C_16
REMARK    2  A    between atoms: C_5  and  N_7
REMARK    3  A    between atoms: C_8  and  C_9
REMARK    4  A    between atoms: N_17  and  C_18
REMARK    5  A    between atoms: C_18  and  C_19
REMARK    6  A    between atoms: C_21  and  C_22
REMARK                            x       y       z     vdW  Elec       q    Type
REMARK                         _______ _______ _______ _____ _____    ______ ____
ROOT
ATOM      1  C   UNL A   1     -28.016  -0.814  28.878  0.00  0.00    +0.006 A 
ATOM      2  C   UNL A   1     -27.064  -0.119  28.608  0.00  0.00    +0.055 A 
ATOM      3  C   UNL A   1     -27.001   0.691  27.491  0.00  0.00    +0.006 A 
ATOM      4  C   UNL A   1     -28.137   0.736  26.635  0.00  0.00    +0.015 A 
ATOM      5  C   UNL A   1     -29.236   0.076  27.069  0.00  0.00    +0.048 A 
ATOM      6  C   UNL A   1     -29.218  -0.643  28.175  0.00  0.00    +0.015 A 
ENDROOT
BRANCH   5   7
ATOM      7  N   UNL A   1     -30.352   0.156  26.243  0.00  0.00    -0.300 N 
ATOM      8  C   UNL A   1     -30.269   0.123  24.937  0.00  0.00    +0.177 C 
ATOM      9  C   UNL A   1     -31.389   0.856  24.254  0.00  0.00    +0.032 C 
ATOM     10  C   UNL A   1     -31.616   0.083  26.943  0.00  0.00    +0.091 C 
ATOM     11  C   UNL A   1     -32.525   0.931  26.325  0.00  0.00    +0.021 C 
ATOM     12  C   UNL A   1     -32.579   1.040  24.920  0.00  0.00    +0.004 C 
BRANCH   8  13
ATOM     13  C   UNL A   1     -29.612  -0.525  24.382  0.00  0.00    +0.382 C 
ATOM     14  O   UNL A   1     -28.663  -1.250  24.881  0.00  0.00    -0.244 OA
ATOM     15  O   UNL A   1     -29.484  -0.587  23.037  0.00  0.00    -0.244 OA
ENDBRANCH   8  13
ENDBRANCH   5   7
BRANCH   2  16
ATOM     16  C   UNL A   1     -25.701  -0.247  29.390  0.00  0.00    +0.265 C 
ATOM     17  N   UNL A   1     -24.867   0.587  29.709  0.00  0.00    -0.197 NA
ATOM     18  O   UNL A   1     -25.639  -1.412  30.009  0.00  0.00    -0.268 OA
BRANCH  17  19
ATOM     19  C   UNL A   1     -23.604   0.345  30.058  0.00  0.00    +0.141 C 
BRANCH  19  20
ATOM     20  C   UNL A   1     -22.741  -0.217  29.165  0.00  0.00    -0.002 C 
ATOM     21  C   UNL A   1     -22.083   0.680  28.296  0.00  0.00    +0.042 C 
BRANCH  21  22
ATOM     22  C   UNL A   1     -22.624   1.883  27.872  0.00  0.00    +0.341 C 
ATOM     23  F   UNL A   1     -23.006   2.636  28.723  0.00  0.00    -0.193 F 
ATOM     24  F   UNL A   1     -22.622   2.213  26.651  0.00  0.00    -0.193 F 
ENDBRANCH  21  22
ENDBRANCH  19  20
ENDBRANCH  17  19
ENDBRANCH   2  16
TORSDOF 6
