MODEL 4676
MODEL 1
REMARK VINA RESULT:    -6.362      0.000      0.000
REMARK INTER + INTRA:          -9.369
REMARK INTER:                  -8.593
REMARK INTRA:                  -0.776
REMARK UNBOUND:                -0.776
REMARK  Name = No_4676-gen_results/8p0m/2024-11-26-14-13-15/
REMARK  6 active torsions:
REMARK  status: ('A' for Active; 'I' for Inactive)
REMARK    1  A    between atoms: C_2  and  C_16
REMARK    2  A    between atoms: C_5  and  N_7
REMARK    3  A    between atoms: C_8  and  C_9
REMARK    4  A    between atoms: N_17  and  C_18
REMARK    5  A    between atoms: C_18  and  C_19
REMARK    6  A    between atoms: C_21  and  C_22
REMARK                            x       y       z     vdW  Elec       q    Type
REMARK                         _______ _______ _______ _____ _____    ______ ____
ROOT
ATOM      1  C   UNL A   1     -26.179  -0.003  24.727  0.00  0.00    +0.006 A 
ATOM      2  C   UNL A   1     -27.273   0.353  25.102  0.00  0.00    +0.055 A 
ATOM      3  C   UNL A   1     -27.610   0.513  26.432  0.00  0.00    +0.006 A 
ATOM      4  C   UNL A   1     -26.601   0.282  27.409  0.00  0.00    +0.015 A 
ATOM      5  C   UNL A   1     -25.354   0.054  26.934  0.00  0.00    +0.048 A 
ATOM      6  C   UNL A   1     -25.115  -0.042  25.640  0.00  0.00    +0.015 A 
ENDROOT
BRANCH   5   7
ATOM      7  N   UNL A   1     -24.368  -0.133  27.897  0.00  0.00    -0.300 N 
ATOM      8  C   UNL A   1     -23.464   0.773  28.169  0.00  0.00    +0.177 C 
ATOM      9  C   UNL A   1     -22.178   0.191  28.683  0.00  0.00    +0.032 C 
ATOM     10  C   UNL A   1     -24.542  -1.323  28.701  0.00  0.00    +0.091 C 
ATOM     11  C   UNL A   1     -23.296  -1.872  28.972  0.00  0.00    +0.021 C 
ATOM     12  C   UNL A   1     -22.191  -1.051  29.277  0.00  0.00    +0.004 C 
BRANCH   8  13
ATOM     13  C   UNL A   1     -23.658   1.830  28.235  0.00  0.00    +0.382 C 
ATOM     14  O   UNL A   1     -23.159   2.742  27.463  0.00  0.00    -0.244 OA
ATOM     15  O   UNL A   1     -24.294   2.475  29.239  0.00  0.00    -0.244 OA
ENDBRANCH   8  13
ENDBRANCH   5   7
BRANCH   2  16
ATOM     16  C   UNL A   1     -28.495   0.447  24.110  0.00  0.00    +0.265 C 
ATOM     17  N   UNL A   1     -29.076   1.407  23.628  0.00  0.00    -0.197 NA
ATOM     18  O   UNL A   1     -28.702  -0.722  23.532  0.00  0.00    -0.268 OA
BRANCH  17  19
ATOM     19  C   UNL A   1     -30.292   1.400  23.083  0.00  0.00    +0.141 C 
BRANCH  19  20
ATOM     20  C   UNL A   1     -31.171   2.406  23.353  0.00  0.00    -0.002 C 
ATOM     21  C   UNL A   1     -32.178   2.620  22.388  0.00  0.00    +0.042 C 
BRANCH  21  22
ATOM     22  C   UNL A   1     -32.021   2.361  21.036  0.00  0.00    +0.341 C 
ATOM     23  F   UNL A   1     -32.492   1.339  20.621  0.00  0.00    -0.193 F 
ATOM     24  F   UNL A   1     -31.494   3.208  20.259  0.00  0.00    -0.193 F 
ENDBRANCH  21  22
ENDBRANCH  19  20
ENDBRANCH  17  19
ENDBRANCH   2  16
TORSDOF 6
ENDMDL
ENDMDL
