REMARK  Name = No_4677-gen_results/8p0m/2024-11-26-14-13-15/
REMARK  7 active torsions:
REMARK  status: ('A' for Active; 'I' for Inactive)
REMARK    1  A    between atoms: C_2  and  C_7
REMARK    2  A    between atoms: C_7  and  C_8
REMARK    3  A    between atoms: C_7  and  C_9
REMARK    4  A    between atoms: C_9  and  N_15
REMARK    5  A    between atoms: N_15  and  C_17
REMARK    6  A    between atoms: C_17  and  C_18
REMARK    7  A    between atoms: C_18  and  C_19
REMARK                            x       y       z     vdW  Elec       q    Type
REMARK                         _______ _______ _______ _____ _____    ______ ____
ROOT
ATOM      1  C   UNL A   1     -27.106   1.102  27.759  0.00  0.00    +0.094 C 
ENDROOT
BRANCH   1   3
ATOM      2  C   UNL A   1     -28.016  -0.814  28.878  0.00  0.00    -0.004 A 
ATOM      3  C   UNL A   1     -27.064  -0.119  28.608  0.00  0.00    -0.014 A 
ATOM      4  C   UNL A   1     -25.792  -0.430  29.076  0.00  0.00    -0.004 A 
ATOM      5  C   UNL A   1     -25.576  -1.565  29.936  0.00  0.00    -0.000 A 
ATOM      6  C   UNL A   1     -26.735  -2.300  30.217  0.00  0.00    -0.000 A 
ATOM      7  C   UNL A   1     -27.918  -1.954  29.763  0.00  0.00    -0.000 A 
ENDBRANCH   1   3
BRANCH   1   8
ATOM      8  C   UNL A   1     -26.716   2.235  27.994  0.00  0.00    -0.014 A 
ATOM      9  C   UNL A   1     -26.032   2.594  29.191  0.00  0.00    -0.004 A 
ATOM     10  C   UNL A   1     -25.660   3.410  29.791  0.00  0.00    -0.000 A 
ATOM     11  C   UNL A   1     -26.242   4.733  29.523  0.00  0.00    -0.000 A 
ATOM     12  C   UNL A   1     -26.955   4.701  28.275  0.00  0.00    -0.000 A 
ATOM     13  C   UNL A   1     -27.613   3.474  27.991  0.00  0.00    -0.004 A 
ENDBRANCH   1   8
BRANCH   1  14
ATOM     14  C   UNL A   1     -27.681   0.855  26.426  0.00  0.00    +0.243 C 
ATOM     15  F   UNL A   1     -26.955   1.294  25.537  0.00  0.00    -0.217 F 
BRANCH  14  16
ATOM     16  N   UNL A   1     -28.869   0.760  26.171  0.00  0.00    -0.186 NA
BRANCH  16  17
ATOM     17  C   UNL A   1     -29.388   0.310  24.996  0.00  0.00    +0.100 C 
BRANCH  17  18
ATOM     18  C   UNL A   1     -30.676  -0.282  24.954  0.00  0.00    +0.122 C 
BRANCH  18  19
ATOM     19  C   UNL A   1     -31.258  -0.566  26.065  0.00  0.00    +0.399 C 
ATOM     20  F   UNL A   1     -30.797   0.021  26.999  0.00  0.00    -0.170 F 
ATOM     21  F   UNL A   1     -32.622  -0.335  26.037  0.00  0.00    -0.170 F 
ATOM     22  F   UNL A   1     -31.262  -1.953  26.269  0.00  0.00    -0.170 F 
ENDBRANCH  18  19
ENDBRANCH  17  18
ENDBRANCH  16  17
ENDBRANCH  14  16
ENDBRANCH   1  14
TORSDOF 7
