MODEL 4677
MODEL 1
REMARK VINA RESULT:    -7.077      0.000      0.000
REMARK INTER + INTRA:         -12.055
REMARK INTER:                  -9.974
REMARK INTRA:                  -2.081
REMARK UNBOUND:                -2.081
REMARK  Name = No_4677-gen_results/8p0m/2024-11-26-14-13-15/
REMARK  7 active torsions:
REMARK  status: ('A' for Active; 'I' for Inactive)
REMARK    1  A    between atoms: C_2  and  C_7
REMARK    2  A    between atoms: C_7  and  C_8
REMARK    3  A    between atoms: C_7  and  C_9
REMARK    4  A    between atoms: C_9  and  N_15
REMARK    5  A    between atoms: N_15  and  C_17
REMARK    6  A    between atoms: C_17  and  C_18
REMARK    7  A    between atoms: C_18  and  C_19
REMARK                            x       y       z     vdW  Elec       q    Type
REMARK                         _______ _______ _______ _____ _____    ______ ____
ROOT
ATOM      1  C   UNL A   1     -25.097  -1.279  30.007  0.00  0.00    +0.094 C 
ENDROOT
BRANCH   1   3
ATOM      2  C   UNL A   1     -24.047  -3.201  29.029  0.00  0.00    -0.004 A 
ATOM      3  C   UNL A   1     -24.993  -2.706  29.598  0.00  0.00    -0.014 A 
ATOM      4  C   UNL A   1     -26.101  -3.469  29.947  0.00  0.00    -0.004 A 
ATOM      5  C   UNL A   1     -26.178  -4.865  29.602  0.00  0.00    -0.000 A 
ATOM      6  C   UNL A   1     -25.051  -5.351  28.925  0.00  0.00    -0.000 A 
ATOM      7  C   UNL A   1     -24.036  -4.583  28.602  0.00  0.00    -0.000 A 
ENDBRANCH   1   3
BRANCH   1   8
ATOM      8  C   UNL A   1     -24.967  -0.767  31.107  0.00  0.00    -0.014 A 
ATOM      9  C   UNL A   1     -24.027  -1.223  32.076  0.00  0.00    -0.004 A 
ATOM     10  C   UNL A   1     -23.700  -1.146  33.101  0.00  0.00    -0.000 A 
ATOM     11  C   UNL A   1     -24.670  -0.586  34.054  0.00  0.00    -0.000 A 
ATOM     12  C   UNL A   1     -25.740   0.048  33.334  0.00  0.00    -0.000 A 
ATOM     13  C   UNL A   1     -26.103  -0.588  32.116  0.00  0.00    -0.004 A 
ENDBRANCH   1   8
BRANCH   1  14
ATOM     14  C   UNL A   1     -25.365  -0.375  28.875  0.00  0.00    +0.243 C 
ATOM     15  F   UNL A   1     -25.981  -0.949  27.980  0.00  0.00    -0.217 F 
BRANCH  14  16
ATOM     16  N   UNL A   1     -24.678   0.577  28.549  0.00  0.00    -0.186 NA
BRANCH  16  17
ATOM     17  C   UNL A   1     -23.643   0.535  27.666  0.00  0.00    +0.100 C 
BRANCH  17  18
ATOM     18  C   UNL A   1     -22.330   0.883  28.073  0.00  0.00    +0.122 C 
BRANCH  18  19
ATOM     19  C   UNL A   1     -21.705   0.093  28.872  0.00  0.00    +0.399 C 
ATOM     20  F   UNL A   1     -21.941   0.309  30.024  0.00  0.00    -0.170 F 
ATOM     21  F   UNL A   1     -21.959  -1.244  28.620  0.00  0.00    -0.170 F 
ATOM     22  F   UNL A   1     -20.329   0.122  28.605  0.00  0.00    -0.170 F 
ENDBRANCH  18  19
ENDBRANCH  17  18
ENDBRANCH  16  17
ENDBRANCH  14  16
ENDBRANCH   1  14
TORSDOF 7
ENDMDL
ENDMDL
