MODEL 4678
MODEL 1
REMARK VINA RESULT:    -5.615      0.000      0.000
REMARK INTER + INTRA:          -6.924
REMARK INTER:                  -6.599
REMARK INTRA:                  -0.325
REMARK UNBOUND:                -0.325
REMARK  Name = No_4678-gen_results/8p0m/2024-11-26-14-13-15/
REMARK  3 active torsions:
REMARK  status: ('A' for Active; 'I' for Inactive)
REMARK    1  A    between atoms: C_2  and  C_7
REMARK    2  A    between atoms: C_7  and  C_9
REMARK    3  A    between atoms: C_9  and  C_11
REMARK                            x       y       z     vdW  Elec       q    Type
REMARK                         _______ _______ _______ _____ _____    ______ ____
ROOT
ATOM      1  C   UNL A   1     -23.859  -3.308  28.680  0.00  0.00    -0.003 A 
ATOM      2  C   UNL A   1     -24.583  -2.742  29.195  0.00  0.00    -0.003 A 
ATOM      3  C   UNL A   1     -24.112  -4.799  28.633  0.00  0.00    -0.000 A 
ATOM      4  C   UNL A   1     -25.328  -5.310  29.134  0.00  0.00    -0.000 A 
ATOM      5  C   UNL A   1     -25.923  -3.014  29.763  0.00  0.00    -0.003 A 
ATOM      6  C   UNL A   1     -26.194  -4.375  29.732  0.00  0.00    -0.000 A 
ENDROOT
BRANCH   2   7
ATOM      7  C   UNL A   1     -24.347  -1.154  29.249  0.00  0.00    +0.137 C 
ATOM      8  N   UNL A   1     -24.381  -0.492  28.260  0.00  0.00    -0.126 NA
BRANCH   7   9
ATOM      9  C   UNL A   1     -23.082  -0.896  30.069  0.00  0.00    +0.166 C 
ATOM     10 CL   UNL A   1     -23.011  -1.174  31.629  0.00  0.00    -0.105 Cl
BRANCH   9  11
ATOM     11  C   UNL A   1     -21.986  -0.300  29.393  0.00  0.00    +0.225 C 
ATOM     12  O   UNL A   1     -21.102  -1.039  28.984  0.00  0.00    -0.287 OA
ENDBRANCH   9  11
ENDBRANCH   7   9
ENDBRANCH   2   7
TORSDOF 3
ENDMDL
ENDMDL
