REMARK  Name = No_4679-gen_results/8p0m/2024-11-26-14-13-15/
REMARK  4 active torsions:
REMARK  status: ('A' for Active; 'I' for Inactive)
REMARK    1  A    between atoms: C_1  and  C_2
REMARK    2  A    between atoms: C_1  and  C_8
REMARK    3  A    between atoms: C_3  and  C_15
REMARK    4  A    between atoms: C_5  and  C_11
REMARK                            x       y       z     vdW  Elec       q    Type
REMARK                         _______ _______ _______ _____ _____    ______ ____
ROOT
ATOM      1  C   UNL A   1     -27.064  -0.119  28.608  0.00  0.00    +0.027 C 
ATOM      2  C   UNL A   1     -26.972   0.714  27.506  0.00  0.00    +0.154 C 
ATOM      3  C   UNL A   1     -25.820   1.491  27.116  0.00  0.00    +0.180 C 
ATOM      4  C   UNL A   1     -24.656   1.424  27.918  0.00  0.00    +0.205 C 
ATOM      5  C   UNL A   1     -24.685   0.590  29.066  0.00  0.00    +0.031 C 
ATOM      6  C   UNL A   1     -25.810  -0.127  29.334  0.00  0.00    +0.003 C 
ATOM      7 CL   UNL A   1     -23.928   0.861  27.450  0.00  0.00    -0.100 Cl
ATOM      8  O   UNL A   1     -25.909   2.397  26.271  0.00  0.00    -0.294 OA
ENDROOT
BRANCH   4   9
ATOM      9  C   UNL A   1     -23.466   2.200  27.599  0.00  0.00    +0.416 C 
ATOM     10  F   UNL A   1     -22.644   1.676  27.085  0.00  0.00    -0.168 F 
ATOM     11  F   UNL A   1     -23.005   2.804  28.762  0.00  0.00    -0.168 F 
ATOM     12  F   UNL A   1     -23.875   3.322  26.893  0.00  0.00    -0.168 F 
ENDBRANCH   4   9
BRANCH   2  13
ATOM     13  C   UNL A   1     -28.107   0.802  26.567  0.00  0.00    +0.404 C 
ATOM     14  F   UNL A   1     -29.167   0.869  27.011  0.00  0.00    -0.170 F 
ATOM     15  F   UNL A   1     -27.886   1.867  25.762  0.00  0.00    -0.170 F 
ATOM     16  F   UNL A   1     -27.993  -0.227  25.653  0.00  0.00    -0.170 F 
ENDBRANCH   2  13
BRANCH   1  17
ATOM     17  C   UNL A   1     -28.016  -0.814  28.878  0.00  0.00    +0.115 C 
BRANCH  17  18
ATOM     18  C   UNL A   1     -28.694  -0.473  30.159  0.00  0.00    +0.365 C 
ATOM     19  O   UNL A   1     -28.731   0.507  30.639  0.00  0.00    -0.246 OA
ATOM     20  O   UNL A   1     -28.931  -1.631  30.898  0.00  0.00    -0.246 OA
ENDBRANCH  17  18
ENDBRANCH   1  17
TORSDOF 4
