MODEL 467
MODEL 1
REMARK VINA RESULT:    -4.527      0.000      0.000
REMARK INTER + INTRA:          -4.527
REMARK INTER:                  -4.527
REMARK INTRA:                   0.000
REMARK UNBOUND:                 0.000
REMARK  Name = No_467-gen_results/8p0m/2024-11-26-14-13-15/
REMARK  0 active torsions:
REMARK  status: ('A' for Active; 'I' for Inactive)
REMARK                            x       y       z     vdW  Elec       q    Type
REMARK                         _______ _______ _______ _____ _____    ______ ____
ROOT
ATOM      1  C   UNL A   1     -24.009  -4.368  28.669  0.00  0.00    +0.030 A 
ATOM      2  C   UNL A   1     -24.898  -4.892  28.886  0.00  0.00    +0.140 A 
ATOM      3  C   UNL A   1     -24.027  -2.893  29.003  0.00  0.00    +0.002 A 
ATOM      4  C   UNL A   1     -25.133  -2.353  29.693  0.00  0.00    +0.000 A 
ATOM      5  C   UNL A   1     -26.149  -4.585  29.616  0.00  0.00    +0.030 A 
ATOM      6  C   UNL A   1     -26.199  -3.238  29.945  0.00  0.00    +0.002 A 
ATOM      7  F   UNL A   1     -24.870  -6.310  28.576  0.00  0.00    -0.204 F 
ENDROOT
TORSDOF 0
ENDMDL
ENDMDL
