MODEL 4680
MODEL 1
REMARK VINA RESULT:    -4.744      0.000      0.000
REMARK INTER + INTRA:          -4.744
REMARK INTER:                  -4.744
REMARK INTRA:                   0.000
REMARK UNBOUND:                 0.000
REMARK  Name = No_4680-gen_results/8p0m/2024-11-26-14-13-15/
REMARK  0 active torsions:
REMARK  status: ('A' for Active; 'I' for Inactive)
REMARK                            x       y       z     vdW  Elec       q    Type
REMARK                         _______ _______ _______ _____ _____    ______ ____
ROOT
ATOM      1  C   UNL A   1      -8.994 -10.651  17.762  0.00  0.00    -0.000 A 
ATOM      2  C   UNL A   1      -8.267 -10.542  18.517  0.00  0.00    -0.004 A 
ATOM      3  C   UNL A   1     -10.251  -9.964  18.055  0.00  0.00    -0.000 A 
ATOM      4  C   UNL A   1     -10.434  -9.236  19.205  0.00  0.00    -0.000 A 
ATOM      5  C   UNL A   1      -8.180  -9.848  19.802  0.00  0.00    -0.022 A 
ATOM      6  C   UNL A   1      -7.099  -9.808  20.711  0.00  0.00    +0.031 C 
ATOM      7  C   UNL A   1      -9.393  -9.173  20.059  0.00  0.00    -0.004 A 
ENDROOT
TORSDOF 0
ENDMDL
ENDMDL
