REMARK  Name = No_4681-gen_results/8p0m/2024-11-26-14-13-15/
REMARK  4 active torsions:
REMARK  status: ('A' for Active; 'I' for Inactive)
REMARK    1  A    between atoms: C_9  and  C_11
REMARK    2  A    between atoms: C_10  and  C_15
REMARK    3  A    between atoms: C_11  and  N_12
REMARK    4  A    between atoms: N_12  and  C_13
REMARK                            x       y       z     vdW  Elec       q    Type
REMARK                         _______ _______ _______ _____ _____    ______ ____
ROOT
ATOM      1  C   UNL A   1     -28.016  -0.814  28.878  0.00  0.00    -0.000 A 
ATOM      2  C   UNL A   1     -28.469  -0.785  29.829  0.00  0.00    -0.000 A 
ATOM      3  C   UNL A   1     -27.136   0.236  28.535  0.00  0.00    -0.000 A 
ATOM      4  C   UNL A   1     -26.335   0.290  27.284  0.00  0.00    -0.000 A 
ATOM      5  C   UNL A   1     -28.369   0.196  30.924  0.00  0.00    -0.000 A 
ATOM      6  C   UNL A   1     -27.516   1.266  30.654  0.00  0.00    -0.000 A 
ATOM      7  C   UNL A   1     -26.841   1.294  29.476  0.00  0.00    -0.000 A 
ATOM      8  C   UNL A   1     -25.361   0.775  26.967  0.00  0.00    -0.003 A 
ATOM      9  C   UNL A   1     -24.830   1.767  28.017  0.00  0.00    -0.005 A 
ATOM     10  C   UNL A   1     -25.567   2.002  29.202  0.00  0.00    +0.026 A 
ENDROOT
BRANCH  10  11
ATOM     11  C   UNL A   1     -25.130   3.075  30.187  0.00  0.00    +0.273 C 
ATOM     12  N   UNL A   1     -24.382   2.702  31.223  0.00  0.00    -0.090 NA
ATOM     13  F   UNL A   1     -25.473   4.185  29.966  0.00  0.00    -0.211 F 
ENDBRANCH  10  11
BRANCH   9  14
ATOM     14  C   UNL A   1     -23.608   2.593  27.664  0.00  0.00    +0.115 C 
BRANCH  14  15
ATOM     15  N   UNL A   1     -22.503   2.094  27.616  0.00  0.00    -0.213 NA
BRANCH  15  16
ATOM     16  C   UNL A   1     -21.965   1.443  28.743  0.00  0.00    +0.089 C 
ATOM     17  C   UNL A   1     -21.731  -0.022  28.470  0.00  0.00    +0.020 C 
ENDBRANCH  15  16
ENDBRANCH  14  15
ENDBRANCH   9  14
TORSDOF 4
