MODEL 4681
MODEL 1
REMARK VINA RESULT:    -5.976      0.000      0.000
REMARK INTER + INTRA:          -7.948
REMARK INTER:                  -7.374
REMARK INTRA:                  -0.574
REMARK UNBOUND:                -0.574
REMARK  Name = No_4681-gen_results/8p0m/2024-11-26-14-13-15/
REMARK  4 active torsions:
REMARK  status: ('A' for Active; 'I' for Inactive)
REMARK    1  A    between atoms: C_9  and  C_11
REMARK    2  A    between atoms: C_10  and  C_15
REMARK    3  A    between atoms: C_11  and  N_12
REMARK    4  A    between atoms: N_12  and  C_13
REMARK                            x       y       z     vdW  Elec       q    Type
REMARK                         _______ _______ _______ _____ _____    ______ ____
ROOT
ATOM      1  C   UNL A   1     -25.126   1.905  26.069  0.00  0.00    -0.000 A 
ATOM      2  C   UNL A   1     -24.540   2.777  26.146  0.00  0.00    -0.000 A 
ATOM      3  C   UNL A   1     -24.639   0.729  26.681  0.00  0.00    -0.000 A 
ATOM      4  C   UNL A   1     -25.388  -0.553  26.760  0.00  0.00    -0.000 A 
ATOM      5  C   UNL A   1     -23.237   3.020  26.790  0.00  0.00    -0.000 A 
ATOM      6  C   UNL A   1     -22.693   1.899  27.415  0.00  0.00    -0.000 A 
ATOM      7  C   UNL A   1     -23.396   0.737  27.420  0.00  0.00    -0.000 A 
ATOM      8  C   UNL A   1     -25.393  -1.446  27.457  0.00  0.00    -0.003 A 
ATOM      9  C   UNL A   1     -24.221  -1.419  28.454  0.00  0.00    -0.005 A 
ATOM     10  C   UNL A   1     -23.275  -0.367  28.403  0.00  0.00    +0.026 A 
ENDROOT
BRANCH  10  11
ATOM     11  C   UNL A   1     -22.038  -0.393  29.287  0.00  0.00    +0.273 C 
ATOM     12  N   UNL A   1     -20.920  -0.905  28.778  0.00  0.00    -0.090 NA
ATOM     13  F   UNL A   1     -22.141   0.057  30.376  0.00  0.00    -0.211 F 
ENDBRANCH  10  11
BRANCH   9  14
ATOM     14  C   UNL A   1     -24.022  -2.623  29.355  0.00  0.00    +0.115 C 
BRANCH  14  15
ATOM     15  N   UNL A   1     -23.601  -3.673  28.918  0.00  0.00    -0.213 NA
BRANCH  15  16
ATOM     16  C   UNL A   1     -24.440  -4.802  28.841  0.00  0.00    +0.089 C 
ATOM     17  C   UNL A   1     -25.755  -4.555  29.538  0.00  0.00    +0.020 C 
ENDBRANCH  15  16
ENDBRANCH  14  15
ENDBRANCH   9  14
TORSDOF 4
ENDMDL
ENDMDL
