MODEL 4682
MODEL 1
REMARK VINA RESULT:    -4.259      0.000      0.000
REMARK INTER + INTRA:          -4.259
REMARK INTER:                  -4.259
REMARK INTRA:                   0.000
REMARK UNBOUND:                 0.000
REMARK  Name = No_4682-gen_results/8p0m/2024-11-26-14-13-15/
REMARK  0 active torsions:
REMARK  status: ('A' for Active; 'I' for Inactive)
REMARK                            x       y       z     vdW  Elec       q    Type
REMARK                         _______ _______ _______ _____ _____    ______ ____
ROOT
ATOM      1  C   UNL A   1     -26.356  -3.798  29.806  0.00  0.00    +0.000 A 
ATOM      2  C   UNL A   1     -26.104  -4.804  29.620  0.00  0.00    +0.000 A 
ATOM      3  C   UNL A   1     -25.332  -2.792  29.483  0.00  0.00    +0.000 A 
ATOM      4  C   UNL A   1     -24.128  -3.170  28.820  0.00  0.00    +0.000 A 
ATOM      5  C   UNL A   1     -24.971  -5.448  28.902  0.00  0.00    +0.000 A 
ATOM      6  C   UNL A   1     -23.995  -4.547  28.594  0.00  0.00    +0.000 A 
ENDROOT
TORSDOF 0
ENDMDL
ENDMDL
