MODEL 4683
MODEL 1
REMARK VINA RESULT:    -7.704      0.000      0.000
REMARK INTER + INTRA:         -10.240
REMARK INTER:                  -9.506
REMARK INTRA:                  -0.734
REMARK UNBOUND:                -0.734
REMARK  Name = No_4683-gen_results/8p0m/2024-11-26-14-13-15/
REMARK  4 active torsions:
REMARK  status: ('A' for Active; 'I' for Inactive)
REMARK    1  A    between atoms: C_2  and  C_22
REMARK    2  A    between atoms: C_3  and  C_7
REMARK    3  A    between atoms: N_8  and  C_10
REMARK    4  A    between atoms: N_9  and  C_16
REMARK                            x       y       z     vdW  Elec       q    Type
REMARK                         _______ _______ _______ _____ _____    ______ ____
ROOT
ATOM      1  C   UNL A   1     -24.405  -0.001  28.176  0.00  0.00    +0.366 C 
ATOM      2  N   UNL A   1     -24.274  -0.830  29.044  0.00  0.00    -0.036 NA
ATOM      3  N   UNL A   1     -23.777   1.274  28.424  0.00  0.00    -0.006 NA
ENDROOT
BRANCH   1   6
ATOM      4  C   UNL A   1     -26.784   0.344  27.289  0.00  0.00    +0.012 A 
ATOM      5  C   UNL A   1     -27.431   0.322  26.457  0.00  0.00    +0.054 A 
ATOM      6  C   UNL A   1     -25.436  -0.025  27.085  0.00  0.00    +0.086 A 
ATOM      7  C   UNL A   1     -24.965  -0.417  25.847  0.00  0.00    +0.007 A 
ATOM      8  C   UNL A   1     -27.187  -0.048  25.049  0.00  0.00    +0.004 A 
ATOM      9  C   UNL A   1     -25.908  -0.410  24.810  0.00  0.00    +0.000 A 
BRANCH   5  10
ATOM     10  C   UNL A   1     -28.984   0.715  26.580  0.00  0.00    +0.249 C 
ATOM     11  O   UNL A   1     -29.730  -0.060  26.971  0.00  0.00    -0.270 OA
ATOM     12  N   UNL A   1     -29.446   1.894  26.112  0.00  0.00    -0.276 N 
ATOM     13  C   UNL A   1     -30.390   2.280  25.672  0.00  0.00    +0.094 C 
ATOM     14  C   UNL A   1     -30.500   3.468  25.102  0.00  0.00    +0.022 C 
ATOM     15  C   UNL A   1     -29.317   4.210  25.108  0.00  0.00    +0.004 C 
ATOM     16  C   UNL A   1     -28.324   3.770  25.477  0.00  0.00    +0.022 C 
ATOM     17  C   UNL A   1     -28.118   2.632  25.973  0.00  0.00    +0.094 C 
ENDBRANCH   5  10
ENDBRANCH   1   6
BRANCH   2  18
ATOM     18  C   UNL A   1     -24.830  -2.061  29.051  0.00  0.00    +0.193 A 
ATOM     19  C   UNL A   1     -25.828  -2.297  29.775  0.00  0.00    +0.047 A 
ATOM     20  C   UNL A   1     -23.870  -3.136  28.820  0.00  0.00    +0.047 A 
ATOM     21  C   UNL A   1     -26.414  -3.670  29.766  0.00  0.00    +0.004 A 
ATOM     22  C   UNL A   1     -24.344  -4.460  28.755  0.00  0.00    +0.004 A 
ATOM     23  C   UNL A   1     -25.622  -4.682  29.309  0.00  0.00    +0.000 A 
ENDBRANCH   2  18
BRANCH   3  24
ATOM     24  C   UNL A   1     -24.008   2.362  27.528  0.00  0.00    +0.183 A 
ATOM     25  C   UNL A   1     -23.439   2.434  26.418  0.00  0.00    +0.044 A 
ATOM     26  C   UNL A   1     -23.636   3.517  25.533  0.00  0.00    +0.004 A 
ATOM     27  C   UNL A   1     -24.503   4.543  25.938  0.00  0.00    +0.000 A 
ATOM     28  C   UNL A   1     -24.931   3.379  27.986  0.00  0.00    +0.044 A 
ATOM     29  C   UNL A   1     -25.180   4.464  27.130  0.00  0.00    +0.004 A 
ENDBRANCH   3  24
TORSDOF 4
ENDMDL
ENDMDL
