REMARK  Name = No_4683-gen_results/8p0m/2024-11-26-14-13-15/
REMARK  4 active torsions:
REMARK  status: ('A' for Active; 'I' for Inactive)
REMARK    1  A    between atoms: C_2  and  C_22
REMARK    2  A    between atoms: C_3  and  C_7
REMARK    3  A    between atoms: N_8  and  C_10
REMARK    4  A    between atoms: N_9  and  C_16
REMARK                            x       y       z     vdW  Elec       q    Type
REMARK                         _______ _______ _______ _____ _____    ______ ____
ROOT
ATOM      1  C   UNL A   1     -26.399   0.295  27.228  0.00  0.00    +0.366 C 
ATOM      2  N   UNL A   1     -26.891   0.513  26.147  0.00  0.00    -0.036 NA
ATOM      3  N   UNL A   1     -25.091  -0.315  27.212  0.00  0.00    -0.006 NA
ENDROOT
BRANCH   1   6
ATOM      4  C   UNL A   1     -28.016  -0.814  28.878  0.00  0.00    +0.012 A 
ATOM      5  C   UNL A   1     -28.469  -0.785  29.829  0.00  0.00    +0.054 A 
ATOM      6  C   UNL A   1     -27.136   0.236  28.535  0.00  0.00    +0.086 A 
ATOM      7  C   UNL A   1     -26.875   1.282  29.398  0.00  0.00    +0.007 A 
ATOM      8  C   UNL A   1     -28.361   0.199  30.924  0.00  0.00    +0.004 A 
ATOM      9  C   UNL A   1     -27.528   1.223  30.636  0.00  0.00    +0.000 A 
BRANCH   5  10
ATOM     10  C   UNL A   1     -29.491  -1.924  30.317  0.00  0.00    +0.249 C 
ATOM     11  O   UNL A   1     -29.114  -2.996  30.452  0.00  0.00    -0.270 OA
ATOM     12  N   UNL A   1     -30.810  -1.670  30.448  0.00  0.00    -0.276 N 
ATOM     13  C   UNL A   1     -31.761  -2.235  30.342  0.00  0.00    +0.094 C 
ATOM     14  C   UNL A   1     -32.954  -1.665  30.336  0.00  0.00    +0.022 C 
ATOM     15  C   UNL A   1     -32.919  -0.277  30.485  0.00  0.00    +0.004 C 
ATOM     16  C   UNL A   1     -31.933   0.309  30.497  0.00  0.00    +0.022 C 
ATOM     17  C   UNL A   1     -30.761  -0.145  30.444  0.00  0.00    +0.094 C 
ENDBRANCH   5  10
ENDBRANCH   1   6
BRANCH   2  18
ATOM     18  C   UNL A   1     -28.126   1.014  25.928  0.00  0.00    +0.193 A 
ATOM     19  C   UNL A   1     -28.624   1.836  26.735  0.00  0.00    +0.047 A 
ATOM     20  C   UNL A   1     -29.019   0.084  25.244  0.00  0.00    +0.047 A 
ATOM     21  C   UNL A   1     -29.994   2.365  26.469  0.00  0.00    +0.004 A 
ATOM     22  C   UNL A   1     -30.319   0.516  24.916  0.00  0.00    +0.004 A 
ATOM     23  C   UNL A   1     -30.784   1.648  25.619  0.00  0.00    +0.000 A 
ENDBRANCH   2  18
BRANCH   3  24
ATOM     24  C   UNL A   1     -24.500  -0.751  28.437  0.00  0.00    +0.183 A 
ATOM     25  C   UNL A   1     -24.444  -1.960  28.748  0.00  0.00    +0.044 A 
ATOM     26  C   UNL A   1     -23.888  -2.405  29.968  0.00  0.00    +0.004 A 
ATOM     27  C   UNL A   1     -23.391  -1.436  30.852  0.00  0.00    +0.000 A 
ATOM     28  C   UNL A   1     -23.981   0.289  29.300  0.00  0.00    +0.044 A 
ATOM     29  C   UNL A   1     -23.395  -0.105  30.513  0.00  0.00    +0.004 A 
ENDBRANCH   3  24
TORSDOF 4
