REMARK  Name = No_4684-gen_results/8p0m/2024-11-26-14-13-15/
REMARK  1 active torsions:
REMARK  status: ('A' for Active; 'I' for Inactive)
REMARK    1  A    between atoms: C_6  and  C_19
REMARK                            x       y       z     vdW  Elec       q    Type
REMARK                         _______ _______ _______ _____ _____    ______ ____
ROOT
ATOM      1  C   UNL A   1     -28.016  -0.814  28.878  0.00  0.00    +0.017 A 
ATOM      2  C   UNL A   1     -27.064  -0.119  28.608  0.00  0.00    +0.017 A 
ATOM      3  C   UNL A   1     -25.792  -0.430  29.076  0.00  0.00    +0.060 A 
ATOM      4  C   UNL A   1     -24.546   0.349  28.823  0.00  0.00    +0.016 A 
ATOM      5  C   UNL A   1     -24.659   1.420  27.888  0.00  0.00    +0.008 A 
ATOM      6  C   UNL A   1     -25.947   1.681  27.379  0.00  0.00    +0.080 A 
ATOM      7  C   UNL A   1     -27.044   0.974  27.687  0.00  0.00    +0.008 A 
ATOM      8  C   UNL A   1     -29.236  -0.061  29.267  0.00  0.00    +0.002 A 
ATOM      9  C   UNL A   1     -29.807  -0.356  30.383  0.00  0.00    +0.000 A 
ATOM     10  C   UNL A   1     -29.638  -1.689  30.987  0.00  0.00    +0.002 A 
ATOM     11  C   UNL A   1     -28.540  -2.441  30.565  0.00  0.00    +0.017 A 
ATOM     12  C   UNL A   1     -27.718  -1.890  29.814  0.00  0.00    +0.060 A 
ATOM     13  N   UNL A   1     -26.318  -2.099  29.685  0.00  0.00    -0.325 N 
ATOM     14  C   UNL A   1     -25.373  -2.205  30.835  0.00  0.00    +0.130 C 
ATOM     15  C   UNL A   1     -23.230  -0.091  29.349  0.00  0.00    +0.001 A 
ATOM     16  C   UNL A   1     -22.093   0.248  28.789  0.00  0.00    +0.000 A 
ATOM     17  C   UNL A   1     -22.085   1.174  27.706  0.00  0.00    +0.000 A 
ATOM     18  C   UNL A   1     -23.413   1.962  27.342  0.00  0.00    +0.000 A 
ENDROOT
BRANCH   6  19
ATOM     19  C   UNL A   1     -25.999   2.893  26.480  0.00  0.00    +0.388 C 
ATOM     20  O   UNL A   1     -26.675   2.702  25.565  0.00  0.00    -0.241 OA
ATOM     21  O   UNL A   1     -25.418   4.004  26.863  0.00  0.00    -0.241 OA
ENDBRANCH   6  19
TORSDOF 1
