MODEL 4684
MODEL 1
REMARK VINA RESULT:    -7.063      0.000      0.000
REMARK INTER + INTRA:          -7.580
REMARK INTER:                  -7.476
REMARK INTRA:                  -0.104
REMARK UNBOUND:                -0.104
REMARK  Name = No_4684-gen_results/8p0m/2024-11-26-14-13-15/
REMARK  1 active torsions:
REMARK  status: ('A' for Active; 'I' for Inactive)
REMARK    1  A    between atoms: C_6  and  C_19
REMARK                            x       y       z     vdW  Elec       q    Type
REMARK                         _______ _______ _______ _____ _____    ______ ____
ROOT
ATOM      1  C   UNL A   1     -10.762  -0.683  38.173  0.00  0.00    +0.017 A 
ATOM      2  C   UNL A   1     -10.842   0.269  37.431  0.00  0.00    +0.017 A 
ATOM      3  C   UNL A   1     -11.396   1.470  37.862  0.00  0.00    +0.060 A 
ATOM      4  C   UNL A   1     -11.561   2.706  37.045  0.00  0.00    +0.016 A 
ATOM      5  C   UNL A   1     -10.950   2.689  35.757  0.00  0.00    +0.008 A 
ATOM      6  C   UNL A   1     -10.341   1.480  35.363  0.00  0.00    +0.080 A 
ATOM      7  C   UNL A   1     -10.271   0.380  36.126  0.00  0.00    +0.008 A 
ATOM      8  C   UNL A   1     -11.151  -1.977  37.555  0.00  0.00    +0.002 A 
ATOM      9  C   UNL A   1     -12.042  -2.694  38.148  0.00  0.00    +0.000 A 
ATOM     10  C   UNL A   1     -12.275  -2.561  39.596  0.00  0.00    +0.002 A 
ATOM     11  C   UNL A   1     -11.836  -1.383  40.203  0.00  0.00    +0.017 A 
ATOM     12  C   UNL A   1     -11.400  -0.482  39.467  0.00  0.00    +0.060 A 
ATOM     13  N   UNL A   1     -11.435   0.929  39.634  0.00  0.00    -0.325 N 
ATOM     14  C   UNL A   1     -12.642   1.697  40.056  0.00  0.00    +0.130 C 
ATOM     15  C   UNL A   1     -12.141   3.947  37.616  0.00  0.00    +0.001 A 
ATOM     16  C   UNL A   1     -11.877   5.140  37.136  0.00  0.00    +0.000 A 
ATOM     17  C   UNL A   1     -11.104   5.269  35.946  0.00  0.00    +0.000 A 
ATOM     18  C   UNL A   1     -10.772   3.978  35.086  0.00  0.00    +0.000 A 
ENDROOT
BRANCH   6  19
ATOM     19  C   UNL A   1      -9.813   1.512  33.948  0.00  0.00    +0.388 C 
ATOM     20  O   UNL A   1      -8.661   1.582  33.937  0.00  0.00    -0.241 OA
ATOM     21  O   UNL A   1     -10.642   1.340  32.947  0.00  0.00    -0.241 OA
ENDBRANCH   6  19
TORSDOF 1
ENDMDL
ENDMDL
