MODEL 4685
MODEL 1
REMARK VINA RESULT:    -4.373      0.000      0.000
REMARK INTER + INTRA:          -4.373
REMARK INTER:                  -4.373
REMARK INTRA:                   0.000
REMARK UNBOUND:                 0.000
REMARK  Name = No_4685-gen_results/8p0m/2024-11-26-14-13-15/
REMARK  0 active torsions:
REMARK  status: ('A' for Active; 'I' for Inactive)
REMARK                            x       y       z     vdW  Elec       q    Type
REMARK                         _______ _______ _______ _____ _____    ______ ____
ROOT
ATOM      1  C   UNL A   1     -24.881  -2.740  29.170  0.00  0.00    +0.000 A 
ATOM      2  C   UNL A   1     -24.003  -3.441  28.721  0.00  0.00    +0.000 A 
ATOM      3  C   UNL A   1     -24.158  -4.820  28.638  0.00  0.00    +0.000 A 
ATOM      4  C   UNL A   1     -25.007  -5.369  29.024  0.00  0.00    +0.000 A 
ATOM      5  C   UNL A   1     -26.172  -4.693  29.656  0.00  0.00    +0.000 A 
ATOM      6  C   UNL A   1     -26.056  -3.387  29.732  0.00  0.00    +0.000 A 
ENDROOT
TORSDOF 0
ENDMDL
ENDMDL
