REMARK  Name = No_4686-gen_results/8p0m/2024-11-26-14-13-15/
REMARK  4 active torsions:
REMARK  status: ('A' for Active; 'I' for Inactive)
REMARK    1  A    between atoms: C_7  and  C_9
REMARK    2  A    between atoms: C_9  and  C_10
REMARK    3  A    between atoms: C_14  and  C_17
REMARK    4  A    between atoms: C_17  and  N_18
REMARK                            x       y       z     vdW  Elec       q    Type
REMARK                         _______ _______ _______ _____ _____    ______ ____
ROOT
ATOM      1  C   UNL A   1     -28.016  -0.814  28.878  0.00  0.00    -0.004 A 
ATOM      2  C   UNL A   1     -28.469  -0.785  29.829  0.00  0.00    -0.000 A 
ATOM      3  C   UNL A   1     -27.136   0.236  28.535  0.00  0.00    -0.023 A 
ATOM      4  C   UNL A   1     -26.875   1.282  29.398  0.00  0.00    -0.022 A 
ATOM      5  C   UNL A   1     -28.361   0.199  30.924  0.00  0.00    -0.000 A 
ATOM      6  C   UNL A   1     -27.528   1.223  30.636  0.00  0.00    -0.004 A 
ATOM      7  C   UNL A   1     -26.399   0.295  27.228  0.00  0.00    +0.063 C 
ATOM      8  C   UNL A   1     -25.039   0.236  27.354  0.00  0.00    +0.029 C 
ATOM      9  C   UNL A   1     -24.106   1.047  28.044  0.00  0.00    -0.044 C 
ATOM     10  C   UNL A   1     -22.819   0.714  28.292  0.00  0.00    -0.034 C 
ATOM     11  C   UNL A   1     -21.814   1.635  28.038  0.00  0.00    +0.030 C 
ATOM     12  C   UNL A   1     -24.346   2.486  28.105  0.00  0.00    +0.047 C 
ATOM     13  C   UNL A   1     -25.499   3.107  27.837  0.00  0.00    -0.026 C 
ATOM     14  C   UNL A   1     -26.082   3.287  29.163  0.00  0.00    -0.026 C 
ATOM     15  C   UNL A   1     -26.022   2.399  29.263  0.00  0.00    +0.052 C 
ENDROOT
BRANCH   7  16
ATOM     16  C   UNL A   1     -27.029   0.396  26.009  0.00  0.00    +0.187 C 
ATOM     17  F   UNL A   1     -26.316   0.476  24.976  0.00  0.00    -0.232 F 
BRANCH  16  18
ATOM     18  C   UNL A   1     -28.371   0.536  25.878  0.00  0.00    +0.010 A 
ATOM     19  C   UNL A   1     -28.886   0.507  24.569  0.00  0.00    -0.002 A 
ATOM     20  C   UNL A   1     -30.284   0.571  24.390  0.00  0.00    -0.000 A 
ATOM     21  C   UNL A   1     -31.111   0.602  25.491  0.00  0.00    +0.005 A 
ATOM     22  C   UNL A   1     -30.622   0.569  26.768  0.00  0.00    +0.055 A 
ATOM     23  C   UNL A   1     -29.292   0.555  26.989  0.00  0.00    +0.003 A 
BRANCH  22  24
ATOM     24  C   UNL A   1     -31.620   0.675  27.901  0.00  0.00    +0.269 C 
ATOM     25  O   UNL A   1     -31.577   1.865  28.321  0.00  0.00    -0.268 OA
BRANCH  24  26
ATOM     26  N   UNL A   1     -32.035  -0.179  28.457  0.00  0.00    -0.173 NA
ATOM     27  C   UNL A   1     -32.657  -0.205  29.650  0.00  0.00    +0.107 C 
ENDBRANCH  24  26
ENDBRANCH  22  24
ENDBRANCH  16  18
ENDBRANCH   7  16
TORSDOF 4
