MODEL 4686
MODEL 1
REMARK VINA RESULT:    -8.300      0.000      0.000
REMARK INTER + INTRA:         -12.115
REMARK INTER:                 -10.241
REMARK INTRA:                  -1.875
REMARK UNBOUND:                -1.875
REMARK  Name = No_4686-gen_results/8p0m/2024-11-26-14-13-15/
REMARK  4 active torsions:
REMARK  status: ('A' for Active; 'I' for Inactive)
REMARK    1  A    between atoms: C_7  and  C_9
REMARK    2  A    between atoms: C_9  and  C_10
REMARK    3  A    between atoms: C_14  and  C_17
REMARK    4  A    between atoms: C_17  and  N_18
REMARK                            x       y       z     vdW  Elec       q    Type
REMARK                         _______ _______ _______ _____ _____    ______ ____
ROOT
ATOM      1  C   UNL A   1     -23.837  -4.082  29.051  0.00  0.00    -0.004 A 
ATOM      2  C   UNL A   1     -24.473  -4.906  28.889  0.00  0.00    -0.000 A 
ATOM      3  C   UNL A   1     -24.401  -2.915  29.611  0.00  0.00    -0.023 A 
ATOM      4  C   UNL A   1     -25.742  -2.832  29.930  0.00  0.00    -0.022 A 
ATOM      5  C   UNL A   1     -25.917  -5.080  29.139  0.00  0.00    -0.000 A 
ATOM      6  C   UNL A   1     -26.497  -3.984  29.675  0.00  0.00    -0.004 A 
ATOM      7  C   UNL A   1     -23.599  -1.685  29.926  0.00  0.00    +0.063 C 
ATOM      8  C   UNL A   1     -23.563  -1.370  31.256  0.00  0.00    +0.029 C 
ATOM      9  C   UNL A   1     -24.579  -1.084  32.199  0.00  0.00    -0.044 C 
ATOM     10  C   UNL A   1     -24.409  -1.047  33.540  0.00  0.00    -0.034 C 
ATOM     11  C   UNL A   1     -24.921   0.019  34.265  0.00  0.00    +0.030 C 
ATOM     12  C   UNL A   1     -25.755  -0.342  31.752  0.00  0.00    +0.047 C 
ATOM     13  C   UNL A   1     -26.131  -0.148  30.484  0.00  0.00    -0.026 C 
ATOM     14  C   UNL A   1     -27.125  -1.198  30.280  0.00  0.00    -0.026 C 
ATOM     15  C   UNL A   1     -26.489  -1.785  30.512  0.00  0.00    +0.052 C 
ENDROOT
BRANCH   7  16
ATOM     16  C   UNL A   1     -22.952  -0.939  28.968  0.00  0.00    +0.187 C 
ATOM     17  F   UNL A   1     -21.698  -1.016  28.900  0.00  0.00    -0.232 F 
BRANCH  16  18
ATOM     18  C   UNL A   1     -23.585  -0.036  28.179  0.00  0.00    +0.010 A 
ATOM     19  C   UNL A   1     -23.105   1.286  28.218  0.00  0.00    -0.002 A 
ATOM     20  C   UNL A   1     -23.684   2.241  27.356  0.00  0.00    -0.000 A 
ATOM     21  C   UNL A   1     -24.657   1.852  26.462  0.00  0.00    +0.005 A 
ATOM     22  C   UNL A   1     -25.088   0.556  26.376  0.00  0.00    +0.055 A 
ATOM     23  C   UNL A   1     -24.598  -0.382  27.211  0.00  0.00    +0.003 A 
BRANCH  22  24
ATOM     24  C   UNL A   1     -26.209   0.256  25.404  0.00  0.00    +0.269 C 
ATOM     25  O   UNL A   1     -25.835  -0.723  24.700  0.00  0.00    -0.268 OA
BRANCH  24  26
ATOM     26  N   UNL A   1     -27.019   0.953  25.142  0.00  0.00    -0.173 NA
ATOM     27  C   UNL A   1     -27.759   1.025  24.021  0.00  0.00    +0.107 C 
ENDBRANCH  24  26
ENDBRANCH  22  24
ENDBRANCH  16  18
ENDBRANCH   7  16
TORSDOF 4
ENDMDL
ENDMDL
