MODEL 4687
MODEL 1
REMARK VINA RESULT:    -5.223      0.000      0.000
REMARK INTER + INTRA:          -6.736
REMARK INTER:                  -6.444
REMARK INTRA:                  -0.292
REMARK UNBOUND:                -0.292
REMARK  Name = No_4687-gen_results/8p0m/2024-11-26-14-13-15/
REMARK  4 active torsions:
REMARK  status: ('A' for Active; 'I' for Inactive)
REMARK    1  A    between atoms: C_1  and  C_2
REMARK    2  A    between atoms: C_1  and  N_8
REMARK    3  A    between atoms: C_5  and  C_10
REMARK    4  A    between atoms: N_8  and  C_9
REMARK                            x       y       z     vdW  Elec       q    Type
REMARK                         _______ _______ _______ _____ _____    ______ ____
ROOT
ATOM      1  C   UNL A   1     -29.783 -10.579  30.386  0.00  0.00    -0.001 A 
ATOM      2  C   UNL A   1     -29.889  -9.929  31.600  0.00  0.00    -0.002 A 
ATOM      3  C   UNL A   1     -29.108 -10.220  32.787  0.00  0.00    +0.006 A 
ATOM      4  C   UNL A   1     -28.154 -11.261  32.735  0.00  0.00    +0.080 A 
ATOM      5  C   UNL A   1     -28.023 -11.938  31.470  0.00  0.00    +0.006 A 
ATOM      6  C   UNL A   1     -28.750 -11.620  30.346  0.00  0.00    -0.002 A 
ENDROOT
BRANCH   4   7
ATOM      7  C   UNL A   1     -27.345 -11.616  33.857  0.00  0.00    +0.388 C 
ATOM      8  O   UNL A   1     -26.948 -10.729  34.652  0.00  0.00    -0.241 OA
ATOM      9  O   UNL A   1     -26.680 -12.755  33.884  0.00  0.00    -0.241 OA
ENDBRANCH   4   7
BRANCH   1  10
ATOM     10  C   UNL A   1     -30.407 -10.262  29.400  0.00  0.00    +0.139 C 
BRANCH  10  11
ATOM     11  N   UNL A   1     -31.292 -11.186  28.921  0.00  0.00    -0.232 NA
BRANCH  11  12
ATOM     12  C   UNL A   1     -31.157 -11.681  27.674  0.00  0.00    +0.076 C 
ATOM     13  C   UNL A   1     -30.214 -11.495  26.936  0.00  0.00    -0.008 C 
ATOM     14  C   UNL A   1     -30.043 -12.008  25.565  0.00  0.00    +0.032 C 
ENDBRANCH  11  12
ENDBRANCH  10  11
ENDBRANCH   1  10
TORSDOF 4
ENDMDL
ENDMDL
