REMARK  Name = No_4687-gen_results/8p0m/2024-11-26-14-13-15/
REMARK  4 active torsions:
REMARK  status: ('A' for Active; 'I' for Inactive)
REMARK    1  A    between atoms: C_1  and  C_2
REMARK    2  A    between atoms: C_1  and  N_8
REMARK    3  A    between atoms: C_5  and  C_10
REMARK    4  A    between atoms: N_8  and  C_9
REMARK                            x       y       z     vdW  Elec       q    Type
REMARK                         _______ _______ _______ _____ _____    ______ ____
ROOT
ATOM      1  C   UNL A   1     -27.064  -0.119  28.608  0.00  0.00    -0.001 A 
ATOM      2  C   UNL A   1     -27.001   0.691  27.491  0.00  0.00    -0.002 A 
ATOM      3  C   UNL A   1     -25.855   1.482  27.083  0.00  0.00    +0.006 A 
ATOM      4  C   UNL A   1     -24.690   1.453  27.881  0.00  0.00    +0.080 A 
ATOM      5  C   UNL A   1     -24.738   0.601  29.042  0.00  0.00    +0.006 A 
ATOM      6  C   UNL A   1     -25.823  -0.169  29.389  0.00  0.00    -0.002 A 
ENDROOT
BRANCH   4   7
ATOM      7  C   UNL A   1     -23.519   2.203  27.555  0.00  0.00    +0.388 C 
ATOM      8  O   UNL A   1     -23.438   2.795  26.451  0.00  0.00    -0.241 OA
ATOM      9  O   UNL A   1     -22.377   1.989  28.180  0.00  0.00    -0.241 OA
ENDBRANCH   4   7
BRANCH   1  10
ATOM     10  C   UNL A   1     -28.016  -0.814  28.878  0.00  0.00    +0.139 C 
BRANCH  10  11
ATOM     11  N   UNL A   1     -29.215  -0.173  29.013  0.00  0.00    -0.232 NA
BRANCH  11  12
ATOM     12  C   UNL A   1     -30.246  -0.774  29.639  0.00  0.00    +0.076 C 
ATOM     13  C   UNL A   1     -30.424  -0.810  30.838  0.00  0.00    -0.008 C 
ATOM     14  C   UNL A   1     -31.531  -1.470  31.553  0.00  0.00    +0.032 C 
ENDBRANCH  11  12
ENDBRANCH  10  11
ENDBRANCH   1  10
TORSDOF 4
