REMARK  Name = No_4688-gen_results/8p0m/2024-11-26-14-13-15/
REMARK  4 active torsions:
REMARK  status: ('A' for Active; 'I' for Inactive)
REMARK    1  A    between atoms: C_1  and  C_2
REMARK    2  A    between atoms: C_1  and  C_4
REMARK    3  A    between atoms: C_5  and  C_6
REMARK    4  A    between atoms: C_6  and  C_7
REMARK                            x       y       z     vdW  Elec       q    Type
REMARK                         _______ _______ _______ _____ _____    ______ ____
ROOT
ATOM      1  C   UNL A   1     -28.991  -2.986  30.249  0.00  0.00    +0.196 C 
ATOM      2  O   UNL A   1     -27.717  -3.727  30.549  0.00  0.00    -0.213 OA
ENDROOT
BRANCH   1   3
ATOM      3  C   UNL A   1     -30.079  -3.672  30.583  0.00  0.00    +0.012 A 
ATOM      4  C   UNL A   1     -31.184  -3.070  30.579  0.00  0.00    -0.002 A 
ATOM      5  C   UNL A   1     -32.347  -3.745  31.142  0.00  0.00    -0.000 A 
ATOM      6  C   UNL A   1     -32.254  -5.136  31.322  0.00  0.00    -0.000 A 
ATOM      7  C   UNL A   1     -31.060  -5.823  31.216  0.00  0.00    -0.000 A 
ATOM      8  C   UNL A   1     -29.917  -5.097  30.887  0.00  0.00    -0.002 A 
ENDBRANCH   1   3
BRANCH   1  10
ATOM      9  C   UNL A   1     -28.467  -0.643  30.152  0.00  0.00    -0.021 C 
ATOM     10  C   UNL A   1     -28.738  -1.742  30.950  0.00  0.00    +0.006 C 
BRANCH   9  11
ATOM     11  C   UNL A   1     -28.016  -0.814  28.878  0.00  0.00    +0.109 C 
BRANCH  11  12
ATOM     12  C   UNL A   1     -27.064  -0.119  28.608  0.00  0.00    +0.334 C 
ATOM     13 CL   UNL A   1     -25.616  -0.516  28.877  0.00  0.00    -0.047 Cl
ATOM     14  F   UNL A   1     -27.072   0.305  27.152  0.00  0.00    -0.186 F 
ATOM     15  F   UNL A   1     -27.173   1.266  29.079  0.00  0.00    -0.186 F 
ENDBRANCH  11  12
ENDBRANCH   9  11
ENDBRANCH   1  10
TORSDOF 4
