MODEL 4688
MODEL 1
REMARK VINA RESULT:    -6.339      0.000      0.000
REMARK INTER + INTRA:          -8.489
REMARK INTER:                  -7.821
REMARK INTRA:                  -0.668
REMARK UNBOUND:                -0.668
REMARK  Name = No_4688-gen_results/8p0m/2024-11-26-14-13-15/
REMARK  4 active torsions:
REMARK  status: ('A' for Active; 'I' for Inactive)
REMARK    1  A    between atoms: C_1  and  C_2
REMARK    2  A    between atoms: C_1  and  C_4
REMARK    3  A    between atoms: C_5  and  C_6
REMARK    4  A    between atoms: C_6  and  C_7
REMARK                            x       y       z     vdW  Elec       q    Type
REMARK                         _______ _______ _______ _____ _____    ______ ____
ROOT
ATOM      1  C   UNL A   1     -23.877  -1.538  28.587  0.00  0.00    +0.196 C 
ATOM      2  O   UNL A   1     -22.445  -1.656  29.032  0.00  0.00    -0.213 OA
ENDROOT
BRANCH   1   3
ATOM      3  C   UNL A   1     -24.605  -2.604  28.901  0.00  0.00    +0.012 A 
ATOM      4  C   UNL A   1     -25.766  -2.418  29.349  0.00  0.00    -0.002 A 
ATOM      5  C   UNL A   1     -26.494  -3.559  29.892  0.00  0.00    -0.000 A 
ATOM      6  C   UNL A   1     -26.016  -4.839  29.561  0.00  0.00    -0.000 A 
ATOM      7  C   UNL A   1     -24.787  -5.044  28.964  0.00  0.00    -0.000 A 
ATOM      8  C   UNL A   1     -24.017  -3.924  28.656  0.00  0.00    -0.002 A 
ENDBRANCH   1   3
BRANCH   1  10
ATOM      9  C   UNL A   1     -24.396   0.795  28.334  0.00  0.00    -0.021 C 
ATOM     10  C   UNL A   1     -24.235  -0.274  29.201  0.00  0.00    +0.006 C 
BRANCH   9  11
ATOM     11  C   UNL A   1     -23.815   0.773  27.102  0.00  0.00    +0.109 C 
BRANCH  11  12
ATOM     12  C   UNL A   1     -23.025   1.671  26.928  0.00  0.00    +0.334 C 
ATOM     13 CL   UNL A   1     -21.590   1.655  27.444  0.00  0.00    -0.047 Cl
ATOM     14  F   UNL A   1     -22.891   2.025  25.459  0.00  0.00    -0.186 F 
ATOM     15  F   UNL A   1     -23.537   3.003  27.269  0.00  0.00    -0.186 F 
ENDBRANCH  11  12
ENDBRANCH   9  11
ENDBRANCH   1  10
TORSDOF 4
ENDMDL
ENDMDL
