MODEL 4689
MODEL 1
REMARK VINA RESULT:    -5.226      0.000      0.000
REMARK INTER + INTRA:          -5.678
REMARK INTER:                  -5.532
REMARK INTRA:                  -0.146
REMARK UNBOUND:                -0.146
REMARK  Name = No_4689-gen_results/8p0m/2024-11-26-14-13-15/
REMARK  1 active torsions:
REMARK  status: ('A' for Active; 'I' for Inactive)
REMARK    1  A    between atoms: C_4  and  C_7
REMARK                            x       y       z     vdW  Elec       q    Type
REMARK                         _______ _______ _______ _____ _____    ______ ____
ROOT
ATOM      1  C   UNL A   1     -26.665  -3.988  29.946  0.00  0.00    -0.000 A 
ATOM      2  C   UNL A   1     -26.190  -4.886  29.666  0.00  0.00    -0.000 A 
ATOM      3  C   UNL A   1     -25.884  -2.751  29.782  0.00  0.00    +0.004 A 
ATOM      4  C   UNL A   1     -24.610  -2.777  29.144  0.00  0.00    +0.071 A 
ATOM      5  C   UNL A   1     -24.924  -5.178  28.940  0.00  0.00    -0.000 A 
ATOM      6  C   UNL A   1     -24.167  -4.056  28.778  0.00  0.00    +0.004 A 
ENDROOT
BRANCH   4   7
ATOM      7  C   UNL A   1     -23.818  -1.608  28.951  0.00  0.00    +0.419 C 
ATOM      8  F   UNL A   1     -22.621  -1.832  28.931  0.00  0.00    -0.166 F 
ATOM      9  F   UNL A   1     -24.080  -0.673  29.981  0.00  0.00    -0.166 F 
ATOM     10  F   UNL A   1     -24.171  -0.977  27.813  0.00  0.00    -0.166 F 
ENDBRANCH   4   7
TORSDOF 1
ENDMDL
ENDMDL
