MODEL 468
MODEL 1
REMARK VINA RESULT:    -5.499      0.000      0.000
REMARK INTER + INTRA:          -5.499
REMARK INTER:                  -5.499
REMARK INTRA:                   0.000
REMARK UNBOUND:                 0.000
REMARK  Name = No_468-gen_results/8p0m/2024-11-26-14-13-15/
REMARK  0 active torsions:
REMARK  status: ('A' for Active; 'I' for Inactive)
REMARK                            x       y       z     vdW  Elec       q    Type
REMARK                         _______ _______ _______ _____ _____    ______ ____
ROOT
ATOM      1  C   UNL A   1     -26.527  -3.850  29.866  0.00  0.00    +0.000 A 
ATOM      2  C   UNL A   1     -26.173  -4.820  29.652  0.00  0.00    +0.000 A 
ATOM      3  C   UNL A   1     -25.590  -2.740  29.628  0.00  0.00    +0.000 A 
ATOM      4  C   UNL A   1     -25.778  -1.340  29.978  0.00  0.00    +0.000 A 
ATOM      5  C   UNL A   1     -24.956  -5.290  28.948  0.00  0.00    +0.000 A 
ATOM      6  C   UNL A   1     -24.021  -4.296  28.680  0.00  0.00    +0.000 A 
ATOM      7  C   UNL A   1     -24.296  -2.978  28.979  0.00  0.00    +0.000 A 
ATOM      8  C   UNL A   1     -24.664  -0.507  30.270  0.00  0.00    +0.000 A 
ATOM      9  C   UNL A   1     -23.474  -0.682  29.510  0.00  0.00    +0.000 A 
ATOM     10  C   UNL A   1     -23.267  -1.955  28.995  0.00  0.00    +0.000 A 
ENDROOT
TORSDOF 0
ENDMDL
ENDMDL
