REMARK  Name = No_469-gen_results/8p0m/2024-11-26-14-13-15/
REMARK  1 active torsions:
REMARK  status: ('A' for Active; 'I' for Inactive)
REMARK    1  A    between atoms: C_2  and  C_5
REMARK                            x       y       z     vdW  Elec       q    Type
REMARK                         _______ _______ _______ _____ _____    ______ ____
ROOT
ATOM      1  C   UNL A   1     -28.016  -0.814  28.878  0.00  0.00    +0.003 A 
ATOM      2  C   UNL A   1     -28.469  -0.785  29.829  0.00  0.00    +0.042 A 
ATOM      3  C   UNL A   1     -26.504  -0.778  28.877  0.00  0.00    +0.000 A 
ATOM      4  C   UNL A   1     -25.654  -0.660  27.719  0.00  0.00    +0.000 A 
ATOM      5  C   UNL A   1     -24.208  -0.635  27.968  0.00  0.00    +0.000 A 
ATOM      6  C   UNL A   1     -23.706  -0.791  29.238  0.00  0.00    +0.000 A 
ATOM      7  C   UNL A   1     -24.507  -0.906  30.319  0.00  0.00    +0.000 A 
ATOM      8  C   UNL A   1     -25.843  -0.938  30.174  0.00  0.00    +0.000 A 
ATOM      9  C   UNL A   1     -27.857  -0.969  31.222  0.00  0.00    +0.003 A 
ATOM     10  C   UNL A   1     -26.635  -1.025  31.344  0.00  0.00    +0.000 A 
ENDROOT
BRANCH   2  11
ATOM     11  C   UNL A   1     -29.992  -0.813  29.958  0.00  0.00    +0.234 C 
ATOM     12  O   UNL A   1     -30.685  -1.641  30.337  0.00  0.00    -0.283 OA
ENDBRANCH   2  11
TORSDOF 1
