REMARK  Name = No_4690-gen_results/8p0m/2024-11-26-14-13-15/
REMARK  3 active torsions:
REMARK  status: ('A' for Active; 'I' for Inactive)
REMARK    1  A    between atoms: C_1  and  C_2
REMARK    2  A    between atoms: C_1  and  N_11
REMARK    3  A    between atoms: C_5  and  C_6
REMARK                            x       y       z     vdW  Elec       q    Type
REMARK                         _______ _______ _______ _____ _____    ______ ____
ROOT
ATOM      1  C   UNL A   1     -27.064  -0.119  28.608  0.00  0.00    -0.002 A 
ATOM      2  C   UNL A   1     -26.876   1.133  28.913  0.00  0.00    -0.002 A 
ATOM      3  C   UNL A   1     -25.688   1.952  28.567  0.00  0.00    +0.006 A 
ATOM      4  C   UNL A   1     -24.639   1.283  27.875  0.00  0.00    +0.080 A 
ATOM      5  C   UNL A   1     -25.843  -0.737  27.921  0.00  0.00    -0.002 A 
ATOM      6  C   UNL A   1     -24.690  -0.052  27.583  0.00  0.00    +0.006 A 
ENDROOT
BRANCH   4   7
ATOM      7  C   UNL A   1     -23.456   2.000  27.565  0.00  0.00    +0.388 C 
ATOM      8  O   UNL A   1     -22.784   2.478  28.251  0.00  0.00    -0.241 OA
ATOM      9  O   UNL A   1     -23.201   2.037  26.191  0.00  0.00    -0.241 OA
ENDBRANCH   4   7
BRANCH   1  10
ATOM     10  C   UNL A   1     -28.016  -0.814  28.878  0.00  0.00    +0.118 C 
BRANCH  10  11
ATOM     11  N   UNL A   1     -29.244  -0.237  29.081  0.00  0.00    -0.300 N 
ATOM     12  C   UNL A   1     -29.632   0.684  28.439  0.00  0.00    +0.060 C 
ATOM     13  C   UNL A   1     -30.998   1.069  28.712  0.00  0.00    +0.026 C 
ATOM     14  C   UNL A   1     -30.165  -0.871  30.020  0.00  0.00    +0.131 C 
ATOM     15  C   UNL A   1     -31.348   0.109  29.696  0.00  0.00    +0.204 C 
ATOM     16  F   UNL A   1     -32.508  -0.115  30.236  0.00  0.00    -0.231 F 
ENDBRANCH  10  11
ENDBRANCH   1  10
TORSDOF 3
