MODEL 4690
MODEL 1
REMARK VINA RESULT:    -6.342      0.000      0.000
REMARK INTER + INTRA:          -7.525
REMARK INTER:                  -7.454
REMARK INTRA:                  -0.071
REMARK UNBOUND:                -0.071
REMARK  Name = No_4690-gen_results/8p0m/2024-11-26-14-13-15/
REMARK  3 active torsions:
REMARK  status: ('A' for Active; 'I' for Inactive)
REMARK    1  A    between atoms: C_1  and  C_2
REMARK    2  A    between atoms: C_1  and  N_11
REMARK    3  A    between atoms: C_5  and  C_6
REMARK                            x       y       z     vdW  Elec       q    Type
REMARK                         _______ _______ _______ _____ _____    ______ ____
ROOT
ATOM      1  C   UNL A   1     -23.710  -0.846  28.674  0.00  0.00    -0.002 A 
ATOM      2  C   UNL A   1     -24.661  -0.596  27.820  0.00  0.00    -0.002 A 
ATOM      3  C   UNL A   1     -24.646   0.456  26.773  0.00  0.00    +0.006 A 
ATOM      4  C   UNL A   1     -23.497   1.296  26.737  0.00  0.00    +0.080 A 
ATOM      5  C   UNL A   1     -22.561   0.161  28.573  0.00  0.00    -0.002 A 
ATOM      6  C   UNL A   1     -22.479   1.182  27.644  0.00  0.00    +0.006 A 
ENDROOT
BRANCH   4   7
ATOM      7  C   UNL A   1     -23.449   2.352  25.794  0.00  0.00    +0.388 C 
ATOM      8  O   UNL A   1     -22.670   2.561  25.087  0.00  0.00    -0.241 OA
ATOM      9  O   UNL A   1     -24.585   3.165  25.847  0.00  0.00    -0.241 OA
ENDBRANCH   4   7
BRANCH   1  10
ATOM     10  C   UNL A   1     -23.694  -1.690  29.540  0.00  0.00    +0.118 C 
BRANCH  10  11
ATOM     11  N   UNL A   1     -24.437  -2.833  29.390  0.00  0.00    -0.300 N 
ATOM     12  C   UNL A   1     -24.002  -3.818  28.888  0.00  0.00    +0.060 C 
ATOM     13  C   UNL A   1     -24.891  -4.956  28.937  0.00  0.00    +0.026 C 
ATOM     14  C   UNL A   1     -25.762  -2.888  30.002  0.00  0.00    +0.131 C 
ATOM     15  C   UNL A   1     -25.995  -4.395  29.629  0.00  0.00    +0.204 C 
ATOM     16  F   UNL A   1     -27.062  -4.989  30.073  0.00  0.00    -0.231 F 
ENDBRANCH  10  11
ENDBRANCH   1  10
TORSDOF 3
ENDMDL
ENDMDL
