REMARK  Name = No_4692-gen_results/8p0m/2024-11-26-14-13-15/
REMARK  2 active torsions:
REMARK  status: ('A' for Active; 'I' for Inactive)
REMARK    1  A    between atoms: C_4  and  C_13
REMARK    2  A    between atoms: C_16  and  C_17
REMARK                            x       y       z     vdW  Elec       q    Type
REMARK                         _______ _______ _______ _____ _____    ______ ____
ROOT
ATOM      1  C   UNL A   1     -28.016  -0.814  28.878  0.00  0.00    -0.004 A 
ATOM      2  C   UNL A   1     -28.469  -0.785  29.829  0.00  0.00    -0.000 A 
ATOM      3  C   UNL A   1     -27.136   0.236  28.535  0.00  0.00    -0.023 A 
ATOM      4  C   UNL A   1     -26.335   0.290  27.284  0.00  0.00    +0.038 C 
ATOM      5  C   UNL A   1     -28.369   0.196  30.924  0.00  0.00    -0.000 A 
ATOM      6  C   UNL A   1     -27.516   1.266  30.654  0.00  0.00    -0.005 A 
ATOM      7  C   UNL A   1     -26.841   1.294  29.476  0.00  0.00    -0.025 A 
ATOM      8  C   UNL A   1     -25.677   1.520  26.977  0.00  0.00    +0.013 C 
ATOM      9  C   UNL A   1     -24.651   1.554  26.210  0.00  0.00    +0.001 C 
ATOM     10  C   UNL A   1     -23.855   0.522  25.762  0.00  0.00    +0.000 C 
ATOM     11  C   UNL A   1     -25.225  -0.723  27.178  0.00  0.00    +0.008 C 
ATOM     12  C   UNL A   1     -24.204  -0.634  26.274  0.00  0.00    +0.001 C 
ATOM     13  C   UNL A   1     -26.338   2.827  27.438  0.00  0.00    +0.039 C 
ATOM     14  C   UNL A   1     -25.687   4.100  27.039  0.00  0.00    +0.043 C 
ATOM     15  C   UNL A   1     -26.442   2.795  29.031  0.00  0.00    +0.031 C 
ATOM     16  C   UNL A   1     -27.760   2.984  26.851  0.00  0.00    +0.029 C 
ATOM     17  C   UNL A   1     -27.834   4.294  26.054  0.00  0.00    +0.112 C 
ATOM     18  C   UNL A   1     -24.755   4.472  27.228  0.00  0.00    +0.013 C 
ATOM     19  N   UNL A   1     -26.703   4.770  26.215  0.00  0.00    -0.242 NA
ENDROOT
BRANCH   4  20
ATOM     20  C   UNL A   1     -27.304   0.095  26.049  0.00  0.00    -0.019 A 
ATOM     21  C   UNL A   1     -27.002   0.195  24.807  0.00  0.00    -0.004 A 
ATOM     22  C   UNL A   1     -28.725   0.090  26.374  0.00  0.00    +0.003 A 
ATOM     23  C   UNL A   1     -29.516   0.795  25.640  0.00  0.00    +0.080 A 
ATOM     24  C   UNL A   1     -29.143   1.472  24.460  0.00  0.00    +0.007 A 
ATOM     25  C   UNL A   1     -27.819   1.140  23.961  0.00  0.00    -0.000 A 
BRANCH  23  26
ATOM     26  C   UNL A   1     -30.904   0.883  26.023  0.00  0.00    +0.388 C 
ATOM     27  O   UNL A   1     -31.378   1.798  26.377  0.00  0.00    -0.241 OA
ATOM     28  O   UNL A   1     -31.543  -0.294  25.943  0.00  0.00    -0.241 OA
ENDBRANCH  23  26
ENDBRANCH   4  20
TORSDOF 2
