MODEL 4692
MODEL 1
REMARK VINA RESULT:    -7.564      0.000      0.000
REMARK INTER + INTRA:          -8.425
REMARK INTER:                  -8.448
REMARK INTRA:                   0.023
REMARK UNBOUND:                 0.023
REMARK  Name = No_4692-gen_results/8p0m/2024-11-26-14-13-15/
REMARK  2 active torsions:
REMARK  status: ('A' for Active; 'I' for Inactive)
REMARK    1  A    between atoms: C_4  and  C_13
REMARK    2  A    between atoms: C_16  and  C_17
REMARK                            x       y       z     vdW  Elec       q    Type
REMARK                         _______ _______ _______ _____ _____    ______ ____
ROOT
ATOM      1  C   UNL A   1     -19.123 -22.915   4.623  0.00  0.00    -0.004 A 
ATOM      2  C   UNL A   1     -19.078 -23.110   3.588  0.00  0.00    -0.000 A 
ATOM      3  C   UNL A   1     -20.268 -22.255   5.120  0.00  0.00    -0.023 A 
ATOM      4  C   UNL A   1     -20.538 -22.004   6.561  0.00  0.00    +0.038 C 
ATOM      5  C   UNL A   1     -20.021 -22.799   2.499  0.00  0.00    -0.000 A 
ATOM      6  C   UNL A   1     -21.178 -22.142   2.917  0.00  0.00    -0.005 A 
ATOM      7  C   UNL A   1     -21.357 -21.894   4.240  0.00  0.00    -0.025 A 
ATOM      8  C   UNL A   1     -21.616 -21.124   6.884  0.00  0.00    +0.013 C 
ATOM      9  C   UNL A   1     -22.202 -21.179   8.022  0.00  0.00    +0.001 C 
ATOM     10  C   UNL A   1     -22.139 -22.152   8.997  0.00  0.00    +0.000 C 
ATOM     11  C   UNL A   1     -20.839 -23.226   7.389  0.00  0.00    +0.008 C 
ATOM     12  C   UNL A   1     -21.408 -23.177   8.630  0.00  0.00    +0.001 C 
ATOM     13  C   UNL A   1     -21.936 -19.985   5.906  0.00  0.00    +0.039 C 
ATOM     14  C   UNL A   1     -23.002 -19.028   6.297  0.00  0.00    +0.043 C 
ATOM     15  C   UNL A   1     -22.333 -20.633   4.502  0.00  0.00    +0.031 C 
ATOM     16  C   UNL A   1     -20.718 -19.055   5.697  0.00  0.00    +0.029 C 
ATOM     17  C   UNL A   1     -21.109 -17.619   6.074  0.00  0.00    +0.112 C 
ATOM     18  C   UNL A   1     -23.992 -19.167   6.503  0.00  0.00    +0.013 C 
ATOM     19  N   UNL A   1     -22.303 -17.738   6.378  0.00  0.00    -0.242 NA
ENDROOT
BRANCH   4  20
ATOM     20  C   UNL A   1     -19.287 -21.271   7.194  0.00  0.00    -0.019 A 
ATOM     21  C   UNL A   1     -18.619 -20.304   6.683  0.00  0.00    -0.004 A 
ATOM     22  C   UNL A   1     -18.673 -21.961   8.322  0.00  0.00    +0.003 A 
ATOM     23  C   UNL A   1     -17.389 -22.071   8.337  0.00  0.00    +0.080 A 
ATOM     24  C   UNL A   1     -16.509 -21.463   7.418  0.00  0.00    +0.007 A 
ATOM     25  C   UNL A   1     -17.127 -20.478   6.546  0.00  0.00    -0.000 A 
BRANCH  23  26
ATOM     26  C   UNL A   1     -16.784 -22.848   9.392  0.00  0.00    +0.388 C 
ATOM     27  O   UNL A   1     -16.991 -23.904   9.561  0.00  0.00    -0.241 OA
ATOM     28  O   UNL A   1     -15.974 -22.121  10.176  0.00  0.00    -0.241 OA
ENDBRANCH  23  26
ENDBRANCH   4  20
TORSDOF 2
ENDMDL
ENDMDL
