MODEL 4693
MODEL 1
REMARK VINA RESULT:    -6.306      0.000      0.000
REMARK INTER + INTRA:         -12.834
REMARK INTER:                  -9.255
REMARK INTRA:                  -3.579
REMARK UNBOUND:                -3.579
REMARK  Name = No_4693-gen_results/8p0m/2024-11-26-14-13-15/
REMARK  8 active torsions:
REMARK  status: ('A' for Active; 'I' for Inactive)
REMARK    1  A    between atoms: C_3  and  O_7
REMARK    2  A    between atoms: C_6  and  C_17
REMARK    3  A    between atoms: O_7  and  C_8
REMARK    4  A    between atoms: C_12  and  C_14
REMARK    5  A    between atoms: C_14  and  O_15
REMARK    6  A    between atoms: O_15  and  C_16
REMARK    7  A    between atoms: C_16  and  C_21
REMARK    8  A    between atoms: C_21  and  C_22
REMARK                            x       y       z     vdW  Elec       q    Type
REMARK                         _______ _______ _______ _____ _____    ______ ____
ROOT
ATOM      1  C   UNL A   1     -24.647  -2.235  29.557  0.00  0.00    +0.144 A 
ATOM      2  C   UNL A   1     -24.052  -3.177  28.847  0.00  0.00    +0.037 A 
ATOM      3  C   UNL A   1     -24.396  -4.551  28.998  0.00  0.00    +0.003 A 
ATOM      4  C   UNL A   1     -25.678  -4.778  29.251  0.00  0.00    -0.000 A 
ATOM      5  C   UNL A   1     -26.002  -2.443  30.075  0.00  0.00    +0.042 A 
ATOM      6  C   UNL A   1     -26.435  -3.800  30.006  0.00  0.00    +0.001 A 
ENDROOT
BRANCH   1   7
ATOM      7  O   UNL A   1     -24.468  -0.913  29.377  0.00  0.00    -0.454 OA
BRANCH   7  10
ATOM      8  C   UNL A   1     -25.575  -0.809  27.175  0.00  0.00    +0.037 A 
ATOM      9  C   UNL A   1     -25.530  -0.324  26.240  0.00  0.00    +0.003 A 
ATOM     10  C   UNL A   1     -24.517  -0.400  28.098  0.00  0.00    +0.145 A 
ATOM     11  C   UNL A   1     -23.579   0.545  27.762  0.00  0.00    +0.041 A 
ATOM     12  C   UNL A   1     -24.678   0.692  25.621  0.00  0.00    +0.004 A 
ATOM     13  C   UNL A   1     -23.651   1.095  26.508  0.00  0.00    +0.074 A 
BRANCH  13  14
ATOM     14  C   UNL A   1     -22.659   2.122  26.055  0.00  0.00    +0.419 C 
ATOM     15  F   UNL A   1     -21.541   1.998  26.473  0.00  0.00    -0.166 F 
ATOM     16  F   UNL A   1     -22.612   2.043  24.708  0.00  0.00    -0.166 F 
ATOM     17  F   UNL A   1     -23.167   3.338  26.319  0.00  0.00    -0.166 F 
ENDBRANCH  13  14
ENDBRANCH   7  10
ENDBRANCH   1   7
BRANCH   5  18
ATOM     18  C   UNL A   1     -26.759  -1.508  30.746  0.00  0.00    +0.172 C 
BRANCH  18  19
ATOM     19  O   UNL A   1     -27.899  -1.362  30.263  0.00  0.00    -0.348 OA
BRANCH  19  20
ATOM     20  C   UNL A   1     -28.192  -0.428  29.355  0.00  0.00    +0.147 C 
BRANCH  20  21
ATOM     21  C   UNL A   1     -28.031   0.962  29.692  0.00  0.00    +0.058 C 
BRANCH  21  22
ATOM     22  C   UNL A   1     -27.480   1.800  28.815  0.00  0.00    -0.024 A 
ATOM     23  C   UNL A   1     -28.040   2.015  27.787  0.00  0.00    -0.004 A 
ATOM     24  C   UNL A   1     -27.524   2.902  26.820  0.00  0.00    -0.000 A 
ATOM     25  C   UNL A   1     -26.384   3.626  27.142  0.00  0.00    -0.000 A 
ATOM     26  C   UNL A   1     -25.760   3.445  28.377  0.00  0.00    -0.005 A 
ATOM     27  C   UNL A   1     -26.294   2.532  29.278  0.00  0.00    -0.026 A 
ATOM     28  C   UNL A   1     -25.652   2.337  30.578  0.00  0.00    +0.031 C 
ENDBRANCH  21  22
ENDBRANCH  20  21
ENDBRANCH  19  20
ENDBRANCH  18  19
ENDBRANCH   5  18
TORSDOF 8
ENDMDL
ENDMDL
