REMARK  Name = No_4693-gen_results/8p0m/2024-11-26-14-13-15/
REMARK  8 active torsions:
REMARK  status: ('A' for Active; 'I' for Inactive)
REMARK    1  A    between atoms: C_3  and  O_7
REMARK    2  A    between atoms: C_6  and  C_17
REMARK    3  A    between atoms: O_7  and  C_8
REMARK    4  A    between atoms: C_12  and  C_14
REMARK    5  A    between atoms: C_14  and  O_15
REMARK    6  A    between atoms: O_15  and  C_16
REMARK    7  A    between atoms: C_16  and  C_21
REMARK    8  A    between atoms: C_21  and  C_22
REMARK                            x       y       z     vdW  Elec       q    Type
REMARK                         _______ _______ _______ _____ _____    ______ ____
ROOT
ATOM      1  C   UNL A   1     -25.036   0.370  27.497  0.00  0.00    +0.144 A 
ATOM      2  C   UNL A   1     -24.306  -0.418  28.266  0.00  0.00    +0.037 A 
ATOM      3  C   UNL A   1     -22.893  -0.261  28.363  0.00  0.00    +0.003 A 
ATOM      4  C   UNL A   1     -22.468   0.993  28.298  0.00  0.00    -0.000 A 
ATOM      5  C   UNL A   1     -24.577   1.725  27.178  0.00  0.00    +0.042 A 
ATOM      6  C   UNL A   1     -23.206   1.951  27.499  0.00  0.00    +0.001 A 
ENDROOT
BRANCH   1   7
ATOM      7  O   UNL A   1     -26.382   0.366  27.456  0.00  0.00    -0.454 OA
BRANCH   7  10
ATOM      8  C   UNL A   1     -28.016  -0.814  28.878  0.00  0.00    +0.037 A 
ATOM      9  C   UNL A   1     -28.469  -0.785  29.829  0.00  0.00    +0.003 A 
ATOM     10  C   UNL A   1     -27.087   0.290  28.638  0.00  0.00    +0.145 A 
ATOM     11  C   UNL A   1     -26.832   1.249  29.587  0.00  0.00    +0.041 A 
ATOM     12  C   UNL A   1     -28.391   0.080  31.006  0.00  0.00    +0.004 A 
ATOM     13  C   UNL A   1     -27.494   1.152  30.784  0.00  0.00    +0.074 A 
BRANCH  13  14
ATOM     14  C   UNL A   1     -27.284   2.164  31.868  0.00  0.00    +0.419 C 
ATOM     15  F   UNL A   1     -27.827   1.940  32.914  0.00  0.00    -0.166 F 
ATOM     16  F   UNL A   1     -25.953   2.217  32.091  0.00  0.00    -0.166 F 
ATOM     17  F   UNL A   1     -27.607   3.374  31.378  0.00  0.00    -0.166 F 
ENDBRANCH  13  14
ENDBRANCH   7  10
ENDBRANCH   1   7
BRANCH   5  18
ATOM     18  C   UNL A   1     -25.286   2.668  26.468  0.00  0.00    +0.172 C 
BRANCH  18  19
ATOM     19  O   UNL A   1     -25.974   3.413  27.193  0.00  0.00    -0.348 OA
BRANCH  19  20
ATOM     20  C   UNL A   1     -27.054   4.065  26.753  0.00  0.00    +0.147 C 
BRANCH  20  21
ATOM     21  C   UNL A   1     -28.321   3.853  27.401  0.00  0.00    +0.058 C 
BRANCH  21  22
ATOM     22  C   UNL A   1     -29.267   3.136  26.796  0.00  0.00    -0.024 A 
ATOM     23  C   UNL A   1     -29.011   2.582  25.774  0.00  0.00    -0.004 A 
ATOM     24  C   UNL A   1     -29.957   1.794  25.088  0.00  0.00    -0.000 A 
ATOM     25  C   UNL A   1     -31.186   1.575  25.694  0.00  0.00    -0.000 A 
ATOM     26  C   UNL A   1     -31.474   2.153  26.932  0.00  0.00    -0.005 A 
ATOM     27  C   UNL A   1     -30.515   2.948  27.547  0.00  0.00    -0.026 A 
ATOM     28  C   UNL A   1     -30.802   3.555  28.847  0.00  0.00    +0.031 C 
ENDBRANCH  21  22
ENDBRANCH  20  21
ENDBRANCH  19  20
ENDBRANCH  18  19
ENDBRANCH   5  18
TORSDOF 8
