REMARK  Name = No_4694-gen_results/8p0m/2024-11-26-14-13-15/
REMARK  4 active torsions:
REMARK  status: ('A' for Active; 'I' for Inactive)
REMARK    1  A    between atoms: C_2  and  C_14
REMARK    2  A    between atoms: C_3  and  C_4
REMARK    3  A    between atoms: C_8  and  C_13
REMARK    4  A    between atoms: C_10  and  S_19
REMARK                            x       y       z     vdW  Elec       q    Type
REMARK                         _______ _______ _______ _____ _____    ______ ____
ROOT
ATOM      1  C   UNL A   1     -28.016  -0.814  28.878  0.00  0.00    +0.016 C 
ATOM      2  C   UNL A   1     -28.469  -0.785  29.829  0.00  0.00    +0.104 C 
ATOM      3  C   UNL A   1     -26.504  -0.778  28.877  0.00  0.00    +0.034 C 
ATOM      4  C   UNL A   1     -27.987  -1.501  31.083  0.00  0.00    +0.012 C 
ATOM      5  C   UNL A   1     -26.600  -1.612  31.125  0.00  0.00    +0.012 C 
ATOM      6  C   UNL A   1     -25.788  -1.289  30.024  0.00  0.00    +0.107 C 
ENDROOT
BRANCH   3   7
ATOM      7  C   UNL A   1     -25.762  -0.002  27.971  0.00  0.00    -0.022 A 
ATOM      8  C   UNL A   1     -25.203   1.175  28.512  0.00  0.00    -0.003 A 
ATOM      9  C   UNL A   1     -24.548   1.916  27.982  0.00  0.00    +0.020 A 
ATOM     10  C   UNL A   1     -24.535   2.225  26.676  0.00  0.00    +0.129 A 
ATOM     11  C   UNL A   1     -25.175   1.153  25.890  0.00  0.00    +0.020 A 
ATOM     12  C   UNL A   1     -25.862   0.044  26.534  0.00  0.00    -0.003 A 
BRANCH  10  13
ATOM     13  S   UNL A   1     -23.650   3.372  25.791  0.00  0.00    +0.121 S 
ATOM     14  O   UNL A   1     -24.535   4.422  25.724  0.00  0.00    -0.147 OA
ATOM     15  O   UNL A   1     -22.682   3.666  26.806  0.00  0.00    -0.147 OA
ENDBRANCH  10  13
ENDBRANCH   3   7
BRANCH   6  16
ATOM     16  C   UNL A   1     -24.371  -1.421  29.984  0.00  0.00    +0.365 C 
ATOM     17  O   UNL A   1     -23.922  -2.431  29.368  0.00  0.00    -0.246 OA
ATOM     18  O   UNL A   1     -23.710  -1.083  31.130  0.00  0.00    -0.246 OA
ENDBRANCH   6  16
BRANCH   2  19
ATOM     19  C   UNL A   1     -30.050  -0.601  29.877  0.00  0.00    +0.364 C 
ATOM     20  O   UNL A   1     -30.608  -0.450  28.912  0.00  0.00    -0.246 OA
ATOM     21  O   UNL A   1     -30.637  -0.498  31.062  0.00  0.00    -0.246 OA
ENDBRANCH   2  19
TORSDOF 4
