MODEL 4694
MODEL 1
REMARK VINA RESULT:    -6.550      0.000      0.000
REMARK INTER + INTRA:          -8.899
REMARK INTER:                  -8.081
REMARK INTRA:                  -0.818
REMARK UNBOUND:                -0.818
REMARK  Name = No_4694-gen_results/8p0m/2024-11-26-14-13-15/
REMARK  4 active torsions:
REMARK  status: ('A' for Active; 'I' for Inactive)
REMARK    1  A    between atoms: C_2  and  C_14
REMARK    2  A    between atoms: C_3  and  C_4
REMARK    3  A    between atoms: C_8  and  C_13
REMARK    4  A    between atoms: C_10  and  S_19
REMARK                            x       y       z     vdW  Elec       q    Type
REMARK                         _______ _______ _______ _____ _____    ______ ____
ROOT
ATOM      1  C   UNL A   1     -28.069 -11.818  30.984  0.00  0.00    +0.016 C 
ATOM      2  C   UNL A   1     -28.275 -11.718  32.012  0.00  0.00    +0.104 C 
ATOM      3  C   UNL A   1     -29.171 -11.364  30.053  0.00  0.00    +0.034 C 
ATOM      4  C   UNL A   1     -28.998 -10.556  32.681  0.00  0.00    +0.012 C 
ATOM      5  C   UNL A   1     -29.970  -9.997  31.856  0.00  0.00    +0.012 C 
ATOM      6  C   UNL A   1     -30.092 -10.343  30.499  0.00  0.00    +0.107 C 
ENDROOT
BRANCH   3   7
ATOM      7  C   UNL A   1     -29.544 -12.085  28.906  0.00  0.00    -0.022 A 
ATOM      8  C   UNL A   1     -30.115 -13.350  29.157  0.00  0.00    -0.003 A 
ATOM      9  C   UNL A   1     -30.515 -14.072  28.397  0.00  0.00    +0.020 A 
ATOM     10  C   UNL A   1     -30.126 -14.235  27.123  0.00  0.00    +0.129 A 
ATOM     11  C   UNL A   1     -29.397 -13.040  26.654  0.00  0.00    +0.020 A 
ATOM     12  C   UNL A   1     -29.035 -11.964  27.563  0.00  0.00    -0.003 A 
BRANCH  10  13
ATOM     13  S   UNL A   1     -30.604 -15.336  25.922  0.00  0.00    +0.121 S 
ATOM     14  O   UNL A   1     -29.444 -15.489  25.200  0.00  0.00    -0.147 OA
ATOM     15  O   UNL A   1     -30.752 -16.474  26.780  0.00  0.00    -0.147 OA
ENDBRANCH  10  13
ENDBRANCH   3   7
BRANCH   6  16
ATOM     16  C   UNL A   1     -31.032  -9.778  29.591  0.00  0.00    +0.365 C 
ATOM     17  O   UNL A   1     -30.943  -8.530  29.401  0.00  0.00    -0.246 OA
ATOM     18  O   UNL A   1     -32.300 -10.279  29.660  0.00  0.00    -0.246 OA
ENDBRANCH   6  16
BRANCH   2  19
ATOM     19  C   UNL A   1     -27.244 -12.379  33.029  0.00  0.00    +0.364 C 
ATOM     20  O   UNL A   1     -26.383 -12.975  32.618  0.00  0.00    -0.246 OA
ATOM     21  O   UNL A   1     -27.512 -12.318  34.327  0.00  0.00    -0.246 OA
ENDBRANCH   2  19
TORSDOF 4
ENDMDL
ENDMDL
