MODEL 4695
MODEL 1
REMARK VINA RESULT:    -5.393      0.000      0.000
REMARK INTER + INTRA:          -5.393
REMARK INTER:                  -5.393
REMARK INTRA:                   0.000
REMARK UNBOUND:                 0.000
REMARK  Name = No_4695-gen_results/8p0m/2024-11-26-14-13-15/
REMARK  0 active torsions:
REMARK  status: ('A' for Active; 'I' for Inactive)
REMARK                            x       y       z     vdW  Elec       q    Type
REMARK                         _______ _______ _______ _____ _____    ______ ____
ROOT
ATOM      1  C   UNL A   1     -23.457  -1.223  29.589  0.00  0.00    +0.077 A 
ATOM      2 CL   UNL A   1     -22.580  -1.143  28.910  0.00  0.00    -0.081 Cl
ATOM      3  C   UNL A   1     -24.335  -2.434  29.534  0.00  0.00    +0.015 A 
ATOM      4  C   UNL A   1     -25.628  -2.570  30.079  0.00  0.00    +0.036 A 
ATOM      5  C   UNL A   1     -26.492  -3.750  29.901  0.00  0.00    +0.003 A 
ATOM      6  C   UNL A   1     -25.874  -4.877  29.312  0.00  0.00    +0.000 A 
ATOM      7  C   UNL A   1     -24.608  -4.823  28.857  0.00  0.00    +0.000 A 
ATOM      8  C   UNL A   1     -23.863  -3.715  28.945  0.00  0.00    +0.001 A 
ATOM      9  C   UNL A   1     -24.198  -0.236  30.407  0.00  0.00    +0.112 A 
ATOM     10  N   UNL A   1     -25.315  -0.315  31.011  0.00  0.00    -0.225 NA
ATOM     11  C   UNL A   1     -26.164  -1.411  30.789  0.00  0.00    +0.170 A 
ATOM     12  N   UNL A   1     -27.363  -1.555  31.409  0.00  0.00    -0.107 NA
ENDROOT
TORSDOF 0
ENDMDL
ENDMDL
