REMARK  Name = No_4695-gen_results/8p0m/2024-11-26-14-13-15/
REMARK  0 active torsions:
REMARK  status: ('A' for Active; 'I' for Inactive)
REMARK                            x       y       z     vdW  Elec       q    Type
REMARK                         _______ _______ _______ _____ _____    ______ ____
ROOT
ATOM      1  C   UNL A   1     -28.016  -0.814  28.878  0.00  0.00    +0.077 A 
ATOM      2 CL   UNL A   1     -28.621  -1.185  29.735  0.00  0.00    -0.081 Cl
ATOM      3  C   UNL A   1     -26.523  -0.788  28.975  0.00  0.00    +0.015 A 
ATOM      4  C   UNL A   1     -25.630  -0.085  28.141  0.00  0.00    +0.036 A 
ATOM      5  C   UNL A   1     -24.174  -0.007  28.349  0.00  0.00    +0.003 A 
ATOM      6  C   UNL A   1     -23.651  -0.869  29.340  0.00  0.00    +0.000 A 
ATOM      7  C   UNL A   1     -24.459  -1.630  30.103  0.00  0.00    +0.000 A 
ATOM      8  C   UNL A   1     -25.789  -1.624  29.962  0.00  0.00    +0.001 A 
ATOM      9  C   UNL A   1     -28.346  -0.019  27.674  0.00  0.00    +0.112 A 
ATOM     10  N   UNL A   1     -27.602   0.561  26.820  0.00  0.00    -0.225 NA
ATOM     11  C   UNL A   1     -26.224   0.689  27.053  0.00  0.00    +0.170 A 
ATOM     12  N   UNL A   1     -25.378   1.290  26.177  0.00  0.00    -0.107 NA
ENDROOT
TORSDOF 0
