MODEL 4696
MODEL 1
REMARK VINA RESULT:    -4.910      0.000      0.000
REMARK INTER + INTRA:          -5.341
REMARK INTER:                  -5.197
REMARK INTRA:                  -0.145
REMARK UNBOUND:                -0.145
REMARK  Name = No_4696-gen_results/8p0m/2024-11-26-14-13-15/
REMARK  1 active torsions:
REMARK  status: ('A' for Active; 'I' for Inactive)
REMARK    1  A    between atoms: C_4  and  C_6
REMARK                            x       y       z     vdW  Elec       q    Type
REMARK                         _______ _______ _______ _____ _____    ______ ____
ROOT
ATOM      1  C   UNL A   1     -26.370  -2.834  29.921  0.00  0.00    +0.030 A 
ATOM      2  C   UNL A   1     -26.057  -3.809  29.669  0.00  0.00    +0.140 A 
ATOM      3  C   UNL A   1     -25.358  -1.771  29.822  0.00  0.00    +0.006 A 
ATOM      4  C   UNL A   1     -24.070  -2.045  29.275  0.00  0.00    +0.072 A 
ATOM      5  C   UNL A   1     -24.823  -4.342  29.032  0.00  0.00    +0.030 A 
ATOM      6  C   UNL A   1     -23.847  -3.368  28.896  0.00  0.00    +0.006 A 
ATOM      7  F   UNL A   1     -27.041  -4.867  29.796  0.00  0.00    -0.204 F 
ENDROOT
BRANCH   4   8
ATOM      8  C   UNL A   1     -23.062  -1.074  29.154  0.00  0.00    +0.419 C 
ATOM      9  F   UNL A   1     -21.969  -1.511  28.906  0.00  0.00    -0.166 F 
ATOM     10  F   UNL A   1     -23.335  -0.193  28.093  0.00  0.00    -0.166 F 
ATOM     11  F   UNL A   1     -23.053  -0.193  30.242  0.00  0.00    -0.166 F 
ENDBRANCH   4   8
TORSDOF 1
ENDMDL
ENDMDL
