REMARK  Name = No_4696-gen_results/8p0m/2024-11-26-14-13-15/
REMARK  1 active torsions:
REMARK  status: ('A' for Active; 'I' for Inactive)
REMARK    1  A    between atoms: C_4  and  C_6
REMARK                            x       y       z     vdW  Elec       q    Type
REMARK                         _______ _______ _______ _____ _____    ______ ____
ROOT
ATOM      1  C   UNL A   1     -28.016  -0.814  28.878  0.00  0.00    +0.030 A 
ATOM      2  C   UNL A   1     -28.469  -0.785  29.829  0.00  0.00    +0.140 A 
ATOM      3  C   UNL A   1     -26.546  -0.876  28.850  0.00  0.00    +0.006 A 
ATOM      4  C   UNL A   1     -25.804  -1.032  30.057  0.00  0.00    +0.072 A 
ATOM      5  C   UNL A   1     -27.944  -0.987  31.207  0.00  0.00    +0.030 A 
ATOM      6  C   UNL A   1     -26.561  -1.075  31.227  0.00  0.00    +0.006 A 
ATOM      7  F   UNL A   1     -29.916  -0.691  29.864  0.00  0.00    -0.204 F 
ENDROOT
BRANCH   4   8
ATOM      8  C   UNL A   1     -24.401  -1.097  30.096  0.00  0.00    +0.419 C 
ATOM      9  F   UNL A   1     -23.898  -1.669  29.165  0.00  0.00    -0.166 F 
ATOM     10  F   UNL A   1     -23.836   0.190  30.061  0.00  0.00    -0.166 F 
ATOM     11  F   UNL A   1     -23.934  -1.565  31.330  0.00  0.00    -0.166 F 
ENDBRANCH   4   8
TORSDOF 1
