MODEL 4697
MODEL 1
REMARK VINA RESULT:    -4.771      0.000      0.000
REMARK INTER + INTRA:          -5.400
REMARK INTER:                  -5.328
REMARK INTRA:                  -0.072
REMARK UNBOUND:                -0.072
REMARK  Name = No_4697-gen_results/8p0m/2024-11-26-14-13-15/
REMARK  2 active torsions:
REMARK  status: ('A' for Active; 'I' for Inactive)
REMARK    1  A    between atoms: C_3  and  C_8
REMARK    2  A    between atoms: C_8  and  C_9
REMARK                            x       y       z     vdW  Elec       q    Type
REMARK                         _______ _______ _______ _____ _____    ______ ____
ROOT
ATOM      1  C   UNL A   1     -29.464 -11.233  29.243  0.00  0.00    +0.042 A 
ATOM      2  C   UNL A   1     -28.657 -11.864  29.886  0.00  0.00    -0.001 A 
ATOM      3  C   UNL A   1     -28.468 -11.618  31.241  0.00  0.00    -0.016 A 
ATOM      4  C   UNL A   1     -29.195 -10.571  31.912  0.00  0.00    -0.001 A 
ATOM      5  C   UNL A   1     -30.090  -9.876  31.089  0.00  0.00    +0.042 A 
ATOM      6  C   UNL A   1     -30.219 -10.137  29.808  0.00  0.00    +0.196 A 
ATOM      7  O   UNL A   1     -31.084  -9.388  29.070  0.00  0.00    -0.287 OA
ENDROOT
BRANCH   3   8
ATOM      8  C   UNL A   1     -27.503 -12.341  32.149  0.00  0.00    +0.075 C 
BRANCH   8   9
ATOM      9  C   UNL A   1     -27.121 -11.782  33.347  0.00  0.00    +0.100 C 
ATOM     10  N   UNL A   1     -27.500 -12.424  34.473  0.00  0.00    -0.151 NA
ENDBRANCH   8   9
ENDBRANCH   3   8
TORSDOF 2
ENDMDL
ENDMDL
