REMARK  Name = No_4698-gen_results/8p0m/2024-11-26-14-13-15/
REMARK  0 active torsions:
REMARK  status: ('A' for Active; 'I' for Inactive)
REMARK                            x       y       z     vdW  Elec       q    Type
REMARK                         _______ _______ _______ _____ _____    ______ ____
ROOT
ATOM      1  C   UNL A   1     -28.016  -0.814  28.878  0.00  0.00    +0.140 A 
ATOM      2  C   UNL A   1     -28.469  -0.785  29.829  0.00  0.00    +0.030 A 
ATOM      3  F   UNL A   1     -28.706  -0.518  27.877  0.00  0.00    -0.204 F 
ATOM      4  C   UNL A   1     -26.586  -0.957  28.690  0.00  0.00    +0.030 A 
ATOM      5  C   UNL A   1     -25.797  -1.498  29.746  0.00  0.00    +0.002 A 
ATOM      6  C   UNL A   1     -27.752  -1.295  31.160  0.00  0.00    +0.002 A 
ATOM      7  C   UNL A   1     -26.399  -1.569  31.025  0.00  0.00    +0.000 A 
ENDROOT
TORSDOF 0
