MODEL 4698
MODEL 1
REMARK VINA RESULT:    -4.584      0.000      0.000
REMARK INTER + INTRA:          -4.584
REMARK INTER:                  -4.584
REMARK INTRA:                   0.000
REMARK UNBOUND:                 0.000
REMARK  Name = No_4698-gen_results/8p0m/2024-11-26-14-13-15/
REMARK  0 active torsions:
REMARK  status: ('A' for Active; 'I' for Inactive)
REMARK                            x       y       z     vdW  Elec       q    Type
REMARK                         _______ _______ _______ _____ _____    ______ ____
ROOT
ATOM      1  C   UNL A   1     -24.916  -5.172  28.850  0.00  0.00    +0.140 A 
ATOM      2  C   UNL A   1     -24.066  -4.567  28.697  0.00  0.00    +0.030 A 
ATOM      3  F   UNL A   1     -24.862  -6.376  28.517  0.00  0.00    -0.204 F 
ATOM      4  C   UNL A   1     -26.060  -4.741  29.630  0.00  0.00    +0.030 A 
ATOM      5  C   UNL A   1     -26.268  -3.348  29.846  0.00  0.00    +0.002 A 
ATOM      6  C   UNL A   1     -24.059  -2.988  28.924  0.00  0.00    +0.002 A 
ATOM      7  C   UNL A   1     -25.183  -2.485  29.561  0.00  0.00    +0.000 A 
ENDROOT
TORSDOF 0
ENDMDL
ENDMDL
