REMARK  Name = No_4699-gen_results/8p0m/2024-11-26-14-13-15/
REMARK  9 active torsions:
REMARK  status: ('A' for Active; 'I' for Inactive)
REMARK    1  A    between atoms: C_2  and  O_7
REMARK    2  A    between atoms: C_4  and  C_30
REMARK    3  A    between atoms: C_6  and  C_9
REMARK    4  A    between atoms: O_7  and  C_8
REMARK    5  A    between atoms: C_8  and  C_12
REMARK    6  A    between atoms: C_14  and  C_27
REMARK    7  A    between atoms: C_27  and  O_29
REMARK    8  A    between atoms: O_29  and  C_34
REMARK    9  A    between atoms: C_30  and  N_31
REMARK                            x       y       z     vdW  Elec       q    Type
REMARK                         _______ _______ _______ _____ _____    ______ ____
ROOT
ATOM      1  C   UNL A   1     -26.904   0.957  26.532  0.00  0.00    +0.176 C 
ATOM      2  C   UNL A   1     -25.476   0.415  26.292  0.00  0.00    +0.074 C 
ATOM      3  C   UNL A   1     -24.429   1.536  26.612  0.00  0.00    -0.003 A 
ATOM      4  C   UNL A   1     -23.212   1.222  27.154  0.00  0.00    -0.003 A 
ATOM      5  C   UNL A   1     -22.321   2.335  27.320  0.00  0.00    -0.000 A 
ATOM      6  C   UNL A   1     -24.773   2.848  26.255  0.00  0.00    +0.062 A 
ATOM      7  C   UNL A   1     -23.873   3.907  26.466  0.00  0.00    +0.016 A 
ATOM      8  C   UNL A   1     -22.646   3.599  27.039  0.00  0.00    +0.001 A 
ATOM      9  C   UNL A   1     -26.880   2.635  26.258  0.00  0.00    +0.157 C 
ATOM     10  N   UNL A   1     -26.080   3.218  26.106  0.00  0.00    -0.234 NA
ENDROOT
BRANCH   1  11
ATOM     11  C   UNL A   1     -27.920   0.651  25.708  0.00  0.00    +0.016 A 
ATOM     12  C   UNL A   1     -29.136   0.543  26.221  0.00  0.00    +0.006 A 
ATOM     13  C   UNL A   1     -30.259   0.186  25.390  0.00  0.00    +0.075 A 
ATOM     14  C   UNL A   1     -29.904  -0.132  24.060  0.00  0.00    +0.006 A 
ATOM     15  C   UNL A   1     -28.666  -0.077  23.568  0.00  0.00    -0.000 A 
ATOM     16  C   UNL A   1     -27.610   0.309  24.378  0.00  0.00    -0.001 A 
BRANCH  13  17
ATOM     17  C   UNL A   1     -31.616   0.039  25.849  0.00  0.00    +0.341 C 
ATOM     18  O   UNL A   1     -32.150   0.572  26.634  0.00  0.00    -0.245 OA
BRANCH  17  19
ATOM     19  O   UNL A   1     -32.076  -1.189  25.527  0.00  0.00    -0.445 OA
BRANCH  19  20
ATOM     20  C   UNL A   1     -33.062  -1.812  26.233  0.00  0.00    +0.209 C 
ATOM     21  C   UNL A   1     -32.833  -3.196  26.220  0.00  0.00    +0.051 C 
ENDBRANCH  19  20
ENDBRANCH  17  19
ENDBRANCH  13  17
ENDBRANCH   1  11
BRANCH   1  22
ATOM     22  O   UNL A   1     -27.123   1.023  27.850  0.00  0.00    -0.476 OA
BRANCH  22  24
ATOM     23  C   UNL A   1     -28.016  -0.814  28.878  0.00  0.00    +0.043 A 
ATOM     24  C   UNL A   1     -27.064  -0.119  28.608  0.00  0.00    +0.139 A 
ATOM     25  C   UNL A   1     -25.792  -0.430  29.076  0.00  0.00    +0.034 A 
ATOM     26  C   UNL A   1     -25.576  -1.565  29.936  0.00  0.00    -0.003 A 
ATOM     27  C   UNL A   1     -26.735  -2.300  30.217  0.00  0.00    +0.004 A 
ATOM     28  C   UNL A   1     -27.821  -1.945  29.772  0.00  0.00    +0.083 A 
BRANCH  28  29
ATOM     29  C   UNL A   1     -29.025  -2.794  30.227  0.00  0.00    +0.388 C 
ATOM     30  O   UNL A   1     -29.402  -2.667  31.261  0.00  0.00    -0.241 OA
ATOM     31  O   UNL A   1     -29.459  -3.697  29.445  0.00  0.00    -0.241 OA
ENDBRANCH  28  29
BRANCH  26  32
ATOM     32  C   UNL A   1     -24.233  -1.901  30.398  0.00  0.00    +0.099 C 
BRANCH  32  33
ATOM     33  N   UNL A   1     -23.719  -1.115  31.334  0.00  0.00    -0.267 NA
ATOM     34  C   UNL A   1     -24.219  -0.791  32.441  0.00  0.00    +0.090 C 
ATOM     35  C   UNL A   1     -22.995   0.012  30.677  0.00  0.00    +0.090 C 
ENDBRANCH  32  33
ENDBRANCH  26  32
ENDBRANCH  22  24
ENDBRANCH   1  22
TORSDOF 9
