MODEL 4699
MODEL 1
REMARK VINA RESULT:    -7.667      0.000      0.000
REMARK INTER + INTRA:         -12.252
REMARK INTER:                 -11.701
REMARK INTRA:                  -0.551
REMARK UNBOUND:                -0.551
REMARK  Name = No_4699-gen_results/8p0m/2024-11-26-14-13-15/
REMARK  9 active torsions:
REMARK  status: ('A' for Active; 'I' for Inactive)
REMARK    1  A    between atoms: C_2  and  O_7
REMARK    2  A    between atoms: C_4  and  C_30
REMARK    3  A    between atoms: C_6  and  C_9
REMARK    4  A    between atoms: O_7  and  C_8
REMARK    5  A    between atoms: C_8  and  C_12
REMARK    6  A    between atoms: C_14  and  C_27
REMARK    7  A    between atoms: C_27  and  O_29
REMARK    8  A    between atoms: O_29  and  C_34
REMARK    9  A    between atoms: C_30  and  N_31
REMARK                            x       y       z     vdW  Elec       q    Type
REMARK                         _______ _______ _______ _____ _____    ______ ____
ROOT
ATOM      1  C   UNL A   1      -9.485   0.572  37.058  0.00  0.00    +0.176 C 
ATOM      2  C   UNL A   1     -10.381  -0.687  37.110  0.00  0.00    +0.074 C 
ATOM      3  C   UNL A   1     -10.761  -0.998  38.598  0.00  0.00    -0.003 A 
ATOM      4  C   UNL A   1     -11.984  -1.527  38.912  0.00  0.00    -0.003 A 
ATOM      5  C   UNL A   1     -12.168  -1.837  40.301  0.00  0.00    -0.000 A 
ATOM      6  C   UNL A   1      -9.772  -0.774  39.567  0.00  0.00    +0.062 A 
ATOM      7  C   UNL A   1     -10.015  -1.069  40.920  0.00  0.00    +0.016 A 
ATOM      8  C   UNL A   1     -11.263  -1.582  41.249  0.00  0.00    +0.001 A 
ATOM      9  C   UNL A   1      -8.621   0.661  38.519  0.00  0.00    +0.157 C 
ATOM     10  N   UNL A   1      -8.747   0.100  39.339  0.00  0.00    -0.234 NA
ENDROOT
BRANCH   1  11
ATOM     11  C   UNL A   1      -8.438   0.656  36.220  0.00  0.00    +0.016 A 
ATOM     12  C   UNL A   1      -7.831  -0.464  35.858  0.00  0.00    +0.006 A 
ATOM     13  C   UNL A   1      -6.683  -0.433  34.986  0.00  0.00    +0.075 A 
ATOM     14  C   UNL A   1      -6.238   0.873  34.678  0.00  0.00    +0.006 A 
ATOM     15  C   UNL A   1      -6.823   1.995  35.096  0.00  0.00    -0.000 A 
ATOM     16  C   UNL A   1      -7.950   1.937  35.900  0.00  0.00    -0.001 A 
BRANCH  13  17
ATOM     17  C   UNL A   1      -5.951  -1.589  34.538  0.00  0.00    +0.341 C 
ATOM     18  O   UNL A   1      -6.211  -2.645  34.591  0.00  0.00    -0.245 OA
BRANCH  17  19
ATOM     19  O   UNL A   1      -4.637  -1.290  34.448  0.00  0.00    -0.445 OA
BRANCH  19  20
ATOM     20  C   UNL A   1      -3.733  -2.124  33.859  0.00  0.00    +0.209 C 
ATOM     21  C   UNL A   1      -2.504  -2.017  34.527  0.00  0.00    +0.051 C 
ENDBRANCH  19  20
ENDBRANCH  17  19
ENDBRANCH  13  17
ENDBRANCH   1  11
BRANCH   1  22
ATOM     22  O   UNL A   1     -10.247   1.651  37.268  0.00  0.00    -0.476 OA
BRANCH  22  24
ATOM     23  C   UNL A   1     -11.535   1.573  35.379  0.00  0.00    +0.043 A 
ATOM     24  C   UNL A   1     -11.411   1.811  36.558  0.00  0.00    +0.139 A 
ATOM     25  C   UNL A   1     -12.476   2.298  37.309  0.00  0.00    +0.034 A 
ATOM     26  C   UNL A   1     -13.748   2.577  36.694  0.00  0.00    -0.003 A 
ATOM     27  C   UNL A   1     -13.797   2.296  35.323  0.00  0.00    +0.004 A 
ATOM     28  C   UNL A   1     -12.803   1.881  34.736  0.00  0.00    +0.083 A 
BRANCH  28  29
ATOM     29  C   UNL A   1     -12.970   1.693  33.215  0.00  0.00    +0.388 C 
ATOM     30  O   UNL A   1     -12.185   1.143  32.660  0.00  0.00    -0.241 OA
ATOM     31  O   UNL A   1     -13.934   2.284  32.635  0.00  0.00    -0.241 OA
ENDBRANCH  28  29
BRANCH  26  32
ATOM     32  C   UNL A   1     -14.869   3.059  37.495  0.00  0.00    +0.099 C 
BRANCH  32  33
ATOM     33  N   UNL A   1     -15.301   4.283  37.226  0.00  0.00    -0.267 NA
ATOM     34  C   UNL A   1     -15.105   5.341  37.877  0.00  0.00    +0.090 C 
ATOM     35  C   UNL A   1     -16.682   4.198  36.668  0.00  0.00    +0.090 C 
ENDBRANCH  32  33
ENDBRANCH  26  32
ENDBRANCH  22  24
ENDBRANCH   1  22
TORSDOF 9
ENDMDL
ENDMDL
