MODEL 469
MODEL 1
REMARK VINA RESULT:    -6.052      0.000      0.000
REMARK INTER + INTRA:          -6.443
REMARK INTER:                  -6.405
REMARK INTRA:                  -0.037
REMARK UNBOUND:                -0.037
REMARK  Name = No_469-gen_results/8p0m/2024-11-26-14-13-15/
REMARK  1 active torsions:
REMARK  status: ('A' for Active; 'I' for Inactive)
REMARK    1  A    between atoms: C_2  and  C_5
REMARK                            x       y       z     vdW  Elec       q    Type
REMARK                         _______ _______ _______ _____ _____    ______ ____
ROOT
ATOM      1  C   UNL A   1     -27.910 -12.033  31.235  0.00  0.00    +0.003 A 
ATOM      2  C   UNL A   1     -28.026 -11.718  32.233  0.00  0.00    +0.042 A 
ATOM      3  C   UNL A   1     -28.894 -11.443  30.249  0.00  0.00    +0.000 A 
ATOM      4  C   UNL A   1     -29.045 -11.817  28.865  0.00  0.00    +0.000 A 
ATOM      5  C   UNL A   1     -30.080 -11.109  28.104  0.00  0.00    +0.000 A 
ATOM      6  C   UNL A   1     -30.809 -10.094  28.677  0.00  0.00    +0.000 A 
ATOM      7  C   UNL A   1     -30.661  -9.744  29.973  0.00  0.00    +0.000 A 
ATOM      8  C   UNL A   1     -29.733 -10.345  30.736  0.00  0.00    +0.000 A 
ATOM      9  C   UNL A   1     -28.855 -10.570  32.819  0.00  0.00    +0.003 A 
ATOM     10  C   UNL A   1     -29.644  -9.964  32.097  0.00  0.00    +0.000 A 
ENDROOT
BRANCH   2  11
ATOM     11  C   UNL A   1     -27.091 -12.248  33.321  0.00  0.00    +0.234 C 
ATOM     12  O   UNL A   1     -27.270 -12.387  34.443  0.00  0.00    -0.283 OA
ENDBRANCH   2  11
TORSDOF 1
ENDMDL
ENDMDL
