MODEL 46
MODEL 1
REMARK VINA RESULT:    -6.427      0.000      0.000
REMARK INTER + INTRA:          -8.317
REMARK INTER:                  -7.929
REMARK INTRA:                  -0.388
REMARK UNBOUND:                -0.388
REMARK  Name = No_46-gen_results/8p0m/2024-11-26-14-13-15/
REMARK  4 active torsions:
REMARK  status: ('A' for Active; 'I' for Inactive)
REMARK    1  A    between atoms: C_4  and  C_10
REMARK    2  A    between atoms: C_6  and  O_9
REMARK    3  A    between atoms: O_9  and  C_13
REMARK    4  A    between atoms: C_13  and  C_14
REMARK                            x       y       z     vdW  Elec       q    Type
REMARK                         _______ _______ _______ _____ _____    ______ ____
ROOT
ATOM      1  C   UNL A   1     -27.057  -2.500  30.305  0.00  0.00    +0.100 A 
ATOM      2 CL   UNL A   1     -28.111  -2.635  30.873  0.00  0.00    -0.079 Cl
ATOM      3  C   UNL A   1     -26.376  -3.787  29.837  0.00  0.00    +0.021 A 
ATOM      4  C   UNL A   1     -25.089  -3.706  29.400  0.00  0.00    +0.084 A 
ATOM      5  C   UNL A   1     -24.392  -2.452  29.327  0.00  0.00    +0.047 A 
ATOM      6  C   UNL A   1     -24.959  -1.288  29.815  0.00  0.00    +0.179 A 
ATOM      7  C   UNL A   1     -26.228  -1.338  30.342  0.00  0.00    +0.240 A 
ATOM      8  O   UNL A   1     -26.783  -0.207  30.829  0.00  0.00    -0.282 OA
ENDROOT
BRANCH   4   9
ATOM      9  C   UNL A   1     -24.447  -4.911  28.837  0.00  0.00    +0.388 C 
ATOM     10  O   UNL A   1     -23.652  -4.986  28.105  0.00  0.00    -0.241 OA
ATOM     11  O   UNL A   1     -24.989  -6.037  29.412  0.00  0.00    -0.241 OA
ENDBRANCH   4   9
BRANCH   6  12
ATOM     12  O   UNL A   1     -24.253  -0.110  29.788  0.00  0.00    -0.467 OA
BRANCH  12  13
ATOM     13  C   UNL A   1     -23.138  -0.086  29.039  0.00  0.00    +0.232 C 
BRANCH  13  14
ATOM     14  C   UNL A   1     -23.297   0.726  27.835  0.00  0.00    +0.021 A 
ATOM     15  C   UNL A   1     -24.278   0.403  27.009  0.00  0.00    -0.001 A 
ATOM     16  C   UNL A   1     -24.373   1.057  25.768  0.00  0.00    -0.000 A 
ATOM     17  C   UNL A   1     -23.370   1.983  25.445  0.00  0.00    -0.000 A 
ATOM     18  C   UNL A   1     -22.300   2.212  26.257  0.00  0.00    -0.000 A 
ATOM     19  C   UNL A   1     -22.232   1.499  27.471  0.00  0.00    -0.001 A 
ENDBRANCH  13  14
ENDBRANCH  12  13
ENDBRANCH   6  12
TORSDOF 4
ENDMDL
ENDMDL
