REMARK  Name = No_470-gen_results/8p0m/2024-11-26-14-13-15/
REMARK  2 active torsions:
REMARK  status: ('A' for Active; 'I' for Inactive)
REMARK    1  A    between atoms: C_9  and  C_10
REMARK    2  A    between atoms: C_10  and  C_12
REMARK                            x       y       z     vdW  Elec       q    Type
REMARK                         _______ _______ _______ _____ _____    ______ ____
ROOT
ATOM      1  C   UNL A   1     -28.016  -0.814  28.878  0.00  0.00    +0.201 C 
ATOM      2  C   UNL A   1     -28.469  -0.785  29.829  0.00  0.00    -0.008 C 
ATOM      3  F   UNL A   1     -26.916  -1.564  28.737  0.00  0.00    -0.228 F 
ATOM      4  C   UNL A   1     -28.165   0.026  27.758  0.00  0.00    +0.009 A 
ATOM      5  C   UNL A   1     -29.403   0.710  27.594  0.00  0.00    -0.027 A 
ATOM      6  C   UNL A   1     -28.284  -1.594  31.018  0.00  0.00    -0.006 C 
ATOM      7  C   UNL A   1     -30.179   0.710  28.767  0.00  0.00    +0.030 C 
ATOM      8  C   UNL A   1     -29.860  -0.038  29.824  0.00  0.00    +0.030 C 
ATOM      9  C   UNL A   1     -29.581   1.506  26.417  0.00  0.00    -0.022 A 
ATOM     10  C   UNL A   1     -29.068   0.936  25.163  0.00  0.00    -0.004 A 
ATOM     11  C   UNL A   1     -28.160  -0.090  25.130  0.00  0.00    -0.001 A 
ATOM     12  C   UNL A   1     -27.570  -0.572  26.431  0.00  0.00    -0.002 A 
ENDROOT
BRANCH   9  13
ATOM     13  C   UNL A   1     -30.117   2.518  26.415  0.00  0.00    +0.052 C 
BRANCH  13  14
ATOM     14  C   UNL A   1     -30.603   3.204  27.649  0.00  0.00    -0.021 C 
ATOM     15  C   UNL A   1     -31.057   4.466  27.773  0.00  0.00    -0.005 C 
ENDBRANCH  13  14
ENDBRANCH   9  13
TORSDOF 2
