REMARK  Name = No_4700-gen_results/8p0m/2024-11-26-14-13-15/
REMARK  6 active torsions:
REMARK  status: ('A' for Active; 'I' for Inactive)
REMARK    1  A    between atoms: C_2  and  C_21
REMARK    2  A    between atoms: C_10  and  C_24
REMARK    3  A    between atoms: C_14  and  C_15
REMARK    4  A    between atoms: C_24  and  C_25
REMARK    5  A    between atoms: C_25  and  C_26
REMARK    6  A    between atoms: C_30  and  C_32
REMARK                            x       y       z     vdW  Elec       q    Type
REMARK                         _______ _______ _______ _____ _____    ______ ____
ROOT
ATOM      1  C   UNL A   1     -28.016  -0.814  28.878  0.00  0.00    +0.002 A 
ATOM      2  C   UNL A   1     -28.469  -0.785  29.829  0.00  0.00    +0.080 A 
ATOM      3  C   UNL A   1     -26.504  -0.778  28.877  0.00  0.00    -0.023 A 
ATOM      4  C   UNL A   1     -25.654  -0.660  27.719  0.00  0.00    +0.037 C 
ATOM      5  C   UNL A   1     -27.918  -0.937  31.182  0.00  0.00    +0.006 A 
ATOM      6  C   UNL A   1     -26.542  -0.940  31.261  0.00  0.00    -0.004 A 
ATOM      7  C   UNL A   1     -25.783  -0.893  30.120  0.00  0.00    -0.026 A 
ATOM      8  C   UNL A   1     -25.899   0.315  26.747  0.00  0.00    -0.023 A 
ATOM      9  C   UNL A   1     -26.773   0.475  26.258  0.00  0.00    -0.009 A 
ATOM     10  C   UNL A   1     -26.952   1.535  25.186  0.00  0.00    -0.022 A 
ATOM     11  C   UNL A   1     -25.881   2.369  25.085  0.00  0.00    -0.005 A 
ATOM     12  C   UNL A   1     -24.727   1.248  26.479  0.00  0.00    -0.021 A 
ATOM     13  C   UNL A   1     -24.783   2.265  25.707  0.00  0.00    -0.004 A 
ATOM     14  C   UNL A   1     -23.323   1.235  27.263  0.00  0.00    +0.065 C 
ATOM     15  C   UNL A   1     -23.195   0.109  28.280  0.00  0.00    +0.011 C 
ATOM     16  C   UNL A   1     -24.170  -0.336  28.534  0.00  0.00    +0.013 C 
ATOM     17  C   UNL A   1     -24.479  -0.729  29.894  0.00  0.00    +0.027 C 
ATOM     18  C   UNL A   1     -25.207  -1.979  27.023  0.00  0.00    +0.009 C 
ENDROOT
BRANCH   2  19
ATOM     19  C   UNL A   1     -30.091  -0.865  29.864  0.00  0.00    +0.388 C 
ATOM     20  O   UNL A   1     -30.697  -1.770  30.161  0.00  0.00    -0.241 OA
ATOM     21  O   UNL A   1     -30.641   0.229  29.415  0.00  0.00    -0.241 OA
ENDBRANCH   2  19
BRANCH  14  22
ATOM     22  C   UNL A   1     -22.384   1.936  27.068  0.00  0.00    +0.100 C 
ATOM     23  N   UNL A   1     -21.155   1.735  27.716  0.00  0.00    -0.151 NA
ENDBRANCH  14  22
BRANCH  10  24
ATOM     24  C   UNL A   1     -28.211   1.674  24.479  0.00  0.00    +0.031 C 
BRANCH  24  25
ATOM     25  C   UNL A   1     -29.083   2.734  24.782  0.00  0.00    +0.027 C 
ATOM     26  C   UNL A   1     -30.292   2.793  23.925  0.00  0.00    +0.005 C 
BRANCH  25  27
ATOM     27  C   UNL A   1     -28.919   3.640  25.767  0.00  0.00    -0.022 A 
ATOM     28  C   UNL A   1     -29.804   4.735  25.933  0.00  0.00    -0.004 A 
ATOM     29  C   UNL A   1     -29.627   5.693  26.950  0.00  0.00    -0.000 A 
ATOM     30  C   UNL A   1     -28.488   5.606  27.748  0.00  0.00    +0.007 A 
ATOM     31  C   UNL A   1     -27.602   4.563  27.611  0.00  0.00    +0.080 A 
ATOM     32  C   UNL A   1     -27.772   3.632  26.645  0.00  0.00    +0.002 A 
BRANCH  31  33
ATOM     33  C   UNL A   1     -26.479   4.465  28.611  0.00  0.00    +0.388 C 
ATOM     34  O   UNL A   1     -25.572   5.075  28.502  0.00  0.00    -0.241 OA
ATOM     35  O   UNL A   1     -26.499   3.237  29.270  0.00  0.00    -0.241 OA
ENDBRANCH  31  33
ENDBRANCH  25  27
ENDBRANCH  24  25
ENDBRANCH  10  24
TORSDOF 6
