MODEL 4700
MODEL 1
REMARK VINA RESULT:    -7.302      0.000      0.000
REMARK INTER + INTRA:         -12.413
REMARK INTER:                  -9.863
REMARK INTRA:                  -2.549
REMARK UNBOUND:                -2.549
REMARK  Name = No_4700-gen_results/8p0m/2024-11-26-14-13-15/
REMARK  6 active torsions:
REMARK  status: ('A' for Active; 'I' for Inactive)
REMARK    1  A    between atoms: C_2  and  C_21
REMARK    2  A    between atoms: C_10  and  C_24
REMARK    3  A    between atoms: C_14  and  C_15
REMARK    4  A    between atoms: C_24  and  C_25
REMARK    5  A    between atoms: C_25  and  C_26
REMARK    6  A    between atoms: C_30  and  C_32
REMARK                            x       y       z     vdW  Elec       q    Type
REMARK                         _______ _______ _______ _____ _____    ______ ____
ROOT
ATOM      1  C   UNL A   1     -26.086   3.174  30.224  0.00  0.00    +0.002 A 
ATOM      2  C   UNL A   1     -26.496   2.968  31.173  0.00  0.00    +0.080 A 
ATOM      3  C   UNL A   1     -27.065   3.139  29.072  0.00  0.00    -0.023 A 
ATOM      4  C   UNL A   1     -26.740   3.241  27.672  0.00  0.00    +0.037 C 
ATOM      5  C   UNL A   1     -27.885   2.863  31.639  0.00  0.00    +0.006 A 
ATOM      6  C   UNL A   1     -28.840   2.852  30.646  0.00  0.00    -0.004 A 
ATOM      7  C   UNL A   1     -28.478   3.019  29.335  0.00  0.00    -0.026 A 
ATOM      8  C   UNL A   1     -25.717   2.465  27.117  0.00  0.00    -0.023 A 
ATOM      9  C   UNL A   1     -24.760   2.399  27.447  0.00  0.00    -0.009 A 
ATOM     10  C   UNL A   1     -23.694   1.559  26.767  0.00  0.00    -0.022 A 
ATOM     11  C   UNL A   1     -24.198   0.759  25.788  0.00  0.00    -0.005 A 
ATOM     12  C   UNL A   1     -26.148   1.599  25.942  0.00  0.00    -0.021 A 
ATOM     13  C   UNL A   1     -25.392   0.745  25.366  0.00  0.00    -0.004 A 
ATOM     14  C   UNL A   1     -27.649   1.465  25.380  0.00  0.00    +0.065 C 
ATOM     15  C   UNL A   1     -28.650   2.380  26.071  0.00  0.00    +0.011 C 
ATOM     16  C   UNL A   1     -28.268   2.770  27.028  0.00  0.00    +0.013 C 
ATOM     17  C   UNL A   1     -29.136   2.901  28.181  0.00  0.00    +0.027 C 
ATOM     18  C   UNL A   1     -26.700   4.667  27.049  0.00  0.00    +0.009 C 
ENDROOT
BRANCH   2  19
ATOM     19  C   UNL A   1     -25.476   3.039  32.436  0.00  0.00    +0.388 C 
ATOM     20  O   UNL A   1     -25.738   2.788  33.505  0.00  0.00    -0.241 OA
ATOM     21  O   UNL A   1     -24.312   3.517  32.093  0.00  0.00    -0.241 OA
ENDBRANCH   2  19
BRANCH  14  22
ATOM     22  C   UNL A   1     -28.016   0.813  24.457  0.00  0.00    +0.100 C 
ATOM     23  N   UNL A   1     -28.589   1.393  23.315  0.00  0.00    -0.151 NA
ENDBRANCH  14  22
BRANCH  10  24
ATOM     24  C   UNL A   1     -22.327   1.555  27.253  0.00  0.00    +0.031 C 
BRANCH  24  25
ATOM     25  C   UNL A   1     -21.917   0.614  28.214  0.00  0.00    +0.027 C 
ATOM     26  C   UNL A   1     -20.457   0.355  28.229  0.00  0.00    +0.005 C 
BRANCH  25  27
ATOM     27  C   UNL A   1     -22.716  -0.017  29.098  0.00  0.00    -0.022 A 
ATOM     28  C   UNL A   1     -23.116   0.592  30.314  0.00  0.00    -0.004 A 
ATOM     29  C   UNL A   1     -23.936  -0.070  31.248  0.00  0.00    -0.000 A 
ATOM     30  C   UNL A   1     -24.276  -1.399  31.004  0.00  0.00    +0.007 A 
ATOM     31  C   UNL A   1     -23.900  -2.026  29.839  0.00  0.00    +0.080 A 
ATOM     32  C   UNL A   1     -23.122  -1.393  28.931  0.00  0.00    +0.002 A 
BRANCH  31  33
ATOM     33  C   UNL A   1     -24.434  -3.412  29.588  0.00  0.00    +0.388 C 
ATOM     34  O   UNL A   1     -23.864  -4.137  28.990  0.00  0.00    -0.241 OA
ATOM     35  O   UNL A   1     -25.822  -3.445  29.708  0.00  0.00    -0.241 OA
ENDBRANCH  31  33
ENDBRANCH  25  27
ENDBRANCH  24  25
ENDBRANCH  10  24
TORSDOF 6
ENDMDL
ENDMDL
