REMARK  Name = No_4701-gen_results/8p0m/2024-11-26-14-13-15/
REMARK  9 active torsions:
REMARK  status: ('A' for Active; 'I' for Inactive)
REMARK    1  A    between atoms: C_2  and  C_18
REMARK    2  A    between atoms: C_3  and  C_8
REMARK    3  A    between atoms: C_6  and  O_7
REMARK    4  A    between atoms: O_7  and  C_14
REMARK    5  A    between atoms: C_8  and  P_9
REMARK    6  A    between atoms: P_9  and  O_10
REMARK    7  A    between atoms: C_14  and  C_15
REMARK    8  A    between atoms: C_15  and  N_17
REMARK    9  A    between atoms: N_17  and  C_24
REMARK                            x       y       z     vdW  Elec       q    Type
REMARK                         _______ _______ _______ _____ _____    ______ ____
ROOT
ATOM      1  C   UNL A   1     -28.016  -0.814  28.878  0.00  0.00    +0.037 A 
ATOM      2  C   UNL A   1     -27.064  -0.119  28.608  0.00  0.00    -0.000 A 
ATOM      3  C   UNL A   1     -25.792  -0.430  29.076  0.00  0.00    -0.010 A 
ATOM      4  C   UNL A   1     -25.576  -1.565  29.936  0.00  0.00    -0.001 A 
ATOM      5  C   UNL A   1     -26.735  -2.300  30.217  0.00  0.00    +0.037 A 
ATOM      6  C   UNL A   1     -27.918  -1.954  29.763  0.00  0.00    +0.139 A 
ENDROOT
BRANCH   2   7
ATOM      7  C   UNL A   1     -27.145   1.097  27.715  0.00  0.00    -0.000 A 
ATOM      8  C   UNL A   1     -28.353   1.467  27.342  0.00  0.00    -0.000 A 
ATOM      9  C   UNL A   1     -28.558   2.593  26.513  0.00  0.00    -0.000 A 
ATOM     10  C   UNL A   1     -27.387   3.192  25.985  0.00  0.00    -0.000 A 
ATOM     11  C   UNL A   1     -26.064   2.810  26.345  0.00  0.00    -0.000 A 
ATOM     12  C   UNL A   1     -25.999   1.793  27.158  0.00  0.00    -0.000 A 
ENDBRANCH   2   7
BRANCH   6  13
ATOM     13  O   UNL A   1     -29.000  -2.701  30.115  0.00  0.00    -0.472 OA
BRANCH  13  14
ATOM     14  C   UNL A   1     -30.119  -2.141  30.556  0.00  0.00    +0.243 C 
BRANCH  14  15
ATOM     15  C   UNL A   1     -31.225  -2.704  30.002  0.00  0.00    +0.214 C 
ATOM     16 CL   UNL A   1     -32.247  -1.961  29.086  0.00  0.00    -0.087 Cl
BRANCH  15  17
ATOM     17  N   UNL A   1     -30.919  -4.008  29.281  0.00  0.00    -0.218 NA
BRANCH  17  18
ATOM     18  C   UNL A   1     -31.725  -5.109  29.438  0.00  0.00    +0.073 C 
ATOM     19  C   UNL A   1     -31.353  -6.201  28.631  0.00  0.00    -0.028 C 
ATOM     20  C   UNL A   1     -30.580  -5.941  27.488  0.00  0.00    +0.028 C 
ATOM     21  C   UNL A   1     -31.812  -7.503  28.929  0.00  0.00    +0.028 C 
ENDBRANCH  17  18
ENDBRANCH  15  17
ENDBRANCH  14  15
ENDBRANCH  13  14
ENDBRANCH   6  13
BRANCH   3  22
ATOM     22  C   UNL A   1     -24.529   0.349  28.800  0.00  0.00    +0.145 C 
BRANCH  22  23
ATOM     23  P   UNL A   1     -23.846   1.378  29.846  0.00  0.00    +0.384 P 
ATOM     24  O   UNL A   1     -23.110   0.308  30.780  0.00  0.00    -0.139 OA
ATOM     25  O   UNL A   1     -22.648   1.996  29.013  0.00  0.00    -0.254 OA
BRANCH  23  26
ATOM     26  O   UNL A   1     -24.484   2.028  30.383  0.00  0.00    -0.226 OA
ATOM     27 BR   UNL A   1     -25.430   2.238  31.865  0.00  0.00    +0.108 Br
ENDBRANCH  23  26
ENDBRANCH  22  23
ENDBRANCH   3  22
TORSDOF 9
