MODEL 4701
MODEL 1
REMARK VINA RESULT:    -7.244      0.000      0.000
REMARK INTER + INTRA:         -12.307
REMARK INTER:                 -11.055
REMARK INTRA:                  -1.252
REMARK UNBOUND:                -1.252
REMARK  Name = No_4701-gen_results/8p0m/2024-11-26-14-13-15/
REMARK  9 active torsions:
REMARK  status: ('A' for Active; 'I' for Inactive)
REMARK    1  A    between atoms: C_2  and  C_18
REMARK    2  A    between atoms: C_3  and  C_8
REMARK    3  A    between atoms: C_6  and  O_7
REMARK    4  A    between atoms: O_7  and  C_14
REMARK    5  A    between atoms: C_8  and  P_9
REMARK    6  A    between atoms: P_9  and  O_10
REMARK    7  A    between atoms: C_14  and  C_15
REMARK    8  A    between atoms: C_15  and  N_17
REMARK    9  A    between atoms: N_17  and  C_24
REMARK                            x       y       z     vdW  Elec       q    Type
REMARK                         _______ _______ _______ _____ _____    ______ ____
ROOT
ATOM      1  C   UNL A   1     -25.097  -0.772  27.124  0.00  0.00    +0.037 A 
ATOM      2  C   UNL A   1     -24.621  -1.240  28.133  0.00  0.00    -0.000 A 
ATOM      3  C   UNL A   1     -23.686  -0.533  28.881  0.00  0.00    -0.010 A 
ATOM      4  C   UNL A   1     -23.219   0.760  28.453  0.00  0.00    -0.001 A 
ATOM      5  C   UNL A   1     -23.803   1.216  27.264  0.00  0.00    +0.037 A 
ATOM      6  C   UNL A   1     -24.671   0.501  26.585  0.00  0.00    +0.139 A 
ENDROOT
BRANCH   2   7
ATOM      7  C   UNL A   1     -25.022  -2.582  28.699  0.00  0.00    -0.000 A 
ATOM      8  C   UNL A   1     -24.236  -3.598  28.404  0.00  0.00    -0.000 A 
ATOM      9  C   UNL A   1     -24.502  -4.901  28.881  0.00  0.00    -0.000 A 
ATOM     10  C   UNL A   1     -25.739  -5.072  29.553  0.00  0.00    -0.000 A 
ATOM     11  C   UNL A   1     -26.626  -4.006  29.874  0.00  0.00    -0.000 A 
ATOM     12  C   UNL A   1     -26.250  -2.840  29.429  0.00  0.00    -0.000 A 
ENDBRANCH   2   7
BRANCH   6  13
ATOM     13  O   UNL A   1     -25.162   1.001  25.418  0.00  0.00    -0.472 OA
BRANCH  13  14
ATOM     14  C   UNL A   1     -26.170   0.418  24.780  0.00  0.00    +0.243 C 
BRANCH  14  15
ATOM     15  C   UNL A   1     -27.299   1.174  24.810  0.00  0.00    +0.214 C 
ATOM     16 CL   UNL A   1     -27.334   2.731  24.915  0.00  0.00    -0.087 Cl
BRANCH  15  17
ATOM     17  N   UNL A   1     -28.264   0.828  23.687  0.00  0.00    -0.218 NA
BRANCH  17  18
ATOM     18  C   UNL A   1     -29.559   0.458  23.956  0.00  0.00    +0.073 C 
ATOM     19  C   UNL A   1     -29.769  -0.934  23.913  0.00  0.00    -0.028 C 
ATOM     20  C   UNL A   1     -28.856  -1.714  23.186  0.00  0.00    +0.028 C 
ATOM     21  C   UNL A   1     -30.907  -1.507  24.521  0.00  0.00    +0.028 C 
ENDBRANCH  17  18
ENDBRANCH  15  17
ENDBRANCH  14  15
ENDBRANCH  13  14
ENDBRANCH   6  13
BRANCH   3  22
ATOM     22  C   UNL A   1     -23.032  -1.003  30.158  0.00  0.00    +0.145 C 
BRANCH  22  23
ATOM     23  P   UNL A   1     -23.445  -0.490  31.636  0.00  0.00    +0.384 P 
ATOM     24  O   UNL A   1     -24.713  -1.438  31.867  0.00  0.00    -0.139 OA
ATOM     25  O   UNL A   1     -22.344  -1.147  32.567  0.00  0.00    -0.254 OA
BRANCH  23  26
ATOM     26  O   UNL A   1     -23.668   0.537  31.755  0.00  0.00    -0.226 OA
ATOM     27 BR   UNL A   1     -24.944   1.763  31.690  0.00  0.00    +0.108 Br
ENDBRANCH  23  26
ENDBRANCH  22  23
ENDBRANCH   3  22
TORSDOF 9
ENDMDL
ENDMDL
