REMARK  Name = No_4702-gen_results/8p0m/2024-11-26-14-13-15/
REMARK  6 active torsions:
REMARK  status: ('A' for Active; 'I' for Inactive)
REMARK    1  A    between atoms: C_9  and  C_11
REMARK    2  A    between atoms: N_12  and  C_14
REMARK    3  A    between atoms: C_14  and  C_16
REMARK    4  A    between atoms: C_16  and  C_17
REMARK    5  A    between atoms: C_17  and  C_18
REMARK    6  A    between atoms: C_18  and  C_19
REMARK                            x       y       z     vdW  Elec       q    Type
REMARK                         _______ _______ _______ _____ _____    ______ ____
ROOT
ATOM      1  C   UNL A   1     -28.016  -0.814  28.878  0.00  0.00    +0.000 A 
ATOM      2  C   UNL A   1     -28.469  -0.785  29.829  0.00  0.00    +0.000 A 
ATOM      3  C   UNL A   1     -27.136   0.236  28.535  0.00  0.00    +0.000 A 
ATOM      4  C   UNL A   1     -26.335   0.290  27.284  0.00  0.00    +0.000 A 
ATOM      5  C   UNL A   1     -28.369   0.196  30.924  0.00  0.00    +0.000 A 
ATOM      6  C   UNL A   1     -27.516   1.266  30.654  0.00  0.00    +0.000 A 
ATOM      7  C   UNL A   1     -26.841   1.294  29.476  0.00  0.00    +0.000 A 
ATOM      8  C   UNL A   1     -25.361   0.775  26.967  0.00  0.00    +0.005 A 
ATOM      9  C   UNL A   1     -24.830   1.767  28.017  0.00  0.00    +0.055 A 
ATOM     10  C   UNL A   1     -25.567   2.002  29.202  0.00  0.00    +0.005 A 
ENDROOT
BRANCH   9  11
ATOM     11  C   UNL A   1     -23.619   2.609  27.665  0.00  0.00    +0.269 C 
ATOM     12  N   UNL A   1     -22.498   2.115  27.578  0.00  0.00    -0.180 NA
ATOM     13  O   UNL A   1     -23.842   3.779  27.216  0.00  0.00    -0.268 OA
BRANCH  12  14
ATOM     14  C   UNL A   1     -21.971   0.974  28.271  0.00  0.00    +0.051 C 
ATOM     15  C   UNL A   1     -20.665   0.568  28.258  0.00  0.00    +0.013 C 
BRANCH  14  16
ATOM     16  C   UNL A   1     -22.870   0.230  29.135  0.00  0.00    +0.043 C 
BRANCH  16  17
ATOM     17  C   UNL A   1     -22.328  -0.903  29.841  0.00  0.00    +0.006 C 
BRANCH  17  18
ATOM     18  C   UNL A   1     -23.305  -1.468  30.663  0.00  0.00    +0.000 C 
BRANCH  18  19
ATOM     19  C   UNL A   1     -24.729  -1.377  30.367  0.00  0.00    +0.000 C 
ATOM     20  C   UNL A   1     -25.490  -1.851  31.555  0.00  0.00    +0.000 C 
ENDBRANCH  18  19
ENDBRANCH  17  18
ENDBRANCH  16  17
ENDBRANCH  14  16
ENDBRANCH  12  14
ENDBRANCH   9  11
TORSDOF 6
