MODEL 4702
MODEL 1
REMARK VINA RESULT:    -6.459      0.000      0.000
REMARK INTER + INTRA:          -9.680
REMARK INTER:                  -8.724
REMARK INTRA:                  -0.956
REMARK UNBOUND:                -0.956
REMARK  Name = No_4702-gen_results/8p0m/2024-11-26-14-13-15/
REMARK  6 active torsions:
REMARK  status: ('A' for Active; 'I' for Inactive)
REMARK    1  A    between atoms: C_9  and  C_11
REMARK    2  A    between atoms: N_12  and  C_14
REMARK    3  A    between atoms: C_14  and  C_16
REMARK    4  A    between atoms: C_16  and  C_17
REMARK    5  A    between atoms: C_17  and  C_18
REMARK    6  A    between atoms: C_18  and  C_19
REMARK                            x       y       z     vdW  Elec       q    Type
REMARK                         _______ _______ _______ _____ _____    ______ ____
ROOT
ATOM      1  C   UNL A   1     -26.691  -3.958  29.892  0.00  0.00    +0.000 A 
ATOM      2  C   UNL A   1     -26.231  -4.874  29.645  0.00  0.00    +0.000 A 
ATOM      3  C   UNL A   1     -25.999  -2.767  29.578  0.00  0.00    +0.000 A 
ATOM      4  C   UNL A   1     -26.552  -1.399  29.758  0.00  0.00    +0.000 A 
ATOM      5  C   UNL A   1     -24.932  -5.170  29.016  0.00  0.00    +0.000 A 
ATOM      6  C   UNL A   1     -24.190  -4.038  28.680  0.00  0.00    +0.000 A 
ATOM      7  C   UNL A   1     -24.719  -2.808  28.907  0.00  0.00    +0.000 A 
ATOM      8  C   UNL A   1     -26.379  -0.387  29.278  0.00  0.00    +0.005 A 
ATOM      9  C   UNL A   1     -25.152  -0.380  28.348  0.00  0.00    +0.055 A 
ATOM     10  C   UNL A   1     -24.372  -1.551  28.201  0.00  0.00    +0.005 A 
ENDROOT
BRANCH   9  11
ATOM     11  C   UNL A   1     -24.704   0.943  27.758  0.00  0.00    +0.269 C 
ATOM     12  N   UNL A   1     -25.205   1.389  26.730  0.00  0.00    -0.180 NA
ATOM     13  O   UNL A   1     -23.982   1.687  28.496  0.00  0.00    -0.268 OA
BRANCH  12  14
ATOM     14  C   UNL A   1     -25.779   0.665  25.631  0.00  0.00    +0.051 C 
ATOM     15  C   UNL A   1     -25.084  -0.091  24.728  0.00  0.00    +0.013 C 
BRANCH  14  16
ATOM     16  C   UNL A   1     -27.225   0.652  25.508  0.00  0.00    +0.043 C 
BRANCH  16  17
ATOM     17  C   UNL A   1     -27.815   1.490  24.495  0.00  0.00    +0.006 C 
BRANCH  17  18
ATOM     18  C   UNL A   1     -28.657   0.734  23.678  0.00  0.00    +0.000 C 
BRANCH  18  19
ATOM     19  C   UNL A   1     -29.442  -0.386  24.180  0.00  0.00    +0.000 C 
ATOM     20  C   UNL A   1     -29.082  -1.603  23.403  0.00  0.00    +0.000 C 
ENDBRANCH  18  19
ENDBRANCH  17  18
ENDBRANCH  16  17
ENDBRANCH  14  16
ENDBRANCH  12  14
ENDBRANCH   9  11
TORSDOF 6
ENDMDL
ENDMDL
