MODEL 4703
MODEL 1
REMARK VINA RESULT:    -6.166      0.000      0.000
REMARK INTER + INTRA:         -11.075
REMARK INTER:                  -9.050
REMARK INTRA:                  -2.026
REMARK UNBOUND:                -2.026
REMARK  Name = No_4703-gen_results/8p0m/2024-11-26-14-13-15/
REMARK  8 active torsions:
REMARK  status: ('A' for Active; 'I' for Inactive)
REMARK    1  A    between atoms: C_2  and  N_7
REMARK    2  A    between atoms: N_7  and  C_8
REMARK    3  A    between atoms: N_7  and  C_14
REMARK    4  A    between atoms: C_14  and  C_16
REMARK    5  A    between atoms: C_16  and  N_17
REMARK    6  A    between atoms: N_17  and  C_18
REMARK    7  A    between atoms: C_18  and  C_19
REMARK    8  A    between atoms: C_19  and  C_20
REMARK                            x       y       z     vdW  Elec       q    Type
REMARK                         _______ _______ _______ _____ _____    ______ ____
ROOT
ATOM      1  N   UNL A   1     -25.129  -1.245  29.066  0.00  0.00    -0.259 N 
ENDROOT
BRANCH   1   3
ATOM      2  C   UNL A   1     -26.657   0.069  28.190  0.00  0.00    +0.015 A 
ATOM      3  C   UNL A   1     -25.782  -0.471  27.961  0.00  0.00    +0.054 A 
ATOM      4  C   UNL A   1     -27.283   0.808  27.082  0.00  0.00    +0.001 A 
ATOM      5  C   UNL A   1     -26.795   0.669  25.750  0.00  0.00    +0.000 A 
ATOM      6  C   UNL A   1     -25.113  -0.819  26.678  0.00  0.00    +0.015 A 
ATOM      7  C   UNL A   1     -25.660  -0.144  25.627  0.00  0.00    +0.001 A 
ENDBRANCH   1   3
BRANCH   1   8
ATOM      8  C   UNL A   1     -25.180  -2.549  29.176  0.00  0.00    +0.054 A 
ATOM      9  C   UNL A   1     -26.160  -3.069  29.650  0.00  0.00    +0.015 A 
ATOM     10  C   UNL A   1     -26.234  -4.580  29.693  0.00  0.00    +0.001 A 
ATOM     11  C   UNL A   1     -25.122  -5.222  29.132  0.00  0.00    +0.000 A 
ATOM     12  C   UNL A   1     -24.107  -3.299  28.643  0.00  0.00    +0.015 A 
ATOM     13  C   UNL A   1     -24.097  -4.590  28.634  0.00  0.00    +0.001 A 
ENDBRANCH   1   8
BRANCH   1  14
ATOM     14  C   UNL A   1     -24.473  -0.387  30.047  0.00  0.00    +0.259 C 
ATOM     15  F   UNL A   1     -25.239   0.076  30.890  0.00  0.00    -0.213 F 
BRANCH  14  16
ATOM     16  C   UNL A   1     -23.175  -0.084  29.930  0.00  0.00    +0.145 C 
BRANCH  16  17
ATOM     17  N   UNL A   1     -22.866   0.983  29.221  0.00  0.00    -0.213 NA
BRANCH  17  18
ATOM     18  C   UNL A   1     -22.122   0.866  28.037  0.00  0.00    +0.093 C 
BRANCH  18  19
ATOM     19  C   UNL A   1     -22.383   1.780  27.034  0.00  0.00    +0.044 C 
BRANCH  19  20
ATOM     20  C   UNL A   1     -23.617   2.543  27.196  0.00  0.00    -0.029 C 
ATOM     21  C   UNL A   1     -24.190   3.287  26.170  0.00  0.00    -0.030 C 
ATOM     22  C   UNL A   1     -25.378   4.010  26.466  0.00  0.00    +0.030 C 
ENDBRANCH  19  20
ENDBRANCH  18  19
ENDBRANCH  17  18
ENDBRANCH  16  17
ENDBRANCH  14  16
ENDBRANCH   1  14
TORSDOF 8
ENDMDL
ENDMDL
