REMARK  Name = No_4703-gen_results/8p0m/2024-11-26-14-13-15/
REMARK  8 active torsions:
REMARK  status: ('A' for Active; 'I' for Inactive)
REMARK    1  A    between atoms: C_2  and  N_7
REMARK    2  A    between atoms: N_7  and  C_8
REMARK    3  A    between atoms: N_7  and  C_14
REMARK    4  A    between atoms: C_14  and  C_16
REMARK    5  A    between atoms: C_16  and  N_17
REMARK    6  A    between atoms: N_17  and  C_18
REMARK    7  A    between atoms: C_18  and  C_19
REMARK    8  A    between atoms: C_19  and  C_20
REMARK                            x       y       z     vdW  Elec       q    Type
REMARK                         _______ _______ _______ _____ _____    ______ ____
ROOT
ATOM      1  N   UNL A   1     -29.965  -0.735  29.890  0.00  0.00    -0.259 N 
ENDROOT
BRANCH   1   3
ATOM      2  C   UNL A   1     -28.016  -0.814  28.878  0.00  0.00    +0.015 A 
ATOM      3  C   UNL A   1     -28.469  -0.785  29.829  0.00  0.00    +0.054 A 
ATOM      4  C   UNL A   1     -26.546  -0.876  28.850  0.00  0.00    +0.001 A 
ATOM      5  C   UNL A   1     -25.804  -1.032  30.057  0.00  0.00    +0.000 A 
ATOM      6  C   UNL A   1     -27.944  -0.987  31.207  0.00  0.00    +0.015 A 
ATOM      7  C   UNL A   1     -26.582  -1.039  31.223  0.00  0.00    +0.001 A 
ENDBRANCH   1   3
BRANCH   1   8
ATOM      8  C   UNL A   1     -30.648   0.317  30.268  0.00  0.00    +0.054 A 
ATOM      9  C   UNL A   1     -30.074   1.360  30.468  0.00  0.00    +0.015 A 
ATOM     10  C   UNL A   1     -30.890   2.583  30.824  0.00  0.00    +0.001 A 
ATOM     11  C   UNL A   1     -32.273   2.358  30.855  0.00  0.00    +0.000 A 
ATOM     12  C   UNL A   1     -32.055   0.202  30.335  0.00  0.00    +0.015 A 
ATOM     13  C   UNL A   1     -32.822   1.200  30.623  0.00  0.00    +0.001 A 
ENDBRANCH   1   8
BRANCH   1  14
ATOM     14  C   UNL A   1     -30.589  -2.006  29.538  0.00  0.00    +0.259 C 
ATOM     15  F   UNL A   1     -31.464  -1.907  28.680  0.00  0.00    -0.213 F 
BRANCH  14  16
ATOM     16  C   UNL A   1     -30.271  -3.128  30.195  0.00  0.00    +0.145 C 
BRANCH  16  17
ATOM     17  N   UNL A   1     -30.629  -4.271  29.645  0.00  0.00    -0.213 NA
BRANCH  17  18
ATOM     18  C   UNL A   1     -31.513  -5.137  30.305  0.00  0.00    +0.093 C 
BRANCH  18  19
ATOM     19  C   UNL A   1     -31.808  -6.335  29.682  0.00  0.00    +0.044 C 
BRANCH  19  20
ATOM     20  C   UNL A   1     -31.488  -6.388  28.259  0.00  0.00    -0.029 C 
ATOM     21  C   UNL A   1     -31.726  -7.507  27.468  0.00  0.00    -0.030 C 
ATOM     22  C   UNL A   1     -31.341  -7.441  26.101  0.00  0.00    +0.030 C 
ENDBRANCH  19  20
ENDBRANCH  18  19
ENDBRANCH  17  18
ENDBRANCH  16  17
ENDBRANCH  14  16
ENDBRANCH   1  14
TORSDOF 8
