MODEL 4704
MODEL 1
REMARK VINA RESULT:    -8.026      0.000      0.000
REMARK INTER + INTRA:         -10.021
REMARK INTER:                  -9.433
REMARK INTRA:                  -0.588
REMARK UNBOUND:                -0.588
REMARK  Name = No_4704-gen_results/8p0m/2024-11-26-14-13-15/
REMARK  3 active torsions:
REMARK  status: ('A' for Active; 'I' for Inactive)
REMARK    1  A    between atoms: C_3  and  C_7
REMARK    2  A    between atoms: C_6  and  C_19
REMARK    3  A    between atoms: C_9  and  C_10
REMARK                            x       y       z     vdW  Elec       q    Type
REMARK                         _______ _______ _______ _____ _____    ______ ____
ROOT
ATOM      1  C   UNL A   1     -11.215   1.182  33.847  0.00  0.00    +0.004 A 
ATOM      2  C   UNL A   1     -12.168   1.467  33.499  0.00  0.00    +0.000 A 
ATOM      3  C   UNL A   1     -10.942   1.342  35.223  0.00  0.00    +0.054 A 
ATOM      4  C   UNL A   1     -11.875   1.864  36.097  0.00  0.00    +0.004 A 
ATOM      5  C   UNL A   1     -13.329   2.038  34.210  0.00  0.00    +0.000 A 
ATOM      6  C   UNL A   1     -13.109   2.209  35.532  0.00  0.00    +0.000 A 
ENDROOT
BRANCH   3   7
ATOM      7  C   UNL A   1      -9.643   0.932  35.857  0.00  0.00    +0.255 C 
ATOM      8  N   UNL A   1      -9.433   1.267  37.130  0.00  0.00    -0.221 N 
ATOM      9  C   UNL A   1      -9.759   0.572  38.148  0.00  0.00    +0.255 C 
ATOM     10  O   UNL A   1      -8.982   0.794  39.240  0.00  0.00    -0.270 OA
ATOM     11  O   UNL A   1      -8.765   0.335  35.237  0.00  0.00    -0.270 OA
ATOM     12  C   UNL A   1      -8.680   2.538  37.208  0.00  0.00    +0.123 C 
BRANCH   9  13
ATOM     13  C   UNL A   1     -10.590  -0.529  38.255  0.00  0.00    +0.054 A 
ATOM     14  C   UNL A   1     -10.704  -1.543  37.429  0.00  0.00    +0.004 A 
ATOM     15  C   UNL A   1     -11.558  -2.613  37.526  0.00  0.00    +0.000 A 
ATOM     16  C   UNL A   1     -12.353  -2.656  38.687  0.00  0.00    +0.000 A 
ATOM     17  C   UNL A   1     -12.278  -1.689  39.699  0.00  0.00    +0.000 A 
ATOM     18  C   UNL A   1     -11.457  -0.613  39.510  0.00  0.00    +0.004 A 
ENDBRANCH   9  13
ENDBRANCH   3   7
BRANCH   6  19
ATOM     19  C   UNL A   1     -14.169   2.827  36.435  0.00  0.00    +0.000 A 
ATOM     20  C   UNL A   1     -15.151   3.353  35.872  0.00  0.00    +0.000 A 
ATOM     21  C   UNL A   1     -16.301   3.913  36.627  0.00  0.00    +0.000 A 
ATOM     22  C   UNL A   1     -16.177   4.036  37.979  0.00  0.00    +0.000 A 
ATOM     23  C   UNL A   1     -15.037   3.433  38.551  0.00  0.00    +0.000 A 
ATOM     24  C   UNL A   1     -14.048   2.845  37.823  0.00  0.00    +0.000 A 
ENDBRANCH   6  19
TORSDOF 3
ENDMDL
ENDMDL
