REMARK  Name = No_4704-gen_results/8p0m/2024-11-26-14-13-15/
REMARK  3 active torsions:
REMARK  status: ('A' for Active; 'I' for Inactive)
REMARK    1  A    between atoms: C_3  and  C_7
REMARK    2  A    between atoms: C_6  and  C_19
REMARK    3  A    between atoms: C_9  and  C_10
REMARK                            x       y       z     vdW  Elec       q    Type
REMARK                         _______ _______ _______ _____ _____    ______ ____
ROOT
ATOM      1  C   UNL A   1     -28.016  -0.814  28.878  0.00  0.00    +0.004 A 
ATOM      2  C   UNL A   1     -28.469  -0.785  29.829  0.00  0.00    +0.000 A 
ATOM      3  C   UNL A   1     -27.136   0.236  28.535  0.00  0.00    +0.054 A 
ATOM      4  C   UNL A   1     -26.875   1.282  29.398  0.00  0.00    +0.004 A 
ATOM      5  C   UNL A   1     -28.361   0.199  30.924  0.00  0.00    +0.000 A 
ATOM      6  C   UNL A   1     -27.528   1.223  30.636  0.00  0.00    +0.000 A 
ENDROOT
BRANCH   3   7
ATOM      7  C   UNL A   1     -26.388   0.291  27.233  0.00  0.00    +0.255 C 
ATOM      8  N   UNL A   1     -25.557   1.312  27.029  0.00  0.00    -0.221 N 
ATOM      9  C   UNL A   1     -24.323   1.346  27.350  0.00  0.00    +0.255 C 
ATOM     10  O   UNL A   1     -23.575   2.176  26.578  0.00  0.00    -0.270 OA
ATOM     11  O   UNL A   1     -26.542  -0.548  26.347  0.00  0.00    -0.270 OA
ATOM     12  C   UNL A   1     -26.245   2.394  26.291  0.00  0.00    +0.123 C 
BRANCH   9  13
ATOM     13  C   UNL A   1     -23.585   0.511  28.169  0.00  0.00    +0.054 A 
ATOM     14  C   UNL A   1     -23.981  -0.580  28.784  0.00  0.00    +0.004 A 
ATOM     15  C   UNL A   1     -23.250  -1.382  29.624  0.00  0.00    +0.000 A 
ATOM     16  C   UNL A   1     -21.898  -1.026  29.785  0.00  0.00    +0.000 A 
ATOM     17  C   UNL A   1     -21.312   0.062  29.123  0.00  0.00    +0.000 A 
ATOM     18  C   UNL A   1     -22.110   0.861  28.354  0.00  0.00    +0.004 A 
ENDBRANCH   9  13
ENDBRANCH   3   7
BRANCH   6  19
ATOM     19  C   UNL A   1     -27.314   2.367  31.620  0.00  0.00    +0.000 A 
ATOM     20  C   UNL A   1     -26.172   2.483  32.109  0.00  0.00    +0.000 A 
ATOM     21  C   UNL A   1     -25.797   3.602  33.010  0.00  0.00    +0.000 A 
ATOM     22  C   UNL A   1     -26.794   4.408  33.474  0.00  0.00    +0.000 A 
ATOM     23  C   UNL A   1     -28.064   4.216  32.891  0.00  0.00    +0.000 A 
ATOM     24  C   UNL A   1     -28.342   3.231  31.994  0.00  0.00    +0.000 A 
ENDBRANCH   6  19
TORSDOF 3
