MODEL 4705
MODEL 1
REMARK VINA RESULT:    -5.741      0.000      0.000
REMARK INTER + INTRA:         -10.192
REMARK INTER:                  -8.090
REMARK INTRA:                  -2.102
REMARK UNBOUND:                -2.102
REMARK  Name = No_4705-gen_results/8p0m/2024-11-26-14-13-15/
REMARK  7 active torsions:
REMARK  status: ('A' for Active; 'I' for Inactive)
REMARK    1  A    between atoms: C_3  and  C_7
REMARK    2  A    between atoms: C_7  and  C_9
REMARK    3  A    between atoms: C_13  and  C_14
REMARK    4  A    between atoms: C_14  and  C_16
REMARK    5  A    between atoms: C_16  and  C_17
REMARK    6  A    between atoms: C_17  and  N_18
REMARK    7  A    between atoms: N_18  and  C_19
REMARK                            x       y       z     vdW  Elec       q    Type
REMARK                         _______ _______ _______ _____ _____    ______ ____
ROOT
ATOM      1  C   UNL A   1     -24.247  -1.937  29.339  0.00  0.00    +0.041 C 
ATOM      2  C   UNL A   1     -23.838  -3.256  28.919  0.00  0.00    -0.029 C 
ATOM      3  C   UNL A   1     -24.897  -4.269  28.971  0.00  0.00    -0.031 C 
ATOM      4  C   UNL A   1     -26.059  -3.883  29.699  0.00  0.00    +0.026 C 
ATOM      5  C   UNL A   1     -25.532  -2.076  29.969  0.00  0.00    +0.010 C 
ENDROOT
BRANCH   1   6
ATOM      6  C   UNL A   1     -23.187  -0.939  29.339  0.00  0.00    +0.106 C 
ATOM      7 CL   UNL A   1     -22.557  -0.737  30.623  0.00  0.00    -0.110 Cl
BRANCH   6  10
ATOM      8  C   UNL A   1     -24.385  -0.015  27.270  0.00  0.00    -0.003 A 
ATOM      9  C   UNL A   1     -24.408   0.718  26.514  0.00  0.00    -0.000 A 
ATOM     10  C   UNL A   1     -23.318   0.025  28.194  0.00  0.00    -0.007 A 
ATOM     11  C   UNL A   1     -22.321   0.977  28.118  0.00  0.00    -0.003 A 
ATOM     12  C   UNL A   1     -23.486   1.831  26.215  0.00  0.00    -0.000 A 
ATOM     13  C   UNL A   1     -22.448   1.905  27.076  0.00  0.00    -0.000 A 
ENDBRANCH   6  10
ENDBRANCH   1   6
BRANCH   5  14
ATOM     14  C   UNL A   1     -26.368  -1.283  30.695  0.00  0.00    +0.003 C 
ATOM     15  C   UNL A   1     -25.960  -0.896  31.922  0.00  0.00    +0.000 C 
BRANCH  14  16
ATOM     16  C   UNL A   1     -27.587  -0.729  30.094  0.00  0.00    +0.023 C 
BRANCH  16  17
ATOM     17  C   UNL A   1     -27.612   0.053  28.922  0.00  0.00    +0.113 C 
BRANCH  17  18
ATOM     18  N   UNL A   1     -27.892   1.298  29.059  0.00  0.00    -0.226 NA
BRANCH  18  19
ATOM     19  C   UNL A   1     -27.009   2.262  28.737  0.00  0.00    +0.165 C 
ATOM     20  C   UNL A   1     -25.836   2.451  29.576  0.00  0.00    +0.152 C 
ATOM     21  O   UNL A   1     -25.001   3.145  29.217  0.00  0.00    -0.230 OA
ENDBRANCH  18  19
ENDBRANCH  17  18
ENDBRANCH  16  17
ENDBRANCH  14  16
ENDBRANCH   5  14
TORSDOF 7
ENDMDL
ENDMDL
