REMARK  Name = No_4705-gen_results/8p0m/2024-11-26-14-13-15/
REMARK  7 active torsions:
REMARK  status: ('A' for Active; 'I' for Inactive)
REMARK    1  A    between atoms: C_3  and  C_7
REMARK    2  A    between atoms: C_7  and  C_9
REMARK    3  A    between atoms: C_13  and  C_14
REMARK    4  A    between atoms: C_14  and  C_16
REMARK    5  A    between atoms: C_16  and  C_17
REMARK    6  A    between atoms: C_17  and  N_18
REMARK    7  A    between atoms: N_18  and  C_19
REMARK                            x       y       z     vdW  Elec       q    Type
REMARK                         _______ _______ _______ _____ _____    ______ ____
ROOT
ATOM      1  C   UNL A   1     -25.258   1.199  27.282  0.00  0.00    +0.041 C 
ATOM      2  C   UNL A   1     -23.971   0.558  27.155  0.00  0.00    -0.029 C 
ATOM      3  C   UNL A   1     -22.829   1.478  27.158  0.00  0.00    -0.031 C 
ATOM      4  C   UNL A   1     -23.166   2.851  26.981  0.00  0.00    +0.026 C 
ATOM      5  C   UNL A   1     -25.049   2.607  27.084  0.00  0.00    +0.010 C 
ENDROOT
BRANCH   1   6
ATOM      6  C   UNL A   1     -26.399   0.295  27.228  0.00  0.00    +0.106 C 
ATOM      7 CL   UNL A   1     -26.898   0.044  25.896  0.00  0.00    -0.110 Cl
BRANCH   6  10
ATOM      8  C   UNL A   1     -28.016  -0.814  28.878  0.00  0.00    -0.003 A 
ATOM      9  C   UNL A   1     -28.469  -0.785  29.829  0.00  0.00    -0.000 A 
ATOM     10  C   UNL A   1     -27.136   0.236  28.535  0.00  0.00    -0.007 A 
ATOM     11  C   UNL A   1     -26.875   1.282  29.398  0.00  0.00    -0.003 A 
ATOM     12  C   UNL A   1     -28.361   0.199  30.924  0.00  0.00    -0.000 A 
ATOM     13  C   UNL A   1     -27.528   1.223  30.636  0.00  0.00    -0.000 A 
ENDBRANCH   6  10
ENDBRANCH   1   6
BRANCH   5  14
ATOM     14  C   UNL A   1     -25.831   3.710  26.921  0.00  0.00    +0.003 C 
ATOM     15  C   UNL A   1     -27.138   3.519  26.643  0.00  0.00    +0.000 C 
BRANCH  14  16
ATOM     16  C   UNL A   1     -25.308   5.050  27.211  0.00  0.00    +0.023 C 
BRANCH  16  17
ATOM     17  C   UNL A   1     -25.730   5.854  28.289  0.00  0.00    +0.113 C 
BRANCH  17  18
ATOM     18  N   UNL A   1     -25.879   5.274  29.424  0.00  0.00    -0.226 NA
BRANCH  18  19
ATOM     19  C   UNL A   1     -25.491   5.856  30.574  0.00  0.00    +0.165 C 
ATOM     20  C   UNL A   1     -25.521   5.076  31.802  0.00  0.00    +0.152 C 
ATOM     21  O   UNL A   1     -25.035   5.504  32.745  0.00  0.00    -0.230 OA
ENDBRANCH  18  19
ENDBRANCH  17  18
ENDBRANCH  16  17
ENDBRANCH  14  16
ENDBRANCH   5  14
TORSDOF 7
