REMARK  Name = No_4706-gen_results/8p0m/2024-11-26-14-13-15/
REMARK  5 active torsions:
REMARK  status: ('A' for Active; 'I' for Inactive)
REMARK    1  A    between atoms: C_1  and  C_2
REMARK    2  A    between atoms: C_1  and  N_8
REMARK    3  A    between atoms: C_5  and  C_10
REMARK    4  A    between atoms: N_8  and  C_9
REMARK    5  A    between atoms: C_13  and  C_14
REMARK                            x       y       z     vdW  Elec       q    Type
REMARK                         _______ _______ _______ _____ _____    ______ ____
ROOT
ATOM      1  C   UNL A   1     -28.016  -0.814  28.878  0.00  0.00    +0.139 C 
ENDROOT
BRANCH   1   2
ATOM      2  C   UNL A   1     -27.064  -0.119  28.608  0.00  0.00    -0.001 A 
ATOM      3  C   UNL A   1     -27.001   0.691  27.491  0.00  0.00    -0.002 A 
ATOM      4  C   UNL A   1     -25.855   1.482  27.083  0.00  0.00    +0.005 A 
ATOM      5  C   UNL A   1     -24.690   1.453  27.881  0.00  0.00    +0.059 A 
ATOM      6  C   UNL A   1     -24.738   0.601  29.042  0.00  0.00    +0.005 A 
ATOM      7  C   UNL A   1     -25.823  -0.169  29.389  0.00  0.00    -0.002 A 
BRANCH   5   8
ATOM      8  C   UNL A   1     -23.519   2.203  27.555  0.00  0.00    +0.297 C 
ATOM      9  N   UNL A   1     -23.433   2.758  26.338  0.00  0.00    -0.102 NA
ATOM     10  O   UNL A   1     -22.407   2.054  28.176  0.00  0.00    -0.264 OA
ENDBRANCH   5   8
ENDBRANCH   1   2
BRANCH   1  11
ATOM     11  N   UNL A   1     -29.215  -0.173  29.013  0.00  0.00    -0.232 NA
BRANCH  11  12
ATOM     12  C   UNL A   1     -30.246  -0.774  29.639  0.00  0.00    +0.081 C 
ATOM     13  C   UNL A   1     -30.417  -0.829  30.819  0.00  0.00    +0.017 C 
BRANCH  13  14
ATOM     14  C   UNL A   1     -29.533   0.023  31.620  0.00  0.00    +0.001 A 
ATOM     15  C   UNL A   1     -28.808  -0.468  32.631  0.00  0.00    +0.000 A 
ATOM     16  C   UNL A   1     -28.026   0.348  33.535  0.00  0.00    +0.000 A 
ATOM     17  C   UNL A   1     -27.881   1.734  33.222  0.00  0.00    +0.000 A 
ATOM     18  C   UNL A   1     -28.628   2.202  32.108  0.00  0.00    +0.000 A 
ATOM     19  C   UNL A   1     -29.403   1.397  31.349  0.00  0.00    +0.000 A 
ENDBRANCH  13  14
ENDBRANCH  11  12
ENDBRANCH   1  11
TORSDOF 5
