MODEL 4707
MODEL 1
REMARK VINA RESULT:    -6.136      0.000      0.000
REMARK INTER + INTRA:          -7.035
REMARK INTER:                  -6.853
REMARK INTRA:                  -0.181
REMARK UNBOUND:                -0.181
REMARK  Name = No_4707-gen_results/8p0m/2024-11-26-14-13-15/
REMARK  2 active torsions:
REMARK  status: ('A' for Active; 'I' for Inactive)
REMARK    1  A    between atoms: C_2  and  C_7
REMARK    2  A    between atoms: N_9  and  C_10
REMARK                            x       y       z     vdW  Elec       q    Type
REMARK                         _______ _______ _______ _____ _____    ______ ____
ROOT
ATOM      1  C   UNL A   1     -24.284  -1.205  28.614  0.00  0.00    +0.269 C 
ATOM      2  O   UNL A   1     -23.207  -0.952  28.728  0.00  0.00    -0.268 OA
ATOM      3  N   UNL A   1     -25.205  -0.440  27.830  0.00  0.00    -0.175 NA
ENDROOT
BRANCH   1   5
ATOM      4  C   UNL A   1     -23.958  -3.461  28.523  0.00  0.00    +0.005 A 
ATOM      5  C   UNL A   1     -24.632  -2.746  28.905  0.00  0.00    +0.055 A 
ATOM      6  C   UNL A   1     -24.317  -4.904  28.799  0.00  0.00    +0.000 A 
ATOM      7  C   UNL A   1     -25.557  -5.205  29.401  0.00  0.00    +0.000 A 
ATOM      8  C   UNL A   1     -25.977  -2.791  29.520  0.00  0.00    +0.005 A 
ATOM      9  C   UNL A   1     -26.344  -4.103  29.784  0.00  0.00    +0.000 A 
ENDBRANCH   1   5
BRANCH   3  10
ATOM     10  C   UNL A   1     -24.800   0.862  27.445  0.00  0.00    +0.074 A 
ATOM     11  C   UNL A   1     -25.001   1.690  28.008  0.00  0.00    +0.017 A 
ATOM     12  C   UNL A   1     -24.686   3.091  27.622  0.00  0.00    +0.001 A 
ATOM     13  C   UNL A   1     -24.024   3.216  26.382  0.00  0.00    +0.000 A 
ATOM     14  C   UNL A   1     -23.805   2.090  25.640  0.00  0.00    +0.001 A 
ATOM     15  C   UNL A   1     -24.149   0.872  26.098  0.00  0.00    +0.017 A 
ENDBRANCH   3  10
TORSDOF 2
ENDMDL
ENDMDL
