REMARK  Name = No_4707-gen_results/8p0m/2024-11-26-14-13-15/
REMARK  2 active torsions:
REMARK  status: ('A' for Active; 'I' for Inactive)
REMARK    1  A    between atoms: C_2  and  C_7
REMARK    2  A    between atoms: N_9  and  C_10
REMARK                            x       y       z     vdW  Elec       q    Type
REMARK                         _______ _______ _______ _____ _____    ______ ____
ROOT
ATOM      1  C   UNL A   1     -30.074  -0.836  29.861  0.00  0.00    +0.269 C 
ATOM      2  O   UNL A   1     -30.561  -0.442  28.942  0.00  0.00    -0.268 OA
ATOM      3  N   UNL A   1     -30.704  -1.742  30.773  0.00  0.00    -0.175 NA
ENDROOT
BRANCH   1   5
ATOM      4  C   UNL A   1     -28.016  -0.814  28.878  0.00  0.00    +0.005 A 
ATOM      5  C   UNL A   1     -28.469  -0.785  29.829  0.00  0.00    +0.055 A 
ATOM      6  C   UNL A   1     -26.504  -0.778  28.877  0.00  0.00    +0.000 A 
ATOM      7  C   UNL A   1     -25.810  -0.853  30.103  0.00  0.00    +0.000 A 
ATOM      8  C   UNL A   1     -27.991  -0.892  31.226  0.00  0.00    +0.005 A 
ATOM      9  C   UNL A   1     -26.604  -0.868  31.265  0.00  0.00    +0.000 A 
ENDBRANCH   1   5
BRANCH   3  10
ATOM     10  C   UNL A   1     -32.109  -1.893  30.667  0.00  0.00    +0.074 A 
ATOM     11  C   UNL A   1     -32.630  -2.586  31.207  0.00  0.00    +0.017 A 
ATOM     12  C   UNL A   1     -34.086  -2.859  31.079  0.00  0.00    +0.001 A 
ATOM     13  C   UNL A   1     -34.751  -2.035  30.146  0.00  0.00    +0.000 A 
ATOM     14  C   UNL A   1     -34.015  -1.145  29.417  0.00  0.00    +0.001 A 
ATOM     15  C   UNL A   1     -32.692  -0.999  29.619  0.00  0.00    +0.017 A 
ENDBRANCH   3  10
TORSDOF 2
