REMARK  Name = No_4708-gen_results/8p0m/2024-11-26-14-13-15/
REMARK  3 active torsions:
REMARK  status: ('A' for Active; 'I' for Inactive)
REMARK    1  A    between atoms: C_1  and  O_17
REMARK    2  A    between atoms: C_3  and  C_7
REMARK    3  A    between atoms: O_17  and  C_18
REMARK                            x       y       z     vdW  Elec       q    Type
REMARK                         _______ _______ _______ _____ _____    ______ ____
ROOT
ATOM      1  C   UNL A   1     -28.016  -0.814  28.878  0.00  0.00    +0.156 A 
ATOM      2  C   UNL A   1     -27.064  -0.119  28.608  0.00  0.00    +0.038 A 
ATOM      3  C   UNL A   1     -25.765  -0.390  29.036  0.00  0.00    +0.003 A 
ATOM      4  C   UNL A   1     -25.530  -1.530  29.901  0.00  0.00    +0.001 A 
ATOM      5  C   UNL A   1     -26.689  -2.289  30.181  0.00  0.00    +0.015 A 
ATOM      6  C   UNL A   1     -27.873  -1.951  29.737  0.00  0.00    +0.092 A 
ATOM      7 CL   UNL A   1     -29.339  -2.765  30.144  0.00  0.00    -0.079 Cl
ENDROOT
BRANCH   3   8
ATOM      8  C   UNL A   1     -24.549   0.410  28.734  0.00  0.00    -0.001 A 
ATOM      9  C   UNL A   1     -24.479   1.187  27.684  0.00  0.00    +0.015 A 
ATOM     10  C   UNL A   1     -23.272   1.897  27.373  0.00  0.00    +0.135 A 
ATOM     11  C   UNL A   1     -22.106   1.703  28.041  0.00  0.00    +0.037 A 
ATOM     12  C   UNL A   1     -23.319   0.179  29.467  0.00  0.00    -0.000 A 
ATOM     13  C   UNL A   1     -22.116   0.840  29.101  0.00  0.00    +0.003 A 
ATOM     14  O   UNL A   1     -23.326   2.770  26.303  0.00  0.00    -0.475 OA
ATOM     15  C   UNL A   1     -24.500   2.644  25.620  0.00  0.00    +0.210 C 
ATOM     16  C   UNL A   1     -25.154   1.578  26.460  0.00  0.00    +0.077 C 
ENDBRANCH   3   8
BRANCH   1  17
ATOM     17  O   UNL A   1     -29.291  -0.534  28.469  0.00  0.00    -0.453 OA
BRANCH  17  18
ATOM     18  C   UNL A   1     -30.087   0.205  29.220  0.00  0.00    +0.145 A 
ATOM     19  C   UNL A   1     -30.564   1.315  28.500  0.00  0.00    +0.037 A 
ATOM     20  C   UNL A   1     -31.200   2.208  29.249  0.00  0.00    +0.003 A 
ATOM     21  C   UNL A   1     -31.706   1.811  30.412  0.00  0.00    +0.000 A 
ATOM     22  C   UNL A   1     -31.281   0.710  31.111  0.00  0.00    +0.003 A 
ATOM     23  C   UNL A   1     -30.406  -0.098  30.496  0.00  0.00    +0.037 A 
ENDBRANCH  17  18
ENDBRANCH   1  17
TORSDOF 3
