MODEL 4708
MODEL 1
REMARK VINA RESULT:    -8.102      0.000      0.000
REMARK INTER + INTRA:         -10.534
REMARK INTER:                  -9.523
REMARK INTRA:                  -1.012
REMARK UNBOUND:                -1.012
REMARK  Name = No_4708-gen_results/8p0m/2024-11-26-14-13-15/
REMARK  3 active torsions:
REMARK  status: ('A' for Active; 'I' for Inactive)
REMARK    1  A    between atoms: C_1  and  O_17
REMARK    2  A    between atoms: C_3  and  C_7
REMARK    3  A    between atoms: O_17  and  C_18
REMARK                            x       y       z     vdW  Elec       q    Type
REMARK                         _______ _______ _______ _____ _____    ______ ____
ROOT
ATOM      1  C   UNL A   1     -24.346  -0.604  28.691  0.00  0.00    +0.156 A 
ATOM      2  C   UNL A   1     -25.210  -0.331  27.889  0.00  0.00    +0.038 A 
ATOM      3  C   UNL A   1     -25.023   0.550  26.825  0.00  0.00    +0.003 A 
ATOM      4  C   UNL A   1     -23.750   1.232  26.688  0.00  0.00    +0.001 A 
ATOM      5  C   UNL A   1     -22.795   0.870  27.664  0.00  0.00    +0.015 A 
ATOM      6  C   UNL A   1     -23.065   0.033  28.634  0.00  0.00    +0.092 A 
ATOM      7 CL   UNL A   1     -21.984  -0.353  29.922  0.00  0.00    -0.079 Cl
ENDROOT
BRANCH   3   8
ATOM      8  C   UNL A   1     -26.031   0.923  25.799  0.00  0.00    -0.001 A 
ATOM      9  C   UNL A   1     -26.724   2.030  25.883  0.00  0.00    +0.015 A 
ATOM     10  C   UNL A   1     -27.741   2.337  24.919  0.00  0.00    +0.135 A 
ATOM     11  C   UNL A   1     -28.146   1.460  23.966  0.00  0.00    +0.037 A 
ATOM     12  C   UNL A   1     -26.443  -0.037  24.793  0.00  0.00    -0.000 A 
ATOM     13  C   UNL A   1     -27.499   0.259  23.890  0.00  0.00    +0.003 A 
ATOM     14  O   UNL A   1     -28.348   3.574  25.033  0.00  0.00    -0.475 OA
ATOM     15  C   UNL A   1     -27.978   4.202  26.186  0.00  0.00    +0.210 C 
ATOM     16  C   UNL A   1     -27.034   3.164  26.734  0.00  0.00    +0.077 C 
ENDBRANCH   3   8
BRANCH   1  17
ATOM     17  O   UNL A   1     -24.540  -1.457  29.743  0.00  0.00    -0.453 OA
BRANCH  17  18
ATOM     18  C   UNL A   1     -24.866  -2.719  29.529  0.00  0.00    +0.145 A 
ATOM     19  C   UNL A   1     -23.793  -3.421  28.951  0.00  0.00    +0.037 A 
ATOM     20  C   UNL A   1     -24.115  -4.635  28.521  0.00  0.00    +0.003 A 
ATOM     21  C   UNL A   1     -25.189  -5.224  29.038  0.00  0.00    +0.000 A 
ATOM     22  C   UNL A   1     -26.228  -4.560  29.639  0.00  0.00    +0.003 A 
ATOM     23  C   UNL A   1     -26.065  -3.247  29.853  0.00  0.00    +0.037 A 
ENDBRANCH  17  18
ENDBRANCH   1  17
TORSDOF 3
ENDMDL
ENDMDL
