MODEL 4709
MODEL 1
REMARK VINA RESULT:    -7.331      0.000      0.000
REMARK INTER + INTRA:          -7.900
REMARK INTER:                  -8.617
REMARK INTRA:                   0.717
REMARK UNBOUND:                 0.717
REMARK  Name = No_4709-gen_results/8p0m/2024-11-26-14-13-15/
REMARK  3 active torsions:
REMARK  status: ('A' for Active; 'I' for Inactive)
REMARK    1  A    between atoms: C_4  and  C_8
REMARK    2  A    between atoms: C_8  and  C_9
REMARK    3  A    between atoms: C_13  and  C_15
REMARK                            x       y       z     vdW  Elec       q    Type
REMARK                         _______ _______ _______ _____ _____    ______ ____
ROOT
ATOM      1  C   UNL A   1     -23.873   1.931  26.416  0.00  0.00    +0.038 C 
ATOM      2  C   UNL A   1     -24.234   3.350  26.926  0.00  0.00    +0.009 C 
ATOM      3  C   UNL A   1     -22.750   2.282  25.187  0.00  0.00    +0.009 C 
ENDROOT
BRANCH   1   7
ATOM      4  C   UNL A   1     -27.379   1.945  25.029  0.00  0.00    +0.011 A 
ATOM      5  C   UNL A   1     -27.419   0.978  24.611  0.00  0.00    +0.058 A 
ATOM      6  C   UNL A   1     -26.126   2.321  25.702  0.00  0.00    -0.003 A 
ATOM      7  C   UNL A   1     -24.990   1.461  25.653  0.00  0.00    -0.019 A 
ATOM      8  C   UNL A   1     -26.385  -0.067  24.379  0.00  0.00    +0.011 A 
ATOM      9  C   UNL A   1     -25.210   0.242  24.997  0.00  0.00    -0.003 A 
ATOM     10 CL   UNL A   1     -28.951   0.502  23.765  0.00  0.00    -0.082 Cl
ENDBRANCH   1   7
BRANCH   1  11
ATOM     11  C   UNL A   1     -23.110   1.161  27.202  0.00  0.00    -0.019 A 
ATOM     12  C   UNL A   1     -21.765   1.469  27.441  0.00  0.00    -0.004 A 
ATOM     13  C   UNL A   1     -20.991   0.637  28.307  0.00  0.00    -0.000 A 
ATOM     14  C   UNL A   1     -21.596  -0.396  29.046  0.00  0.00    +0.007 A 
ATOM     15  C   UNL A   1     -22.918  -0.704  28.775  0.00  0.00    +0.080 A 
ATOM     16  C   UNL A   1     -23.692   0.058  27.901  0.00  0.00    +0.003 A 
BRANCH  15  17
ATOM     17  C   UNL A   1     -23.455  -1.852  29.511  0.00  0.00    +0.388 C 
ATOM     18  O   UNL A   1     -23.823  -1.677  30.479  0.00  0.00    -0.241 OA
ATOM     19  O   UNL A   1     -23.443  -2.974  28.847  0.00  0.00    -0.241 OA
ENDBRANCH  15  17
ENDBRANCH   1  11
TORSDOF 3
ENDMDL
ENDMDL
