REMARK  Name = No_4709-gen_results/8p0m/2024-11-26-14-13-15/
REMARK  3 active torsions:
REMARK  status: ('A' for Active; 'I' for Inactive)
REMARK    1  A    between atoms: C_4  and  C_8
REMARK    2  A    between atoms: C_8  and  C_9
REMARK    3  A    between atoms: C_13  and  C_15
REMARK                            x       y       z     vdW  Elec       q    Type
REMARK                         _______ _______ _______ _____ _____    ______ ____
ROOT
ATOM      1  C   UNL A   1     -24.384  -1.001  29.873  0.00  0.00    +0.038 C 
ATOM      2  C   UNL A   1     -23.913  -2.469  29.706  0.00  0.00    +0.009 C 
ATOM      3  C   UNL A   1     -23.848  -0.645  31.448  0.00  0.00    +0.009 C 
ENDROOT
BRANCH   1   7
ATOM      4  C   UNL A   1     -28.016  -0.814  28.878  0.00  0.00    +0.011 A 
ATOM      5  C   UNL A   1     -28.469  -0.785  29.829  0.00  0.00    +0.058 A 
ATOM      6  C   UNL A   1     -26.546  -0.876  28.850  0.00  0.00    -0.003 A 
ATOM      7  C   UNL A   1     -25.804  -1.032  30.057  0.00  0.00    -0.019 A 
ATOM      8  C   UNL A   1     -27.944  -0.987  31.207  0.00  0.00    +0.011 A 
ATOM      9  C   UNL A   1     -26.582  -1.039  31.223  0.00  0.00    -0.003 A 
ATOM     10 CL   UNL A   1     -30.281  -0.723  29.883  0.00  0.00    -0.082 Cl
ENDBRANCH   1   7
BRANCH   1  11
ATOM     11  C   UNL A   1     -23.725  -0.053  29.194  0.00  0.00    -0.019 A 
ATOM     12  C   UNL A   1     -22.331  -0.081  29.070  0.00  0.00    -0.004 A 
ATOM     13  C   UNL A   1     -21.667   0.934  28.314  0.00  0.00    -0.000 A 
ATOM     14  C   UNL A   1     -22.400   1.872  27.565  0.00  0.00    +0.007 A 
ATOM     15  C   UNL A   1     -23.775   1.902  27.724  0.00  0.00    +0.080 A 
ATOM     16  C   UNL A   1     -24.453   0.955  28.490  0.00  0.00    +0.003 A 
BRANCH  15  17
ATOM     17  C   UNL A   1     -24.465   2.966  26.988  0.00  0.00    +0.388 C 
ATOM     18  O   UNL A   1     -24.906   3.736  27.550  0.00  0.00    -0.241 OA
ATOM     19  O   UNL A   1     -24.417   2.844  25.691  0.00  0.00    -0.241 OA
ENDBRANCH  15  17
ENDBRANCH   1  11
TORSDOF 3
