MODEL 470
MODEL 1
REMARK VINA RESULT:    -7.070      0.000      0.000
REMARK INTER + INTRA:          -8.204
REMARK INTER:                  -7.897
REMARK INTRA:                  -0.307
REMARK UNBOUND:                -0.307
REMARK  Name = No_470-gen_results/8p0m/2024-11-26-14-13-15/
REMARK  2 active torsions:
REMARK  status: ('A' for Active; 'I' for Inactive)
REMARK    1  A    between atoms: C_9  and  C_10
REMARK    2  A    between atoms: C_10  and  C_12
REMARK                            x       y       z     vdW  Elec       q    Type
REMARK                         _______ _______ _______ _____ _____    ______ ____
ROOT
ATOM      1  C   UNL A   1     -22.955   1.208  27.455  0.00  0.00    +0.201 C 
ATOM      2  C   UNL A   1     -23.425   1.476  26.551  0.00  0.00    -0.008 C 
ATOM      3  F   UNL A   1     -21.874   1.906  27.823  0.00  0.00    -0.228 F 
ATOM      4  C   UNL A   1     -23.061   0.045  28.242  0.00  0.00    +0.009 A 
ATOM      5  C   UNL A   1     -24.277  -0.693  28.185  0.00  0.00    -0.027 A 
ATOM      6  C   UNL A   1     -23.284   2.633  25.688  0.00  0.00    -0.006 C 
ATOM      7  C   UNL A   1     -25.074  -0.336  27.083  0.00  0.00    +0.030 C 
ATOM      8  C   UNL A   1     -24.795   0.725  26.324  0.00  0.00    +0.030 C 
ATOM      9  C   UNL A   1     -24.412  -1.834  29.040  0.00  0.00    -0.022 A 
ATOM     10  C   UNL A   1     -23.891  -1.687  30.407  0.00  0.00    -0.004 A 
ATOM     11  C   UNL A   1     -23.011  -0.700  30.764  0.00  0.00    -0.001 A 
ATOM     12  C   UNL A   1     -22.458   0.197  29.686  0.00  0.00    -0.002 A 
ENDROOT
BRANCH   9  13
ATOM     13  C   UNL A   1     -24.920  -2.808  28.717  0.00  0.00    +0.052 C 
BRANCH  13  14
ATOM     14  C   UNL A   1     -24.281  -4.154  28.819  0.00  0.00    -0.021 C 
ATOM     15  C   UNL A   1     -24.882  -5.347  28.985  0.00  0.00    -0.005 C 
ENDBRANCH  13  14
ENDBRANCH   9  13
TORSDOF 2
ENDMDL
ENDMDL
