REMARK  Name = No_471-gen_results/8p0m/2024-11-26-14-13-15/
REMARK  10 active torsions:
REMARK  status: ('A' for Active; 'I' for Inactive)
REMARK    1  A    between atoms: C_1  and  C_2
REMARK    2  A    between atoms: C_1  and  N_8
REMARK    3  A    between atoms: C_3  and  C_28
REMARK    4  A    between atoms: C_5  and  C_11
REMARK    5  A    between atoms: N_8  and  C_10
REMARK    6  A    between atoms: C_9  and  C_20
REMARK    7  A    between atoms: C_15  and  C_34
REMARK    8  A    between atoms: C_17  and  C_19
REMARK    9  A    between atoms: C_22  and  C_23
REMARK   10  A    between atoms: C_24  and  C_25
REMARK                            x       y       z     vdW  Elec       q    Type
REMARK                         _______ _______ _______ _____ _____    ______ ____
ROOT
ATOM      1  N   UNL A   1     -29.188  -0.147  29.092  0.00  0.00    -0.244 N 
ATOM      2  C   UNL A   1     -29.601   0.163  30.327  0.00  0.00    +0.297 C 
ATOM      3  O   UNL A   1     -30.679   0.541  30.628  0.00  0.00    -0.260 OA
ENDROOT
BRANCH   1   4
ATOM      4  C   UNL A   1     -30.267  -0.619  28.188  0.00  0.00    +0.055 A 
ATOM      5  C   UNL A   1     -31.536  -0.760  28.845  0.00  0.00    +0.013 A 
ATOM      6  C   UNL A   1     -32.597  -0.885  28.102  0.00  0.00    +0.014 A 
ATOM      7  C   UNL A   1     -32.519  -0.451  26.797  0.00  0.00    +0.005 A 
ATOM      8  C   UNL A   1     -31.251  -0.294  26.129  0.00  0.00    +0.081 A 
ATOM      9  C   UNL A   1     -30.222  -0.118  26.886  0.00  0.00    +0.021 A 
BRANCH   8  10
ATOM     10  C   UNL A   1     -31.198  -0.019  24.682  0.00  0.00    +0.388 C 
ATOM     11  O   UNL A   1     -31.310  -0.978  23.947  0.00  0.00    -0.241 OA
ATOM     12  O   UNL A   1     -31.365   1.162  24.191  0.00  0.00    -0.241 OA
ENDBRANCH   8  10
BRANCH   6  13
ATOM     13  C   UNL A   1     -33.934  -1.123  28.651  0.00  0.00    +0.220 C 
ATOM     14  F   UNL A   1     -34.780  -1.170  27.949  0.00  0.00    -0.229 F 
ENDBRANCH   6  13
ENDBRANCH   1   4
BRANCH   2  15
ATOM     15  C   UNL A   1     -28.495   0.323  31.216  0.00  0.00    -0.002 C 
ATOM     16  C   UNL A   1     -28.079   0.888  32.008  0.00  0.00    -0.055 C 
BRANCH  16  17
ATOM     17  C   UNL A   1     -27.285   1.492  32.609  0.00  0.00    +0.049 C 
ATOM     18  C   UNL A   1     -26.321   2.364  32.913  0.00  0.00    +0.034 C 
BRANCH  18  19
ATOM     19  C   UNL A   1     -25.508   3.311  33.412  0.00  0.00    +0.262 C 
ATOM     20 CL   UNL A   1     -25.784   4.160  34.745  0.00  0.00    -0.072 Cl
ATOM     21  F   UNL A   1     -24.492   3.577  32.621  0.00  0.00    -0.214 F 
ENDBRANCH  18  19
ENDBRANCH  16  17
ENDBRANCH   2  15
BRANCH   1  22
ATOM     22  C   UNL A   1     -28.016  -0.814  28.878  0.00  0.00    +0.126 C 
BRANCH  22  23
ATOM     23  C   UNL A   1     -27.064  -0.119  28.608  0.00  0.00    +0.002 A 
ATOM     24  C   UNL A   1     -25.792  -0.430  29.076  0.00  0.00    +0.069 A 
ATOM     25  C   UNL A   1     -24.546   0.349  28.823  0.00  0.00    +0.010 A 
ATOM     26  C   UNL A   1     -24.659   1.420  27.888  0.00  0.00    +0.080 A 
ATOM     27  C   UNL A   1     -25.947   1.681  27.379  0.00  0.00    +0.006 A 
ATOM     28  C   UNL A   1     -27.044   0.974  27.687  0.00  0.00    -0.002 A 
BRANCH  24  29
ATOM     29  C   UNL A   1     -25.510  -1.576  30.022  0.00  0.00    +0.418 C 
ATOM     30  F   UNL A   1     -26.090  -1.717  30.952  0.00  0.00    -0.166 F 
ATOM     31  F   UNL A   1     -25.771  -2.710  29.115  0.00  0.00    -0.166 F 
ATOM     32  F   UNL A   1     -24.160  -1.849  30.242  0.00  0.00    -0.166 F 
ENDBRANCH  24  29
BRANCH  26  33
ATOM     33  C   UNL A   1     -23.459   2.163  27.605  0.00  0.00    +0.388 C 
ATOM     34  O   UNL A   1     -22.314   1.906  28.079  0.00  0.00    -0.241 OA
ATOM     35  O   UNL A   1     -23.591   3.220  26.834  0.00  0.00    -0.241 OA
ENDBRANCH  26  33
ENDBRANCH  22  23
ENDBRANCH   1  22
TORSDOF 10
