REMARK  Name = No_4710-gen_results/8p0m/2024-11-26-14-13-15/
REMARK  2 active torsions:
REMARK  status: ('A' for Active; 'I' for Inactive)
REMARK    1  A    between atoms: C_2  and  C_12
REMARK    2  A    between atoms: C_3  and  C_7
REMARK                            x       y       z     vdW  Elec       q    Type
REMARK                         _______ _______ _______ _____ _____    ______ ____
ROOT
ATOM      1  C   UNL A   1     -28.016  -0.814  28.878  0.00  0.00    +0.011 A 
ATOM      2  C   UNL A   1     -28.469  -0.785  29.829  0.00  0.00    +0.081 A 
ATOM      3  C   UNL A   1     -28.196   0.348  28.055  0.00  0.00    +0.072 A 
ATOM      4  C   UNL A   1     -29.019   1.350  28.378  0.00  0.00    +0.015 A 
ATOM      5  C   UNL A   1     -29.411   0.180  30.378  0.00  0.00    +0.018 A 
ATOM      6  C   UNL A   1     -29.606   1.250  29.619  0.00  0.00    +0.058 A 
ATOM      7 CL   UNL A   1     -30.680   2.491  30.095  0.00  0.00    -0.082 Cl
ENDROOT
BRANCH   3   8
ATOM      8  C   UNL A   1     -27.460   0.380  26.709  0.00  0.00    +0.419 C 
ATOM      9  F   UNL A   1     -28.160   0.047  25.805  0.00  0.00    -0.166 F 
ATOM     10  F   UNL A   1     -26.924   1.664  26.465  0.00  0.00    -0.166 F 
ATOM     11  F   UNL A   1     -26.246  -0.336  26.769  0.00  0.00    -0.166 F 
ENDBRANCH   3   8
BRANCH   2  12
ATOM     12  C   UNL A   1     -28.279  -2.066  30.863  0.00  0.00    +0.388 C 
ATOM     13  O   UNL A   1     -28.021  -1.980  31.907  0.00  0.00    -0.241 OA
ATOM     14  O   UNL A   1     -28.107  -3.260  30.203  0.00  0.00    -0.241 OA
ENDBRANCH   2  12
TORSDOF 2
