MODEL 4710
MODEL 1
REMARK VINA RESULT:    -5.892      0.000      0.000
REMARK INTER + INTRA:          -6.816
REMARK INTER:                  -6.580
REMARK INTRA:                  -0.235
REMARK UNBOUND:                -0.235
REMARK  Name = No_4710-gen_results/8p0m/2024-11-26-14-13-15/
REMARK  2 active torsions:
REMARK  status: ('A' for Active; 'I' for Inactive)
REMARK    1  A    between atoms: C_2  and  C_12
REMARK    2  A    between atoms: C_3  and  C_7
REMARK                            x       y       z     vdW  Elec       q    Type
REMARK                         _______ _______ _______ _____ _____    ______ ____
ROOT
ATOM      1  C   UNL A   1     -28.420 -11.748  31.179  0.00  0.00    +0.011 A 
ATOM      2  C   UNL A   1     -28.213 -11.444  32.166  0.00  0.00    +0.081 A 
ATOM      3  C   UNL A   1     -29.350 -10.934  30.448  0.00  0.00    +0.072 A 
ATOM      4  C   UNL A   1     -30.052  -9.946  31.009  0.00  0.00    +0.015 A 
ATOM      5  C   UNL A   1     -28.863 -10.425  32.978  0.00  0.00    +0.018 A 
ATOM      6  C   UNL A   1     -29.742  -9.679  32.323  0.00  0.00    +0.058 A 
ATOM      7 CL   UNL A   1     -30.608  -8.433  33.110  0.00  0.00    -0.082 Cl
ENDROOT
BRANCH   3   8
ATOM      8  C   UNL A   1     -29.590 -11.288  28.974  0.00  0.00    +0.419 C 
ATOM      9  F   UNL A   1     -28.608 -11.706  28.446  0.00  0.00    -0.166 F 
ATOM     10  F   UNL A   1     -30.645 -12.219  28.851  0.00  0.00    -0.166 F 
ATOM     11  F   UNL A   1     -30.186 -10.216  28.278  0.00  0.00    -0.166 F 
ENDBRANCH   3   8
BRANCH   2  12
ATOM     12  C   UNL A   1     -27.120 -12.300  33.071  0.00  0.00    +0.388 C 
ATOM     13  O   UNL A   1     -26.443 -13.042  32.677  0.00  0.00    -0.241 OA
ATOM     14  O   UNL A   1     -27.401 -12.264  34.417  0.00  0.00    -0.241 OA
ENDBRANCH   2  12
TORSDOF 2
ENDMDL
ENDMDL
