REMARK  Name = No_4711-gen_results/8p0m/2024-11-26-14-13-15/
REMARK  5 active torsions:
REMARK  status: ('A' for Active; 'I' for Inactive)
REMARK    1  A    between atoms: C_1  and  C_2
REMARK    2  A    between atoms: C_1  and  N_8
REMARK    3  A    between atoms: C_5  and  C_13
REMARK    4  A    between atoms: N_8  and  C_9
REMARK    5  A    between atoms: C_9  and  C_10
REMARK                            x       y       z     vdW  Elec       q    Type
REMARK                         _______ _______ _______ _____ _____    ______ ____
ROOT
ATOM      1  C   UNL A   1     -27.064  -0.119  28.608  0.00  0.00    -0.005 A 
ATOM      2  C   UNL A   1     -25.792  -0.430  29.076  0.00  0.00    -0.003 A 
ATOM      3  C   UNL A   1     -24.546   0.349  28.823  0.00  0.00    +0.001 A 
ATOM      4  C   UNL A   1     -24.659   1.420  27.888  0.00  0.00    +0.021 A 
ATOM      5  C   UNL A   1     -25.947   1.681  27.379  0.00  0.00    +0.001 A 
ATOM      6  C   UNL A   1     -27.044   0.974  27.687  0.00  0.00    -0.003 A 
ENDROOT
BRANCH   4   7
ATOM      7  C   UNL A   1     -23.456   2.162  27.609  0.00  0.00    +0.122 C 
ATOM      8  N   UNL A   1     -22.240   1.752  28.093  0.00  0.00    -0.146 NA
ENDBRANCH   4   7
BRANCH   1   9
ATOM      9  C   UNL A   1     -28.016  -0.814  28.878  0.00  0.00    +0.115 C 
BRANCH   9  10
ATOM     10  N   UNL A   1     -29.180  -0.120  29.129  0.00  0.00    -0.209 NA
BRANCH  10  11
ATOM     11  C   UNL A   1     -29.764   0.535  28.527  0.00  0.00    +0.111 C 
BRANCH  11  12
ATOM     12  C   UNL A   1     -30.407   0.428  27.768  0.00  0.00    -0.027 C 
ATOM     13  C   UNL A   1     -31.231  -0.773  27.756  0.00  0.00    -0.008 C 
ATOM     14  C   UNL A   1     -30.643   1.156  26.449  0.00  0.00    +0.028 C 
ENDBRANCH  11  12
ENDBRANCH  10  11
ENDBRANCH   9  10
ENDBRANCH   1   9
TORSDOF 5
