MODEL 4711
MODEL 1
REMARK VINA RESULT:    -5.494      0.000      0.000
REMARK INTER + INTRA:          -7.108
REMARK INTER:                  -7.100
REMARK INTRA:                  -0.007
REMARK UNBOUND:                -0.007
REMARK  Name = No_4711-gen_results/8p0m/2024-11-26-14-13-15/
REMARK  5 active torsions:
REMARK  status: ('A' for Active; 'I' for Inactive)
REMARK    1  A    between atoms: C_1  and  C_2
REMARK    2  A    between atoms: C_1  and  N_8
REMARK    3  A    between atoms: C_5  and  C_13
REMARK    4  A    between atoms: N_8  and  C_9
REMARK    5  A    between atoms: C_9  and  C_10
REMARK                            x       y       z     vdW  Elec       q    Type
REMARK                         _______ _______ _______ _____ _____    ______ ____
ROOT
ATOM      1  C   UNL A   1     -23.249  -0.548  28.886  0.00  0.00    -0.005 A 
ATOM      2  C   UNL A   1     -22.181   0.289  28.586  0.00  0.00    -0.003 A 
ATOM      3  C   UNL A   1     -22.184   1.399  27.590  0.00  0.00    +0.001 A 
ATOM      4  C   UNL A   1     -23.346   1.496  26.768  0.00  0.00    +0.021 A 
ATOM      5  C   UNL A   1     -24.395   0.597  27.049  0.00  0.00    +0.001 A 
ATOM      6  C   UNL A   1     -24.352  -0.348  27.999  0.00  0.00    -0.003 A 
ENDROOT
BRANCH   4   7
ATOM      7  C   UNL A   1     -23.350   2.543  25.779  0.00  0.00    +0.122 C 
ATOM      8  N   UNL A   1     -22.406   2.585  24.785  0.00  0.00    -0.146 NA
ENDBRANCH   4   7
BRANCH   1   9
ATOM      9  C   UNL A   1     -23.147  -1.417  29.721  0.00  0.00    +0.115 C 
BRANCH   9  10
ATOM     10  N   UNL A   1     -24.144  -2.368  29.684  0.00  0.00    -0.209 NA
BRANCH  10  11
ATOM     11  C   UNL A   1     -24.295  -3.219  29.063  0.00  0.00    +0.111 C 
BRANCH  11  12
ATOM     12  C   UNL A   1     -24.883  -4.028  29.087  0.00  0.00    -0.027 C 
ATOM     13  C   UNL A   1     -26.216  -3.867  29.651  0.00  0.00    -0.008 C 
ATOM     14  C   UNL A   1     -24.674  -5.516  28.828  0.00  0.00    +0.028 C 
ENDBRANCH  11  12
ENDBRANCH  10  11
ENDBRANCH   9  10
ENDBRANCH   1   9
TORSDOF 5
ENDMDL
ENDMDL
