REMARK  Name = No_4712-gen_results/8p0m/2024-11-26-14-13-15/
REMARK  3 active torsions:
REMARK  status: ('A' for Active; 'I' for Inactive)
REMARK    1  A    between atoms: C_1  and  C_2
REMARK    2  A    between atoms: C_5  and  C_10
REMARK    3  A    between atoms: N_8  and  C_9
REMARK                            x       y       z     vdW  Elec       q    Type
REMARK                         _______ _______ _______ _____ _____    ______ ____
ROOT
ATOM      1  C   UNL A   1     -28.016  -0.814  28.878  0.00  0.00    +0.269 C 
ATOM      2  N   UNL A   1     -29.188  -0.147  29.092  0.00  0.00    -0.175 NA
ATOM      3  O   UNL A   1     -27.862  -1.826  29.628  0.00  0.00    -0.268 OA
ENDROOT
BRANCH   2   4
ATOM      4  C   UNL A   1     -30.202  -0.783  29.730  0.00  0.00    +0.074 A 
ATOM      5  C   UNL A   1     -30.321  -0.900  30.927  0.00  0.00    +0.019 A 
ATOM      6  C   UNL A   1     -31.246  -1.657  31.615  0.00  0.00    +0.031 A 
ATOM      7  C   UNL A   1     -31.308  -1.315  28.927  0.00  0.00    +0.019 A 
ATOM      8  C   UNL A   1     -32.306  -2.053  29.477  0.00  0.00    +0.031 A 
ATOM      9  C   UNL A   1     -32.297  -2.178  30.861  0.00  0.00    +0.140 A 
ATOM     10  F   UNL A   1     -33.322  -2.841  31.431  0.00  0.00    -0.204 F 
ENDBRANCH   2   4
BRANCH   1  11
ATOM     11  C   UNL A   1     -27.064  -0.119  28.608  0.00  0.00    +0.055 A 
ATOM     12  C   UNL A   1     -25.792  -0.430  29.076  0.00  0.00    +0.005 A 
ATOM     13  C   UNL A   1     -24.546   0.349  28.823  0.00  0.00    +0.007 A 
ATOM     14  C   UNL A   1     -24.659   1.420  27.888  0.00  0.00    +0.080 A 
ATOM     15  C   UNL A   1     -25.947   1.681  27.379  0.00  0.00    +0.007 A 
ATOM     16  C   UNL A   1     -27.044   0.974  27.687  0.00  0.00    +0.005 A 
BRANCH  14  17
ATOM     17  C   UNL A   1     -23.451   2.152  27.601  0.00  0.00    +0.388 C 
ATOM     18  O   UNL A   1     -23.484   3.143  26.905  0.00  0.00    -0.241 OA
ATOM     19  O   UNL A   1     -22.263   1.680  27.948  0.00  0.00    -0.241 OA
ENDBRANCH  14  17
ENDBRANCH   1  11
TORSDOF 3
