MODEL 4712
MODEL 1
REMARK VINA RESULT:    -6.347      0.000      0.000
REMARK INTER + INTRA:          -7.649
REMARK INTER:                  -7.460
REMARK INTRA:                  -0.189
REMARK UNBOUND:                -0.189
REMARK  Name = No_4712-gen_results/8p0m/2024-11-26-14-13-15/
REMARK  3 active torsions:
REMARK  status: ('A' for Active; 'I' for Inactive)
REMARK    1  A    between atoms: C_1  and  C_2
REMARK    2  A    between atoms: C_5  and  C_10
REMARK    3  A    between atoms: N_8  and  C_9
REMARK                            x       y       z     vdW  Elec       q    Type
REMARK                         _______ _______ _______ _____ _____    ______ ____
ROOT
ATOM      1  C   UNL A   1      -6.462  -0.189   9.763  0.00  0.00    +0.269 C 
ATOM      2  N   UNL A   1      -5.275   0.175   9.194  0.00  0.00    -0.175 NA
ATOM      3  O   UNL A   1      -6.666  -1.442   9.759  0.00  0.00    -0.268 OA
ENDROOT
BRANCH   2   4
ATOM      4  C   UNL A   1      -4.297  -0.755   9.057  0.00  0.00    +0.074 A 
ATOM      5  C   UNL A   1      -3.543  -1.121   9.927  0.00  0.00    +0.019 A 
ATOM      6  C   UNL A   1      -2.445  -1.948   9.802  0.00  0.00    +0.031 A 
ATOM      7  C   UNL A   1      -4.173  -1.453   7.773  0.00  0.00    +0.019 A 
ATOM      8  C   UNL A   1      -3.159  -2.320   7.521  0.00  0.00    +0.031 A 
ATOM      9  C   UNL A   1      -2.310  -2.609   8.582  0.00  0.00    +0.140 A 
ATOM     10  F   UNL A   1      -1.345  -3.526   8.373  0.00  0.00    -0.204 F 
ENDBRANCH   2   4
BRANCH   1  11
ATOM     11  C   UNL A   1      -7.385   0.568   9.569  0.00  0.00    +0.055 A 
ATOM     12  C   UNL A   1      -7.686   1.021   8.289  0.00  0.00    +0.005 A 
ATOM     13  C   UNL A   1      -8.786   1.959   7.924  0.00  0.00    +0.007 A 
ATOM     14  C   UNL A   1      -9.697   2.290   8.970  0.00  0.00    +0.080 A 
ATOM     15  C   UNL A   1      -9.407   1.772  10.248  0.00  0.00    +0.007 A 
ATOM     16  C   UNL A   1      -8.367   0.972  10.526  0.00  0.00    +0.005 A 
BRANCH  14  17
ATOM     17  C   UNL A   1     -10.790   3.161   8.617  0.00  0.00    +0.388 C 
ATOM     18  O   UNL A   1     -11.849   2.700   8.252  0.00  0.00    -0.241 OA
ATOM     19  O   UNL A   1     -10.622   4.472   8.525  0.00  0.00    -0.241 OA
ENDBRANCH  14  17
ENDBRANCH   1  11
TORSDOF 3
ENDMDL
ENDMDL
