REMARK  Name = No_4713-gen_results/8p0m/2024-11-26-14-13-15/
REMARK  9 active torsions:
REMARK  status: ('A' for Active; 'I' for Inactive)
REMARK    1  A    between atoms: C_2  and  C_14
REMARK    2  A    between atoms: C_3  and  C_4
REMARK    3  A    between atoms: C_4  and  C_8
REMARK    4  A    between atoms: C_14  and  O_16
REMARK    5  A    between atoms: O_16  and  C_19
REMARK    6  A    between atoms: C_19  and  C_20
REMARK    7  A    between atoms: C_19  and  C_27
REMARK    8  A    between atoms: C_20  and  C_21
REMARK    9  A    between atoms: C_27  and  C_28
REMARK                            x       y       z     vdW  Elec       q    Type
REMARK                         _______ _______ _______ _____ _____    ______ ____
ROOT
ATOM      1  C   UNL A   1     -28.016  -0.814  28.878  0.00  0.00    +0.003 A 
ATOM      2  C   UNL A   1     -28.469  -0.785  29.829  0.00  0.00    +0.075 A 
ATOM      3  C   UNL A   1     -26.504  -0.778  28.877  0.00  0.00    -0.018 A 
ATOM      4  C   UNL A   1     -27.918  -0.937  31.182  0.00  0.00    +0.006 A 
ATOM      5  C   UNL A   1     -26.542  -0.940  31.261  0.00  0.00    -0.000 A 
ATOM      6  C   UNL A   1     -25.783  -0.893  30.120  0.00  0.00    -0.004 A 
ENDROOT
BRANCH   2   7
ATOM      7  C   UNL A   1     -30.057  -0.793  29.859  0.00  0.00    +0.341 C 
ATOM      8  O   UNL A   1     -30.509  -0.216  29.022  0.00  0.00    -0.245 OA
BRANCH   7   9
ATOM      9  O   UNL A   1     -30.700  -1.062  30.955  0.00  0.00    -0.449 OA
BRANCH   9  10
ATOM     10  C   UNL A   1     -31.974  -1.571  30.875  0.00  0.00    +0.178 C 
BRANCH  10  11
ATOM     11  C   UNL A   1     -32.959  -0.952  30.422  0.00  0.00    +0.070 C 
BRANCH  11  12
ATOM     12  C   UNL A   1     -33.075   0.309  30.720  0.00  0.00    -0.019 A 
ATOM     13  C   UNL A   1     -34.211   1.159  30.170  0.00  0.00    -0.004 A 
ATOM     14  C   UNL A   1     -34.380   2.487  30.625  0.00  0.00    -0.000 A 
ATOM     15  C   UNL A   1     -33.422   3.047  31.499  0.00  0.00    -0.000 A 
ATOM     16  C   UNL A   1     -32.345   2.294  31.959  0.00  0.00    -0.000 A 
ATOM     17  C   UNL A   1     -32.197   0.975  31.575  0.00  0.00    -0.004 A 
ENDBRANCH  11  12
ENDBRANCH  10  11
BRANCH  10  18
ATOM     18  C   UNL A   1     -31.997  -2.933  31.502  0.00  0.00    +0.070 C 
BRANCH  18  19
ATOM     19  C   UNL A   1     -31.594  -3.075  32.812  0.00  0.00    -0.022 C 
ATOM     20  C   UNL A   1     -31.429  -4.369  33.289  0.00  0.00    -0.005 C 
ENDBRANCH  18  19
ENDBRANCH  10  18
ENDBRANCH   9  10
ENDBRANCH   7   9
ENDBRANCH   2   7
BRANCH   3  21
ATOM     21  C   UNL A   1     -25.654  -0.660  27.719  0.00  0.00    +0.056 C 
BRANCH  21  22
ATOM     22  C   UNL A   1     -25.220   0.687  27.394  0.00  0.00    +0.020 A 
ATOM     23  C   UNL A   1     -23.901   0.898  27.760  0.00  0.00    +0.137 A 
ATOM     24  C   UNL A   1     -23.304   2.184  27.324  0.00  0.00    +0.029 A 
ATOM     25  C   UNL A   1     -23.996   3.046  26.544  0.00  0.00    +0.003 A 
ATOM     26  C   UNL A   1     -25.865   1.529  26.521  0.00  0.00    +0.056 A 
ATOM     27  C   UNL A   1     -25.272   2.676  26.097  0.00  0.00    +0.011 A 
ATOM     28  F   UNL A   1     -23.137   0.203  28.551  0.00  0.00    -0.204 F 
ATOM     29 CL   UNL A   1     -27.351   1.126  25.850  0.00  0.00    -0.083 Cl
ENDBRANCH  21  22
ENDBRANCH   3  21
TORSDOF 9
