MODEL 4713
MODEL 1
REMARK VINA RESULT:    -6.199      0.000      0.000
REMARK INTER + INTRA:         -13.434
REMARK INTER:                  -9.461
REMARK INTRA:                  -3.973
REMARK UNBOUND:                -3.973
REMARK  Name = No_4713-gen_results/8p0m/2024-11-26-14-13-15/
REMARK  9 active torsions:
REMARK  status: ('A' for Active; 'I' for Inactive)
REMARK    1  A    between atoms: C_2  and  C_14
REMARK    2  A    between atoms: C_3  and  C_4
REMARK    3  A    between atoms: C_4  and  C_8
REMARK    4  A    between atoms: C_14  and  O_16
REMARK    5  A    between atoms: O_16  and  C_19
REMARK    6  A    between atoms: C_19  and  C_20
REMARK    7  A    between atoms: C_19  and  C_27
REMARK    8  A    between atoms: C_20  and  C_21
REMARK    9  A    between atoms: C_27  and  C_28
REMARK                            x       y       z     vdW  Elec       q    Type
REMARK                         _______ _______ _______ _____ _____    ______ ____
ROOT
ATOM      1  C   UNL A   1     -11.197   0.716  35.948  0.00  0.00    +0.003 A 
ATOM      2  C   UNL A   1     -11.215   1.335  35.095  0.00  0.00    +0.075 A 
ATOM      3  C   UNL A   1      -9.868   0.057  36.244  0.00  0.00    -0.018 A 
ATOM      4  C   UNL A   1     -10.140   1.867  34.247  0.00  0.00    +0.006 A 
ATOM      5  C   UNL A   1      -8.890   1.332  34.476  0.00  0.00    -0.000 A 
ATOM      6  C   UNL A   1      -8.696   0.437  35.495  0.00  0.00    -0.004 A 
ENDROOT
BRANCH   2   7
ATOM      7  C   UNL A   1     -12.605   2.018  34.743  0.00  0.00    +0.341 C 
ATOM      8  O   UNL A   1     -13.195   1.441  33.997  0.00  0.00    -0.245 OA
BRANCH   7   9
ATOM      9  O   UNL A   1     -12.801   3.282  34.969  0.00  0.00    -0.449 OA
BRANCH   9  10
ATOM     10  C   UNL A   1     -13.006   3.708  36.259  0.00  0.00    +0.178 C 
BRANCH  10  11
ATOM     11  C   UNL A   1     -12.354   4.612  36.821  0.00  0.00    +0.070 C 
BRANCH  11  12
ATOM     12  C   UNL A   1     -11.056   4.530  36.799  0.00  0.00    -0.019 A 
ATOM     13  C   UNL A   1     -10.292   3.672  37.798  0.00  0.00    -0.004 A 
ATOM     14  C   UNL A   1      -8.896   3.502  37.655  0.00  0.00    -0.000 A 
ATOM     15  C   UNL A   1      -8.208   4.223  36.655  0.00  0.00    -0.000 A 
ATOM     16  C   UNL A   1      -8.892   5.058  35.775  0.00  0.00    -0.000 A 
ATOM     17  C   UNL A   1     -10.265   5.190  35.858  0.00  0.00    -0.004 A 
ENDBRANCH  11  12
ENDBRANCH  10  11
BRANCH  10  18
ATOM     18  C   UNL A   1     -14.059   2.851  36.895  0.00  0.00    +0.070 C 
BRANCH  18  19
ATOM     19  C   UNL A   1     -15.275   3.412  37.219  0.00  0.00    -0.022 C 
ATOM     20  C   UNL A   1     -16.140   3.700  36.172  0.00  0.00    -0.005 C 
ENDBRANCH  18  19
ENDBRANCH  10  18
ENDBRANCH   9  10
ENDBRANCH   7   9
ENDBRANCH   2   7
BRANCH   3  21
ATOM     21  C   UNL A   1      -9.617  -0.940  37.254  0.00  0.00    +0.056 C 
BRANCH  21  22
ATOM     22  C   UNL A   1     -10.670  -1.116  38.238  0.00  0.00    +0.020 A 
ATOM     23  C   UNL A   1     -11.404  -2.266  37.998  0.00  0.00    +0.137 A 
ATOM     24  C   UNL A   1     -12.397  -2.631  39.037  0.00  0.00    +0.029 A 
ATOM     25  C   UNL A   1     -12.504  -1.918  40.182  0.00  0.00    +0.003 A 
ATOM     26  C   UNL A   1     -10.727  -0.469  39.449  0.00  0.00    +0.056 A 
ATOM     27  C   UNL A   1     -11.612  -0.859  40.403  0.00  0.00    +0.011 A 
ATOM     28  F   UNL A   1     -11.459  -3.008  36.931  0.00  0.00    -0.204 F 
ATOM     29 CL   UNL A   1      -9.635   0.743  39.849  0.00  0.00    -0.083 Cl
ENDBRANCH  21  22
ENDBRANCH   3  21
TORSDOF 9
ENDMDL
ENDMDL
