MODEL 4714
MODEL 1
REMARK VINA RESULT:    -3.877      0.000      0.000
REMARK INTER + INTRA:          -4.656
REMARK INTER:                  -4.557
REMARK INTRA:                  -0.099
REMARK UNBOUND:                -0.099
REMARK  Name = No_4714-gen_results/8p0m/2024-11-26-14-13-15/
REMARK  3 active torsions:
REMARK  status: ('A' for Active; 'I' for Inactive)
REMARK    1  A    between atoms: C_2  and  C_3
REMARK    2  A    between atoms: C_3  and  C_4
REMARK    3  A    between atoms: C_5  and  C_6
REMARK                            x       y       z     vdW  Elec       q    Type
REMARK                         _______ _______ _______ _____ _____    ______ ____
ROOT
ATOM      1  C   UNL A   1     -24.194  -1.704  28.722  0.00  0.00    -0.082 C 
ATOM      2  C   UNL A   1     -22.834  -1.395  29.078  0.00  0.00    -0.063 C 
ENDROOT
BRANCH   2   3
ATOM      3  C   UNL A   1     -22.263  -0.140  28.906  0.00  0.00    +0.049 C 
ATOM      4  C   UNL A   1     -20.892  -0.057  28.487  0.00  0.00    +0.009 C 
ENDBRANCH   2   3
BRANCH   1   5
ATOM      5  C   UNL A   1     -24.842  -3.023  28.855  0.00  0.00    +0.102 C 
BRANCH   5   7
ATOM      6  C   UNL A   1     -24.799  -5.314  28.998  0.00  0.00    -0.004 C 
ATOM      7  C   UNL A   1     -24.237  -4.274  28.743  0.00  0.00    -0.012 C 
ENDBRANCH   5   7
ENDBRANCH   1   5
TORSDOF 3
ENDMDL
ENDMDL
