MODEL 4715
MODEL 1
REMARK VINA RESULT:    -4.308      0.000      0.000
REMARK INTER + INTRA:          -4.308
REMARK INTER:                  -4.308
REMARK INTRA:                   0.000
REMARK UNBOUND:                 0.000
REMARK  Name = No_4715-gen_results/8p0m/2024-11-26-14-13-15/
REMARK  0 active torsions:
REMARK  status: ('A' for Active; 'I' for Inactive)
REMARK                            x       y       z     vdW  Elec       q    Type
REMARK                         _______ _______ _______ _____ _____    ______ ____
ROOT
ATOM      1  C   UNL A   1     -24.928  -5.427  28.983  0.00  0.00    +0.000 A 
ATOM      2  C   UNL A   1     -24.177  -4.744  28.701  0.00  0.00    +0.000 A 
ATOM      3  C   UNL A   1     -26.085  -4.796  29.618  0.00  0.00    +0.000 A 
ATOM      4  C   UNL A   1     -26.168  -3.438  29.798  0.00  0.00    +0.000 A 
ATOM      5  C   UNL A   1     -23.997  -3.294  28.760  0.00  0.00    +0.000 A 
ATOM      6  C   UNL A   1     -25.112  -2.673  29.373  0.00  0.00    +0.000 A 
ENDROOT
TORSDOF 0
ENDMDL
ENDMDL
