REMARK  Name = No_4716-gen_results/8p0m/2024-11-26-14-13-15/
REMARK  2 active torsions:
REMARK  status: ('A' for Active; 'I' for Inactive)
REMARK    1  A    between atoms: C_6  and  C_21
REMARK    2  A    between atoms: C_11  and  C_18
REMARK                            x       y       z     vdW  Elec       q    Type
REMARK                         _______ _______ _______ _____ _____    ______ ____
ROOT
ATOM      1  C   UNL A   1     -28.016  -0.814  28.878  0.00  0.00    +0.024 C 
ATOM      2  C   UNL A   1     -27.064  -0.119  28.608  0.00  0.00    +0.028 C 
ATOM      3  C   UNL A   1     -26.929   1.171  29.008  0.00  0.00    -0.019 A 
ATOM      4  C   UNL A   1     -25.770   2.034  28.688  0.00  0.00    -0.004 A 
ATOM      5  C   UNL A   1     -25.619   3.348  29.092  0.00  0.00    +0.006 A 
ATOM      6  C   UNL A   1     -29.071  -0.334  29.769  0.00  0.00    +0.165 C 
ATOM      7  C   UNL A   1     -29.013   0.933  30.172  0.00  0.00    +0.183 C 
ATOM      8  C   UNL A   1     -27.899   1.776  29.859  0.00  0.00    +0.032 A 
ATOM      9  C   UNL A   1     -24.764   1.528  27.780  0.00  0.00    -0.004 A 
ATOM     10  C   UNL A   1     -23.833   2.039  27.624  0.00  0.00    +0.001 A 
ATOM     11  C   UNL A   1     -26.591   3.974  29.970  0.00  0.00    +0.080 A 
ATOM     12  C   UNL A   1     -27.779   3.105  30.355  0.00  0.00    +0.009 A 
ATOM     13  C   UNL A   1     -22.671   1.836  27.712  0.00  0.00    +0.011 A 
ATOM     14  C   UNL A   1     -22.217   0.639  28.405  0.00  0.00    +0.057 A 
ATOM     15  C   UNL A   1     -23.336  -0.317  28.488  0.00  0.00    +0.007 A 
ATOM     16  C   UNL A   1     -24.672   0.099  27.985  0.00  0.00    -0.021 A 
ATOM     17  C   UNL A   1     -25.777  -0.685  28.059  0.00  0.00    +0.031 C 
ATOM     18 CL   UNL A   1     -20.661   0.018  28.450  0.00  0.00    -0.082 Cl
ATOM     19  O   UNL A   1     -30.000   1.471  30.905  0.00  0.00    -0.291 OA
ENDROOT
BRANCH  11  20
ATOM     20  C   UNL A   1     -26.492   5.342  30.439  0.00  0.00    +0.388 C 
ATOM     21  O   UNL A   1     -27.391   6.004  30.443  0.00  0.00    -0.241 OA
ATOM     22  O   UNL A   1     -25.247   5.674  30.723  0.00  0.00    -0.241 OA
ENDBRANCH  11  20
BRANCH   6  23
ATOM     23  C   UNL A   1     -30.216  -1.192  30.040  0.00  0.00    +0.372 C 
ATOM     24  O   UNL A   1     -31.089  -1.249  29.266  0.00  0.00    -0.245 OA
ATOM     25  O   UNL A   1     -30.196  -1.892  31.145  0.00  0.00    -0.245 OA
ENDBRANCH   6  23
TORSDOF 2
