MODEL 4716
MODEL 1
REMARK VINA RESULT:    -7.483      0.000      0.000
REMARK INTER + INTRA:          -8.668
REMARK INTER:                  -8.358
REMARK INTRA:                  -0.310
REMARK UNBOUND:                -0.310
REMARK  Name = No_4716-gen_results/8p0m/2024-11-26-14-13-15/
REMARK  2 active torsions:
REMARK  status: ('A' for Active; 'I' for Inactive)
REMARK    1  A    between atoms: C_6  and  C_21
REMARK    2  A    between atoms: C_11  and  C_18
REMARK                            x       y       z     vdW  Elec       q    Type
REMARK                         _______ _______ _______ _____ _____    ______ ____
ROOT
ATOM      1  C   UNL A   1     -31.527  -8.128  30.766  0.00  0.00    +0.024 C 
ATOM      2  C   UNL A   1     -30.941  -9.052  30.252  0.00  0.00    +0.028 C 
ATOM      3  C   UNL A   1     -30.032  -9.826  30.898  0.00  0.00    -0.019 A 
ATOM      4  C   UNL A   1     -29.307 -10.962  30.284  0.00  0.00    -0.004 A 
ATOM      5  C   UNL A   1     -28.382 -11.760  30.932  0.00  0.00    +0.006 A 
ATOM      6  C   UNL A   1     -31.373  -7.835  32.190  0.00  0.00    +0.165 C 
ATOM      7  C   UNL A   1     -30.474  -8.539  32.873  0.00  0.00    +0.183 C 
ATOM      8  C   UNL A   1     -29.763  -9.633  32.284  0.00  0.00    +0.032 A 
ATOM      9  C   UNL A   1     -29.469 -11.197  28.866  0.00  0.00    -0.004 A 
ATOM     10  C   UNL A   1     -29.093 -12.084  28.392  0.00  0.00    +0.001 A 
ATOM     11  C   UNL A   1     -28.107 -11.585  32.347  0.00  0.00    +0.080 A 
ATOM     12  C   UNL A   1     -28.863 -10.452  33.024  0.00  0.00    +0.009 A 
ATOM     13  C   UNL A   1     -29.487 -12.994  27.748  0.00  0.00    +0.011 A 
ATOM     14  C   UNL A   1     -30.922 -13.211  27.642  0.00  0.00    +0.057 A 
ATOM     15  C   UNL A   1     -31.621 -11.970  28.021  0.00  0.00    +0.007 A 
ATOM     16  C   UNL A   1     -30.819 -10.818  28.513  0.00  0.00    -0.021 A 
ATOM     17  C   UNL A   1     -31.367  -9.650  28.933  0.00  0.00    +0.031 C 
ATOM     18 CL   UNL A   1     -31.718 -14.265  26.611  0.00  0.00    -0.082 Cl
ATOM     19  O   UNL A   1     -30.205  -8.256  34.157  0.00  0.00    -0.291 OA
ENDROOT
BRANCH  11  20
ATOM     20  C   UNL A   1     -27.158 -12.389  33.090  0.00  0.00    +0.388 C 
ATOM     21  O   UNL A   1     -26.405 -13.014  32.553  0.00  0.00    -0.241 OA
ATOM     22  O   UNL A   1     -27.392 -12.349  34.388  0.00  0.00    -0.241 OA
ENDBRANCH  11  20
BRANCH   6  23
ATOM     23  C   UNL A   1     -32.072  -6.692  32.759  0.00  0.00    +0.372 C 
ATOM     24  O   UNL A   1     -31.631  -5.619  32.620  0.00  0.00    -0.245 OA
ATOM     25  O   UNL A   1     -33.197  -6.924  33.386  0.00  0.00    -0.245 OA
ENDBRANCH   6  23
TORSDOF 2
ENDMDL
ENDMDL
