REMARK  Name = No_4717-gen_results/8p0m/2024-11-26-14-13-15/
REMARK  2 active torsions:
REMARK  status: ('A' for Active; 'I' for Inactive)
REMARK    1  A    between atoms: C_4  and  O_7
REMARK    2  A    between atoms: O_7  and  C_8
REMARK                            x       y       z     vdW  Elec       q    Type
REMARK                         _______ _______ _______ _____ _____    ______ ____
ROOT
ATOM      1  O   UNL A   1     -25.831   2.066  29.253  0.00  0.00    -0.454 OA
ENDROOT
BRANCH   1   5
ATOM      2  C   UNL A   1     -28.016  -0.814  28.878  0.00  0.00    +0.003 A 
ATOM      3  C   UNL A   1     -28.469  -0.785  29.829  0.00  0.00    +0.000 A 
ATOM      4  C   UNL A   1     -27.087   0.290  28.638  0.00  0.00    +0.037 A 
ATOM      5  C   UNL A   1     -26.768   1.027  29.472  0.00  0.00    +0.145 A 
ATOM      6  C   UNL A   1     -28.230  -0.055  30.851  0.00  0.00    +0.003 A 
ATOM      7  C   UNL A   1     -27.328   0.983  30.750  0.00  0.00    +0.037 A 
ENDBRANCH   1   5
BRANCH   1   8
ATOM      8  C   UNL A   1     -25.032   2.123  28.233  0.00  0.00    +0.145 A 
ATOM      9  C   UNL A   1     -25.368   2.410  27.050  0.00  0.00    +0.037 A 
ATOM     10  C   UNL A   1     -23.633   1.654  28.451  0.00  0.00    +0.037 A 
ATOM     11  C   UNL A   1     -22.664   1.663  27.424  0.00  0.00    +0.003 A 
ATOM     12  C   UNL A   1     -24.439   2.416  25.935  0.00  0.00    +0.003 A 
ATOM     13  C   UNL A   1     -23.104   2.066  26.149  0.00  0.00    +0.000 A 
ENDBRANCH   1   8
TORSDOF 2
