MODEL 4717
MODEL 1
REMARK VINA RESULT:    -6.104      0.000      0.000
REMARK INTER + INTRA:          -7.207
REMARK INTER:                  -6.818
REMARK INTRA:                  -0.389
REMARK UNBOUND:                -0.389
REMARK  Name = No_4717-gen_results/8p0m/2024-11-26-14-13-15/
REMARK  2 active torsions:
REMARK  status: ('A' for Active; 'I' for Inactive)
REMARK    1  A    between atoms: C_4  and  O_7
REMARK    2  A    between atoms: O_7  and  C_8
REMARK                            x       y       z     vdW  Elec       q    Type
REMARK                         _______ _______ _______ _____ _____    ______ ____
ROOT
ATOM      1  O   UNL A   1     -24.125  -1.298  29.745  0.00  0.00    -0.454 OA
ENDROOT
BRANCH   1   5
ATOM      2  C   UNL A   1     -24.208  -4.773  28.685  0.00  0.00    +0.003 A 
ATOM      3  C   UNL A   1     -25.193  -4.999  28.985  0.00  0.00    +0.000 A 
ATOM      4  C   UNL A   1     -23.836  -3.376  28.903  0.00  0.00    +0.037 A 
ATOM      5  C   UNL A   1     -24.507  -2.638  29.491  0.00  0.00    +0.145 A 
ATOM      6  C   UNL A   1     -26.049  -4.314  29.642  0.00  0.00    +0.003 A 
ATOM      7  C   UNL A   1     -25.776  -2.998  29.949  0.00  0.00    +0.037 A 
ENDBRANCH   1   5
BRANCH   1   8
ATOM      8  C   UNL A   1     -23.734  -0.466  28.829  0.00  0.00    +0.145 A 
ATOM      9  C   UNL A   1     -22.645   0.174  28.834  0.00  0.00    +0.037 A 
ATOM     10  C   UNL A   1     -24.724  -0.122  27.769  0.00  0.00    +0.037 A 
ATOM     11  C   UNL A   1     -24.425   0.770  26.716  0.00  0.00    +0.003 A 
ATOM     12  C   UNL A   1     -22.275   1.127  27.804  0.00  0.00    +0.003 A 
ATOM     13  C   UNL A   1     -23.161   1.388  26.756  0.00  0.00    +0.000 A 
ENDBRANCH   1   8
TORSDOF 2
ENDMDL
ENDMDL
