MODEL 4718
MODEL 1
REMARK VINA RESULT:    -5.726      0.000      0.000
REMARK INTER + INTRA:          -6.671
REMARK INTER:                  -6.396
REMARK INTRA:                  -0.275
REMARK UNBOUND:                -0.275
REMARK  Name = No_4718-gen_results/8p0m/2024-11-26-14-13-15/
REMARK  2 active torsions:
REMARK  status: ('A' for Active; 'I' for Inactive)
REMARK    1  A    between atoms: C_2  and  C_11
REMARK    2  A    between atoms: C_3  and  C_7
REMARK                            x       y       z     vdW  Elec       q    Type
REMARK                         _______ _______ _______ _____ _____    ______ ____
ROOT
ATOM      1  C   UNL A   1     -28.288 -11.780  31.718  0.00  0.00    +0.010 A 
ATOM      2  C   UNL A   1     -28.260 -11.259  32.633  0.00  0.00    +0.080 A 
ATOM      3  C   UNL A   1     -29.142 -11.290  30.706  0.00  0.00    +0.072 A 
ATOM      4  C   UNL A   1     -29.932 -10.172  30.894  0.00  0.00    +0.004 A 
ATOM      5  C   UNL A   1     -28.987 -10.056  33.086  0.00  0.00    +0.007 A 
ATOM      6  C   UNL A   1     -29.818  -9.554  32.146  0.00  0.00    +0.000 A 
ENDROOT
BRANCH   3   7
ATOM      7  C   UNL A   1     -29.248 -11.917  29.346  0.00  0.00    +0.419 C 
ATOM      8  F   UNL A   1     -28.352 -11.656  28.699  0.00  0.00    -0.166 F 
ATOM      9  F   UNL A   1     -30.402 -11.545  28.667  0.00  0.00    -0.166 F 
ATOM     10  F   UNL A   1     -29.500 -13.272  29.369  0.00  0.00    -0.166 F 
ENDBRANCH   3   7
BRANCH   2  11
ATOM     11  C   UNL A   1     -27.229 -11.692  33.794  0.00  0.00    +0.388 C 
ATOM     12  O   UNL A   1     -26.851 -10.800  34.598  0.00  0.00    -0.241 OA
ATOM     13  O   UNL A   1     -26.713 -12.791  33.753  0.00  0.00    -0.241 OA
ENDBRANCH   2  11
TORSDOF 2
ENDMDL
ENDMDL
