MODEL 4719
MODEL 1
REMARK VINA RESULT:    -6.892      0.000      0.000
REMARK INTER + INTRA:          -7.317
REMARK INTER:                  -8.504
REMARK INTRA:                   1.186
REMARK UNBOUND:                 1.186
REMARK  Name = No_4719-gen_results/8p0m/2024-11-26-14-13-15/
REMARK  4 active torsions:
REMARK  status: ('A' for Active; 'I' for Inactive)
REMARK    1  A    between atoms: C_2  and  C_7
REMARK    2  A    between atoms: N_9  and  C_10
REMARK    3  A    between atoms: C_11  and  C_12
REMARK    4  A    between atoms: C_17  and  C_18
REMARK                            x       y       z     vdW  Elec       q    Type
REMARK                         _______ _______ _______ _____ _____    ______ ____
ROOT
ATOM      1  C   UNL A   1     -22.717   0.668  27.983  0.00  0.00    +0.089 C 
ATOM      2  C   UNL A   1     -22.815   1.666  27.557  0.00  0.00    +0.018 C 
ENDROOT
BRANCH   2   3
ATOM      3  C   UNL A   1     -24.093   2.044  26.931  0.00  0.00    +0.005 A 
ATOM      4  C   UNL A   1     -24.749   1.247  25.939  0.00  0.00    +0.000 A 
ATOM      5  C   UNL A   1     -25.957   1.705  25.352  0.00  0.00    +0.001 A 
ATOM      6  C   UNL A   1     -26.458   2.984  25.735  0.00  0.00    +0.007 A 
ATOM      7  C   UNL A   1     -25.798   3.723  26.676  0.00  0.00    +0.038 A 
ATOM      8  C   UNL A   1     -24.696   3.239  27.250  0.00  0.00    +0.049 A 
ATOM      9 BR   UNL A   1     -25.379   3.864  26.507  0.00  0.00    -0.049 Br
BRANCH   8  10
ATOM     10  C   UNL A   1     -25.554   2.785  28.583  0.00  0.00    +0.235 C 
ATOM     11  O   UNL A   1     -24.877   3.413  28.881  0.00  0.00    -0.283 OA
ENDBRANCH   8  10
ENDBRANCH   2   3
BRANCH   1  14
ATOM     12  C   UNL A   1     -23.226  -1.521  28.888  0.00  0.00    +0.269 C 
ATOM     13  O   UNL A   1     -22.177  -1.711  29.207  0.00  0.00    -0.268 OA
ATOM     14  N   UNL A   1     -23.671  -0.363  28.241  0.00  0.00    -0.174 NA
BRANCH  12  16
ATOM     15  C   UNL A   1     -23.953  -3.678  28.746  0.00  0.00    +0.005 A 
ATOM     16  C   UNL A   1     -24.228  -2.747  29.156  0.00  0.00    +0.055 A 
ATOM     17  C   UNL A   1     -24.919  -4.813  29.002  0.00  0.00    +0.000 A 
ATOM     18  C   UNL A   1     -26.156  -4.540  29.624  0.00  0.00    +0.000 A 
ATOM     19  C   UNL A   1     -25.443  -2.199  29.799  0.00  0.00    +0.005 A 
ATOM     20  C   UNL A   1     -26.358  -3.212  30.045  0.00  0.00    +0.000 A 
ENDBRANCH  12  16
ENDBRANCH   1  14
TORSDOF 4
ENDMDL
ENDMDL
