REMARK  Name = No_4719-gen_results/8p0m/2024-11-26-14-13-15/
REMARK  4 active torsions:
REMARK  status: ('A' for Active; 'I' for Inactive)
REMARK    1  A    between atoms: C_2  and  C_7
REMARK    2  A    between atoms: N_9  and  C_10
REMARK    3  A    between atoms: C_11  and  C_12
REMARK    4  A    between atoms: C_17  and  C_18
REMARK                            x       y       z     vdW  Elec       q    Type
REMARK                         _______ _______ _______ _____ _____    ______ ____
ROOT
ATOM      1  C   UNL A   1     -32.175  -1.468  30.889  0.00  0.00    +0.089 C 
ATOM      2  C   UNL A   1     -32.924  -0.782  30.495  0.00  0.00    +0.018 C 
ENDROOT
BRANCH   2   3
ATOM      3  C   UNL A   1     -32.501   0.571  30.095  0.00  0.00    +0.005 A 
ATOM      4  C   UNL A   1     -33.402   1.679  29.995  0.00  0.00    +0.000 A 
ATOM      5  C   UNL A   1     -32.922   2.941  29.559  0.00  0.00    +0.001 A 
ATOM      6  C   UNL A   1     -31.552   3.054  29.179  0.00  0.00    +0.007 A 
ATOM      7  C   UNL A   1     -30.724   1.971  29.275  0.00  0.00    +0.038 A 
ATOM      8  C   UNL A   1     -31.193   0.814  29.743  0.00  0.00    +0.049 A 
ATOM      9 BR   UNL A   1     -30.853   1.640  28.962  0.00  0.00    -0.049 Br
BRANCH   8  10
ATOM     10  C   UNL A   1     -30.544   1.117  31.228  0.00  0.00    +0.235 C 
ATOM     11  O   UNL A   1     -30.668   0.157  31.162  0.00  0.00    -0.283 OA
ENDBRANCH   8  10
ENDBRANCH   2   3
BRANCH   1  14
ATOM     12  C   UNL A   1     -30.074  -0.836  29.861  0.00  0.00    +0.269 C 
ATOM     13  O   UNL A   1     -30.561  -0.442  28.942  0.00  0.00    -0.268 OA
ATOM     14  N   UNL A   1     -30.749  -1.403  30.947  0.00  0.00    -0.174 NA
BRANCH  12  16
ATOM     15  C   UNL A   1     -28.016  -0.814  28.878  0.00  0.00    +0.005 A 
ATOM     16  C   UNL A   1     -28.469  -0.785  29.829  0.00  0.00    +0.055 A 
ATOM     17  C   UNL A   1     -26.504  -0.778  28.877  0.00  0.00    +0.000 A 
ATOM     18  C   UNL A   1     -25.810  -0.853  30.103  0.00  0.00    +0.000 A 
ATOM     19  C   UNL A   1     -27.991  -0.892  31.226  0.00  0.00    +0.005 A 
ATOM     20  C   UNL A   1     -26.604  -0.868  31.265  0.00  0.00    +0.000 A 
ENDBRANCH  12  16
ENDBRANCH   1  14
TORSDOF 4
