MODEL 471
MODEL 1
REMARK VINA RESULT:    -6.331      0.000      0.000
REMARK INTER + INTRA:         -12.622
REMARK INTER:                 -10.033
REMARK INTRA:                  -2.590
REMARK UNBOUND:                -2.590
REMARK  Name = No_471-gen_results/8p0m/2024-11-26-14-13-15/
REMARK  10 active torsions:
REMARK  status: ('A' for Active; 'I' for Inactive)
REMARK    1  A    between atoms: C_1  and  C_2
REMARK    2  A    between atoms: C_1  and  N_8
REMARK    3  A    between atoms: C_3  and  C_28
REMARK    4  A    between atoms: C_5  and  C_11
REMARK    5  A    between atoms: N_8  and  C_10
REMARK    6  A    between atoms: C_9  and  C_20
REMARK    7  A    between atoms: C_15  and  C_34
REMARK    8  A    between atoms: C_17  and  C_19
REMARK    9  A    between atoms: C_22  and  C_23
REMARK   10  A    between atoms: C_24  and  C_25
REMARK                            x       y       z     vdW  Elec       q    Type
REMARK                         _______ _______ _______ _____ _____    ______ ____
ROOT
ATOM      1  N   UNL A   1     -25.932   0.713  26.156  0.00  0.00    -0.244 N 
ATOM      2  C   UNL A   1     -26.390  -0.002  25.122  0.00  0.00    +0.297 C 
ATOM      3  O   UNL A   1     -25.749  -0.702  24.418  0.00  0.00    -0.260 OA
ENDROOT
BRANCH   1   4
ATOM      4  C   UNL A   1     -24.730   0.138  26.811  0.00  0.00    +0.055 A 
ATOM      5  C   UNL A   1     -23.642   1.069  26.916  0.00  0.00    +0.013 A 
ATOM      6  C   UNL A   1     -22.660   0.772  27.717  0.00  0.00    +0.014 A 
ATOM      7  C   UNL A   1     -22.902  -0.151  28.710  0.00  0.00    +0.005 A 
ATOM      8  C   UNL A   1     -23.997  -1.084  28.623  0.00  0.00    +0.081 A 
ATOM      9  C   UNL A   1     -24.983  -0.742  27.865  0.00  0.00    +0.021 A 
BRANCH   8  10
ATOM     10  C   UNL A   1     -24.121  -2.185  29.595  0.00  0.00    +0.388 C 
ATOM     11  O   UNL A   1     -23.894  -3.301  29.176  0.00  0.00    -0.241 OA
ATOM     12  O   UNL A   1     -24.130  -1.990  30.870  0.00  0.00    -0.241 OA
ENDBRANCH   8  10
BRANCH   6  13
ATOM     13  C   UNL A   1     -21.455   1.595  27.845  0.00  0.00    +0.220 C 
ATOM     14  F   UNL A   1     -20.481   1.084  27.879  0.00  0.00    -0.229 F 
ENDBRANCH   6  13
ENDBRANCH   1   4
BRANCH   2  15
ATOM     15  C   UNL A   1     -27.692   0.434  24.729  0.00  0.00    -0.002 C 
ATOM     16  C   UNL A   1     -28.264   0.953  24.006  0.00  0.00    -0.055 C 
BRANCH  16  17
ATOM     17  C   UNL A   1     -29.041   1.705  23.574  0.00  0.00    +0.049 C 
ATOM     18  C   UNL A   1     -30.096   2.203  22.924  0.00  0.00    +0.034 C 
BRANCH  18  19
ATOM     19  C   UNL A   1     -31.207   2.825  22.493  0.00  0.00    +0.262 C 
ATOM     20 CL   UNL A   1     -31.880   2.625  21.051  0.00  0.00    -0.072 Cl
ATOM     21  F   UNL A   1     -31.640   3.735  23.338  0.00  0.00    -0.214 F 
ENDBRANCH  18  19
ENDBRANCH  16  17
ENDBRANCH   2  15
BRANCH   1  22
ATOM     22  C   UNL A   1     -26.781   1.284  27.060  0.00  0.00    +0.126 C 
BRANCH  22  23
ATOM     23  C   UNL A   1     -26.546   2.438  27.337  0.00  0.00    +0.002 A 
ATOM     24  C   UNL A   1     -26.376   2.839  28.658  0.00  0.00    +0.069 A 
ATOM     25  C   UNL A   1     -26.095   4.226  29.127  0.00  0.00    +0.010 A 
ATOM     26  C   UNL A   1     -25.826   5.187  28.108  0.00  0.00    +0.080 A 
ATOM     27  C   UNL A   1     -25.945   4.745  26.775  0.00  0.00    +0.006 A 
ATOM     28  C   UNL A   1     -26.255   3.490  26.415  0.00  0.00    -0.002 A 
BRANCH  24  29
ATOM     29  C   UNL A   1     -26.565   1.915  29.840  0.00  0.00    +0.418 C 
ATOM     30  F   UNL A   1     -25.750   1.261  30.201  0.00  0.00    -0.166 F 
ATOM     31  F   UNL A   1     -26.880   2.912  30.881  0.00  0.00    -0.166 F 
ATOM     32  F   UNL A   1     -27.786   1.242  29.882  0.00  0.00    -0.166 F 
ENDBRANCH  24  29
BRANCH  26  33
ATOM     33  C   UNL A   1     -25.519   6.525  28.542  0.00  0.00    +0.388 C 
ATOM     34  O   UNL A   1     -24.984   6.827  29.649  0.00  0.00    -0.241 OA
ATOM     35  O   UNL A   1     -25.878   7.500  27.737  0.00  0.00    -0.241 OA
ENDBRANCH  26  33
ENDBRANCH  22  23
ENDBRANCH   1  22
TORSDOF 10
ENDMDL
ENDMDL
