MODEL 4720
MODEL 1
REMARK VINA RESULT:    -4.505      0.000      0.000
REMARK INTER + INTRA:          -4.505
REMARK INTER:                  -4.505
REMARK INTRA:                   0.000
REMARK UNBOUND:                 0.000
REMARK  Name = No_4720-gen_results/8p0m/2024-11-26-14-13-15/
REMARK  0 active torsions:
REMARK  status: ('A' for Active; 'I' for Inactive)
REMARK                            x       y       z     vdW  Elec       q    Type
REMARK                         _______ _______ _______ _____ _____    ______ ____
ROOT
ATOM      1  C   UNL A   1      -9.497  -9.115  20.111  0.00  0.00    +0.011 A 
ATOM      2  C   UNL A   1     -10.271  -9.223  19.404  0.00  0.00    +0.001 A 
ATOM      3  C   UNL A   1      -8.272  -9.894  19.870  0.00  0.00    +0.058 A 
ATOM      4  C   UNL A   1      -8.110 -10.636  18.664  0.00  0.00    +0.011 A 
ATOM      5  C   UNL A   1      -9.182 -10.634  17.808  0.00  0.00    +0.001 A 
ATOM      6  C   UNL A   1     -10.293  -9.907  18.099  0.00  0.00    +0.000 A 
ATOM      7 CL   UNL A   1      -6.955  -9.962  20.952  0.00  0.00    -0.082 Cl
ENDROOT
TORSDOF 0
ENDMDL
ENDMDL
