MODEL 4721
MODEL 1
REMARK VINA RESULT:    -5.438      0.000      0.000
REMARK INTER + INTRA:          -5.790
REMARK INTER:                  -5.756
REMARK INTRA:                  -0.033
REMARK UNBOUND:                -0.033
REMARK  Name = No_4721-gen_results/8p0m/2024-11-26-14-13-15/
REMARK  1 active torsions:
REMARK  status: ('A' for Active; 'I' for Inactive)
REMARK    1  A    between atoms: C_2  and  C_8
REMARK                            x       y       z     vdW  Elec       q    Type
REMARK                         _______ _______ _______ _____ _____    ______ ____
ROOT
ATOM      1  C   UNL A   1     -24.147  -3.899  28.841  0.00  0.00    +0.036 A 
ATOM      2  C   UNL A   1     -24.388  -2.939  29.203  0.00  0.00    +0.082 A 
ATOM      3  C   UNL A   1     -25.070  -4.942  29.074  0.00  0.00    +0.140 A 
ATOM      4  C   UNL A   1     -26.110  -4.775  29.535  0.00  0.00    +0.030 A 
ATOM      5  C   UNL A   1     -25.623  -2.480  29.840  0.00  0.00    +0.007 A 
ATOM      6  C   UNL A   1     -26.521  -3.479  30.013  0.00  0.00    +0.003 A 
ATOM      7  F   UNL A   1     -24.710  -6.199  28.575  0.00  0.00    -0.204 F 
ENDROOT
BRANCH   2   8
ATOM      8  C   UNL A   1     -23.441  -1.658  28.977  0.00  0.00    +0.388 C 
ATOM      9  O   UNL A   1     -22.225  -1.647  29.028  0.00  0.00    -0.241 OA
ATOM     10  O   UNL A   1     -23.943  -0.599  28.324  0.00  0.00    -0.241 OA
ENDBRANCH   2   8
TORSDOF 1
ENDMDL
ENDMDL
