REMARK  Name = No_4721-gen_results/8p0m/2024-11-26-14-13-15/
REMARK  1 active torsions:
REMARK  status: ('A' for Active; 'I' for Inactive)
REMARK    1  A    between atoms: C_2  and  C_8
REMARK                            x       y       z     vdW  Elec       q    Type
REMARK                         _______ _______ _______ _____ _____    ______ ____
ROOT
ATOM      1  C   UNL A   1     -28.016  -0.814  28.878  0.00  0.00    +0.036 A 
ATOM      2  C   UNL A   1     -28.469  -0.785  29.829  0.00  0.00    +0.082 A 
ATOM      3  C   UNL A   1     -27.136   0.236  28.535  0.00  0.00    +0.140 A 
ATOM      4  C   UNL A   1     -26.805   1.051  29.276  0.00  0.00    +0.030 A 
ATOM      5  C   UNL A   1     -28.237   0.150  30.930  0.00  0.00    +0.007 A 
ATOM      6  C   UNL A   1     -27.352   1.124  30.607  0.00  0.00    +0.003 A 
ATOM      7  F   UNL A   1     -26.557   0.157  27.264  0.00  0.00    -0.204 F 
ENDROOT
BRANCH   2   8
ATOM      8  C   UNL A   1     -29.465  -1.934  30.357  0.00  0.00    +0.388 C 
ATOM      9  O   UNL A   1     -29.265  -3.134  30.308  0.00  0.00    -0.241 OA
ATOM     10  O   UNL A   1     -30.410  -1.601  31.248  0.00  0.00    -0.241 OA
ENDBRANCH   2   8
TORSDOF 1
