REMARK  Name = No_4722-gen_results/8p0m/2024-11-26-14-13-15/
REMARK  1 active torsions:
REMARK  status: ('A' for Active; 'I' for Inactive)
REMARK    1  A    between atoms: C_3  and  C_7
REMARK                            x       y       z     vdW  Elec       q    Type
REMARK                         _______ _______ _______ _____ _____    ______ ____
ROOT
ATOM      1  C   UNL A   1     -28.016  -0.814  28.878  0.00  0.00    +0.000 A 
ATOM      2  C   UNL A   1     -28.469  -0.785  29.829  0.00  0.00    +0.000 A 
ATOM      3  C   UNL A   1     -27.136   0.236  28.535  0.00  0.00    +0.000 A 
ATOM      4  C   UNL A   1     -26.875   1.282  29.398  0.00  0.00    +0.000 A 
ATOM      5  C   UNL A   1     -28.361   0.199  30.924  0.00  0.00    +0.000 A 
ATOM      6  C   UNL A   1     -27.528   1.223  30.636  0.00  0.00    +0.000 A 
ENDROOT
BRANCH   3   7
ATOM      7  C   UNL A   1     -26.399   0.295  27.228  0.00  0.00    +0.000 A 
ATOM      8  C   UNL A   1     -25.039   0.236  27.354  0.00  0.00    +0.000 A 
ATOM      9  C   UNL A   1     -27.029   0.396  26.009  0.00  0.00    +0.000 A 
ATOM     10  C   UNL A   1     -26.273   0.305  24.864  0.00  0.00    +0.000 A 
ATOM     11  C   UNL A   1     -24.256   0.299  26.166  0.00  0.00    +0.000 A 
ATOM     12  C   UNL A   1     -24.908   0.328  24.930  0.00  0.00    +0.000 A 
ENDBRANCH   3   7
TORSDOF 1
