MODEL 4722
MODEL 1
REMARK VINA RESULT:    -6.505      0.000      0.000
REMARK INTER + INTRA:          -7.275
REMARK INTER:                  -6.885
REMARK INTRA:                  -0.390
REMARK UNBOUND:                -0.390
REMARK  Name = No_4722-gen_results/8p0m/2024-11-26-14-13-15/
REMARK  1 active torsions:
REMARK  status: ('A' for Active; 'I' for Inactive)
REMARK    1  A    between atoms: C_3  and  C_7
REMARK                            x       y       z     vdW  Elec       q    Type
REMARK                         _______ _______ _______ _____ _____    ______ ____
ROOT
ATOM      1  C   UNL A   1     -25.875  -2.589  29.655  0.00  0.00    +0.000 A 
ATOM      2  C   UNL A   1     -26.326  -3.522  29.842  0.00  0.00    +0.000 A 
ATOM      3  C   UNL A   1     -24.619  -2.582  29.009  0.00  0.00    +0.000 A 
ATOM      4  C   UNL A   1     -23.981  -3.749  28.640  0.00  0.00    +0.000 A 
ATOM      5  C   UNL A   1     -25.868  -4.895  29.553  0.00  0.00    +0.000 A 
ATOM      6  C   UNL A   1     -24.667  -4.934  28.935  0.00  0.00    +0.000 A 
ENDROOT
BRANCH   3   7
ATOM      7  C   UNL A   1     -23.887  -1.320  28.651  0.00  0.00    +0.000 A 
ATOM      8  C   UNL A   1     -22.642  -1.224  29.207  0.00  0.00    +0.000 A 
ATOM      9  C   UNL A   1     -24.414  -0.346  27.835  0.00  0.00    +0.000 A 
ATOM     10  C   UNL A   1     -23.613   0.706  27.458  0.00  0.00    +0.000 A 
ATOM     11  C   UNL A   1     -21.878  -0.053  28.934  0.00  0.00    +0.000 A 
ATOM     12  C   UNL A   1     -22.394   0.896  28.046  0.00  0.00    +0.000 A 
ENDBRANCH   3   7
TORSDOF 1
ENDMDL
ENDMDL
