REMARK  Name = No_4723-gen_results/8p0m/2024-11-26-14-13-15/
REMARK  1 active torsions:
REMARK  status: ('A' for Active; 'I' for Inactive)
REMARK    1  A    between atoms: C_5  and  C_7
REMARK                            x       y       z     vdW  Elec       q    Type
REMARK                         _______ _______ _______ _____ _____    ______ ____
ROOT
ATOM      1  C   UNL A   1     -28.016  -0.814  28.878  0.00  0.00    +0.001 A 
ATOM      2  C   UNL A   1     -27.064  -0.119  28.608  0.00  0.00    +0.011 A 
ATOM      3  C   UNL A   1     -26.972   0.714  27.506  0.00  0.00    +0.058 A 
ATOM      4  C   UNL A   1     -28.105   0.774  26.642  0.00  0.00    +0.015 A 
ATOM      5  C   UNL A   1     -29.201   0.104  27.053  0.00  0.00    +0.072 A 
ATOM      6  C   UNL A   1     -29.210  -0.603  28.185  0.00  0.00    +0.004 A 
ATOM      7 CL   UNL A   1     -25.498   1.528  27.053  0.00  0.00    -0.082 Cl
ENDROOT
BRANCH   5   8
ATOM      8  C   UNL A   1     -30.370   0.226  26.160  0.00  0.00    +0.419 C 
ATOM      9  F   UNL A   1     -30.899   1.263  26.193  0.00  0.00    -0.166 F 
ATOM     10  F   UNL A   1     -31.290  -0.732  26.596  0.00  0.00    -0.166 F 
ATOM     11  F   UNL A   1     -30.057  -0.162  24.899  0.00  0.00    -0.166 F 
ENDBRANCH   5   8
TORSDOF 1
