MODEL 4723
MODEL 1
REMARK VINA RESULT:    -5.509      0.000      0.000
REMARK INTER + INTRA:          -5.953
REMARK INTER:                  -5.831
REMARK INTRA:                  -0.122
REMARK UNBOUND:                -0.122
REMARK  Name = No_4723-gen_results/8p0m/2024-11-26-14-13-15/
REMARK  1 active torsions:
REMARK  status: ('A' for Active; 'I' for Inactive)
REMARK    1  A    between atoms: C_5  and  C_7
REMARK                            x       y       z     vdW  Elec       q    Type
REMARK                         _______ _______ _______ _____ _____    ______ ____
ROOT
ATOM      1  C   UNL A   1     -24.573  -5.259  28.903  0.00  0.00    +0.001 A 
ATOM      2  C   UNL A   1     -25.710  -5.190  29.310  0.00  0.00    +0.011 A 
ATOM      3  C   UNL A   1     -26.330  -4.033  29.750  0.00  0.00    +0.058 A 
ATOM      4  C   UNL A   1     -25.571  -2.827  29.688  0.00  0.00    +0.015 A 
ATOM      5  C   UNL A   1     -24.365  -2.914  29.091  0.00  0.00    +0.072 A 
ATOM      6  C   UNL A   1     -23.896  -4.071  28.619  0.00  0.00    +0.004 A 
ATOM      7 CL   UNL A   1     -27.892  -4.030  30.524  0.00  0.00    -0.082 Cl
ENDROOT
BRANCH   5   8
ATOM      8  C   UNL A   1     -23.628  -1.639  29.000  0.00  0.00    +0.419 C 
ATOM      9  F   UNL A   1     -22.469  -1.751  28.952  0.00  0.00    -0.166 F 
ATOM     10  F   UNL A   1     -23.935  -0.932  30.166  0.00  0.00    -0.166 F 
ATOM     11  F   UNL A   1     -24.121  -0.866  28.002  0.00  0.00    -0.166 F 
ENDBRANCH   5   8
TORSDOF 1
ENDMDL
ENDMDL
