REMARK  Name = No_4724-gen_results/8p0m/2024-11-26-14-13-15/
REMARK  2 active torsions:
REMARK  status: ('A' for Active; 'I' for Inactive)
REMARK    1  A    between atoms: C_1  and  C_2
REMARK    2  A    between atoms: C_1  and  N_8
REMARK                            x       y       z     vdW  Elec       q    Type
REMARK                         _______ _______ _______ _____ _____    ______ ____
ROOT
ATOM      1  C   UNL A   1     -27.064  -0.119  28.608  0.00  0.00    +0.002 A 
ATOM      2  C   UNL A   1     -27.001   0.691  27.491  0.00  0.00    -0.002 A 
ATOM      3  C   UNL A   1     -25.855   1.482  27.083  0.00  0.00    -0.000 A 
ATOM      4  C   UNL A   1     -24.690   1.453  27.881  0.00  0.00    -0.000 A 
ATOM      5  C   UNL A   1     -24.738   0.601  29.042  0.00  0.00    -0.000 A 
ATOM      6  C   UNL A   1     -25.823  -0.169  29.389  0.00  0.00    -0.002 A 
ENDROOT
BRANCH   1   7
ATOM      7  C   UNL A   1     -28.016  -0.814  28.878  0.00  0.00    +0.153 C 
BRANCH   7   8
ATOM      8  N   UNL A   1     -29.207  -0.151  29.066  0.00  0.00    -0.246 NA
ATOM      9  C   UNL A   1     -29.747   0.555  28.431  0.00  0.00    +0.200 C 
ATOM     10  N   UNL A   1     -30.977   1.037  28.632  0.00  0.00    -0.104 NA
ENDBRANCH   7   8
ENDBRANCH   1   7
TORSDOF 2
