MODEL 4724
MODEL 1
REMARK VINA RESULT:    -4.888      0.000      0.000
REMARK INTER + INTRA:          -5.567
REMARK INTER:                  -5.459
REMARK INTRA:                  -0.108
REMARK UNBOUND:                -0.108
REMARK  Name = No_4724-gen_results/8p0m/2024-11-26-14-13-15/
REMARK  2 active torsions:
REMARK  status: ('A' for Active; 'I' for Inactive)
REMARK    1  A    between atoms: C_1  and  C_2
REMARK    2  A    between atoms: C_1  and  N_8
REMARK                            x       y       z     vdW  Elec       q    Type
REMARK                         _______ _______ _______ _____ _____    ______ ____
ROOT
ATOM      1  C   UNL A   1     -22.993  -0.534  28.748  0.00  0.00    +0.002 A 
ATOM      2  C   UNL A   1     -21.620  -0.407  28.829  0.00  0.00    -0.002 A 
ATOM      3  C   UNL A   1     -20.829   0.637  28.204  0.00  0.00    -0.000 A 
ATOM      4  C   UNL A   1     -21.487   1.617  27.429  0.00  0.00    -0.000 A 
ATOM      5  C   UNL A   1     -22.921   1.503  27.348  0.00  0.00    -0.000 A 
ATOM      6  C   UNL A   1     -23.654   0.527  27.980  0.00  0.00    -0.002 A 
ENDROOT
BRANCH   1   7
ATOM      7  C   UNL A   1     -23.623  -1.381  29.339  0.00  0.00    +0.153 C 
BRANCH   7   8
ATOM      8  N   UNL A   1     -23.395  -2.680  28.945  0.00  0.00    -0.246 NA
ATOM      9  C   UNL A   1     -24.028  -3.568  28.989  0.00  0.00    +0.200 C 
ATOM     10  N   UNL A   1     -23.776  -4.762  28.444  0.00  0.00    -0.104 NA
ENDBRANCH   7   8
ENDBRANCH   1   7
TORSDOF 2
ENDMDL
ENDMDL
