REMARK  Name = No_4725-gen_results/8p0m/2024-11-26-14-13-15/
REMARK  2 active torsions:
REMARK  status: ('A' for Active; 'I' for Inactive)
REMARK    1  A    between atoms: C_6  and  O_9
REMARK    2  A    between atoms: O_9  and  C_14
REMARK                            x       y       z     vdW  Elec       q    Type
REMARK                         _______ _______ _______ _____ _____    ______ ____
ROOT
ATOM      1  C   UNL A   1     -28.016  -0.814  28.878  0.00  0.00    +0.249 C 
ATOM      2  C   UNL A   1     -27.064  -0.119  28.608  0.00  0.00    +0.324 C 
ATOM      3  F   UNL A   1     -25.884  -0.525  28.783  0.00  0.00    -0.199 F 
ATOM      4  C   UNL A   1     -27.074   0.486  27.163  0.00  0.00    +0.249 C 
ATOM      5  C   UNL A   1     -29.319  -0.059  29.034  0.00  0.00    +0.230 C 
ATOM      6  C   UNL A   1     -29.686   0.533  27.785  0.00  0.00    +0.232 C 
ATOM      7  C   UNL A   1     -28.537   1.264  27.122  0.00  0.00    +0.230 C 
ATOM      8  F   UNL A   1     -26.841   1.047  29.427  0.00  0.00    -0.199 F 
ATOM      9  O   UNL A   1     -30.405  -0.931  29.471  0.00  0.00    -0.216 OA
ATOM     10  O   UNL A   1     -28.739   1.665  25.721  0.00  0.00    -0.216 OA
ATOM     11  O   UNL A   1     -26.010   1.246  26.795  0.00  0.00    -0.214 OA
ATOM     12  O   UNL A   1     -27.725  -1.466  30.190  0.00  0.00    -0.214 OA
ENDROOT
BRANCH   6  13
ATOM     13  O   UNL A   1     -30.726   1.419  27.839  0.00  0.00    -0.471 OA
BRANCH  13  14
ATOM     14  C   UNL A   1     -31.886   1.302  27.322  0.00  0.00    +0.172 C 
ATOM     15  C   UNL A   1     -32.715   1.914  27.468  0.00  0.00    +0.043 C 
ENDBRANCH  13  14
ENDBRANCH   6  13
TORSDOF 2
