MODEL 4725
MODEL 1
REMARK VINA RESULT:    -5.111      0.000      0.000
REMARK INTER + INTRA:          -5.926
REMARK INTER:                  -5.709
REMARK INTRA:                  -0.217
REMARK UNBOUND:                -0.217
REMARK  Name = No_4725-gen_results/8p0m/2024-11-26-14-13-15/
REMARK  2 active torsions:
REMARK  status: ('A' for Active; 'I' for Inactive)
REMARK    1  A    between atoms: C_6  and  O_9
REMARK    2  A    between atoms: O_9  and  C_14
REMARK                            x       y       z     vdW  Elec       q    Type
REMARK                         _______ _______ _______ _____ _____    ______ ____
ROOT
ATOM      1  C   UNL A   1     -32.208 -12.964  11.027  0.00  0.00    +0.249 C 
ATOM      2  C   UNL A   1     -31.335 -12.217  11.406  0.00  0.00    +0.324 C 
ATOM      3  F   UNL A   1     -31.595 -11.046  11.790  0.00  0.00    -0.199 F 
ATOM      4  C   UNL A   1     -30.392 -12.806  12.509  0.00  0.00    +0.249 C 
ATOM      5  C   UNL A   1     -31.716 -14.136  10.204  0.00  0.00    +0.230 C 
ATOM      6  C   UNL A   1     -30.887 -14.977  11.009  0.00  0.00    +0.232 C 
ATOM      7  C   UNL A   1     -29.851 -14.201  11.796  0.00  0.00    +0.230 C 
ATOM      8  F   UNL A   1     -30.396 -11.742  10.420  0.00  0.00    -0.199 F 
ATOM      9  O   UNL A   1     -32.820 -14.935   9.680  0.00  0.00    -0.216 OA
ATOM     10  O   UNL A   1     -29.142 -14.942  12.851  0.00  0.00    -0.216 OA
ATOM     11  O   UNL A   1     -29.416 -11.996  12.995  0.00  0.00    -0.214 OA
ATOM     12  O   UNL A   1     -33.122 -12.166  10.156  0.00  0.00    -0.214 OA
ENDROOT
BRANCH   6  13
ATOM     13  O   UNL A   1     -30.205 -15.951  10.332  0.00  0.00    -0.471 OA
BRANCH  13  14
ATOM     14  C   UNL A   1     -29.331 -15.805   9.415  0.00  0.00    +0.172 C 
ATOM     15  C   UNL A   1     -28.665 -16.516   9.049  0.00  0.00    +0.043 C 
ENDBRANCH  13  14
ENDBRANCH   6  13
TORSDOF 2
ENDMDL
ENDMDL
