MODEL 4726
MODEL 1
REMARK VINA RESULT:    -7.297      0.000      0.000
REMARK INTER + INTRA:          -9.600
REMARK INTER:                  -8.576
REMARK INTRA:                  -1.023
REMARK UNBOUND:                -1.023
REMARK  Name = No_4726-gen_results/8p0m/2024-11-26-14-13-15/
REMARK  3 active torsions:
REMARK  status: ('A' for Active; 'I' for Inactive)
REMARK    1  A    between atoms: C_3  and  C_8
REMARK    2  A    between atoms: C_8  and  C_9
REMARK    3  A    between atoms: C_8  and  C_15
REMARK                            x       y       z     vdW  Elec       q    Type
REMARK                         _______ _______ _______ _____ _____    ______ ____
ROOT
ATOM      1  C   UNL A   1     -23.183  -0.535  28.783  0.00  0.00    +0.111 C 
ENDROOT
BRANCH   1   4
ATOM      2  C   UNL A   1     -23.977  -3.010  28.643  0.00  0.00    -0.004 A 
ATOM      3  C   UNL A   1     -24.745  -3.679  28.915  0.00  0.00    -0.005 A 
ATOM      4  C   UNL A   1     -24.221  -1.633  29.073  0.00  0.00    -0.013 A 
ATOM      5  C   UNL A   1     -25.343  -1.277  29.780  0.00  0.00    -0.004 A 
ATOM      6  C   UNL A   1     -26.009  -3.589  29.646  0.00  0.00    -0.022 A 
ATOM      7  C   UNL A   1     -26.940  -4.615  29.925  0.00  0.00    +0.031 C 
ATOM      8  C   UNL A   1     -26.218  -2.260  30.072  0.00  0.00    -0.005 A 
ENDBRANCH   1   4
BRANCH   1   9
ATOM      9  C   UNL A   1     -23.709   0.500  28.043  0.00  0.00    -0.013 A 
ATOM     10  C   UNL A   1     -22.864   1.682  27.899  0.00  0.00    -0.004 A 
ATOM     11  C   UNL A   1     -22.316   2.066  26.802  0.00  0.00    -0.000 A 
ATOM     12  C   UNL A   1     -23.151   1.998  25.612  0.00  0.00    -0.000 A 
ATOM     13  C   UNL A   1     -24.289   1.166  25.726  0.00  0.00    -0.000 A 
ATOM     14  C   UNL A   1     -24.528   0.279  26.895  0.00  0.00    -0.004 A 
ENDBRANCH   1   9
BRANCH   1  15
ATOM     15  C   UNL A   1     -21.990  -0.464  29.431  0.00  0.00    +0.326 C 
ATOM     16  F   UNL A   1     -21.190  -1.073  28.969  0.00  0.00    -0.198 F 
ATOM     17  F   UNL A   1     -22.080  -0.738  30.759  0.00  0.00    -0.198 F 
ENDBRANCH   1  15
TORSDOF 3
ENDMDL
ENDMDL
