REMARK  Name = No_4726-gen_results/8p0m/2024-11-26-14-13-15/
REMARK  3 active torsions:
REMARK  status: ('A' for Active; 'I' for Inactive)
REMARK    1  A    between atoms: C_3  and  C_8
REMARK    2  A    between atoms: C_8  and  C_9
REMARK    3  A    between atoms: C_8  and  C_15
REMARK                            x       y       z     vdW  Elec       q    Type
REMARK                         _______ _______ _______ _____ _____    ______ ____
ROOT
ATOM      1  C   UNL A   1     -26.317   0.380  27.309  0.00  0.00    +0.111 C 
ENDROOT
BRANCH   1   4
ATOM      2  C   UNL A   1     -28.016  -0.814  28.878  0.00  0.00    -0.004 A 
ATOM      3  C   UNL A   1     -28.469  -0.785  29.829  0.00  0.00    -0.005 A 
ATOM      4  C   UNL A   1     -27.087   0.290  28.638  0.00  0.00    -0.013 A 
ATOM      5  C   UNL A   1     -26.832   1.249  29.587  0.00  0.00    -0.004 A 
ATOM      6  C   UNL A   1     -28.391   0.080  31.006  0.00  0.00    -0.022 A 
ATOM      7  C   UNL A   1     -29.088  -0.032  32.230  0.00  0.00    +0.031 C 
ATOM      8  C   UNL A   1     -27.475   1.127  30.766  0.00  0.00    -0.005 A 
ENDBRANCH   1   4
BRANCH   1   9
ATOM      9  C   UNL A   1     -24.956   0.272  27.485  0.00  0.00    -0.013 A 
ATOM     10  C   UNL A   1     -24.134   1.228  26.748  0.00  0.00    -0.004 A 
ATOM     11  C   UNL A   1     -23.451   2.177  27.281  0.00  0.00    -0.000 A 
ATOM     12  C   UNL A   1     -22.717   1.835  28.490  0.00  0.00    -0.000 A 
ATOM     13  C   UNL A   1     -23.149   0.655  29.140  0.00  0.00    -0.000 A 
ATOM     14  C   UNL A   1     -24.374  -0.086  28.738  0.00  0.00    -0.004 A 
ENDBRANCH   1   9
BRANCH   1  15
ATOM     15  C   UNL A   1     -26.928   0.278  26.099  0.00  0.00    +0.326 C 
ATOM     16  F   UNL A   1     -27.006   1.237  25.552  0.00  0.00    -0.198 F 
ATOM     17  F   UNL A   1     -28.142  -0.330  26.157  0.00  0.00    -0.198 F 
ENDBRANCH   1  15
TORSDOF 3
