REMARK  Name = No_4727-gen_results/8p0m/2024-11-26-14-13-15/
REMARK  6 active torsions:
REMARK  status: ('A' for Active; 'I' for Inactive)
REMARK    1  A    between atoms: C_2  and  C_7
REMARK    2  A    between atoms: C_7  and  C_9
REMARK    3  A    between atoms: C_9  and  C_10
REMARK    4  A    between atoms: C_10  and  C_11
REMARK    5  A    between atoms: C_11  and  C_12
REMARK    6  A    between atoms: C_11  and  C_13
REMARK                            x       y       z     vdW  Elec       q    Type
REMARK                         _______ _______ _______ _____ _____    ______ ____
ROOT
ATOM      1  C   UNL A   1     -25.891  -0.626  27.786  0.00  0.00    +0.022 C 
ATOM      2  C   UNL A   1     -25.463   0.112  26.681  0.00  0.00    +0.005 C 
ENDROOT
BRANCH   1   4
ATOM      3  C   UNL A   1     -28.016  -0.814  28.878  0.00  0.00    -0.004 A 
ATOM      4  C   UNL A   1     -27.064  -0.119  28.608  0.00  0.00    -0.022 A 
ATOM      5  C   UNL A   1     -26.929   1.171  29.008  0.00  0.00    -0.004 A 
ATOM      6  C   UNL A   1     -27.956   1.741  29.784  0.00  0.00    -0.000 A 
ATOM      7  C   UNL A   1     -29.057  -0.327  29.747  0.00  0.00    -0.000 A 
ATOM      8  C   UNL A   1     -28.983   0.972  30.152  0.00  0.00    -0.000 A 
ENDBRANCH   1   4
BRANCH   1   9
ATOM      9  C   UNL A   1     -25.031  -1.670  28.241  0.00  0.00    +0.005 C 
BRANCH   9  10
ATOM     10  C   UNL A   1     -24.396  -1.719  29.477  0.00  0.00    +0.005 C 
BRANCH  10  11
ATOM     11  C   UNL A   1     -24.058  -0.533  30.198  0.00  0.00    +0.022 C 
BRANCH  11  12
ATOM     12  C   UNL A   1     -24.953  -0.173  31.281  0.00  0.00    -0.031 C 
ATOM     13  C   UNL A   1     -24.797   1.069  31.906  0.00  0.00    -0.030 C 
ATOM     14  C   UNL A   1     -25.772   1.420  32.922  0.00  0.00    +0.030 C 
ENDBRANCH  11  12
BRANCH  11  15
ATOM     15  C   UNL A   1     -22.906   0.149  29.862  0.00  0.00    +0.004 C 
ATOM     16  C   UNL A   1     -22.008  -0.148  28.859  0.00  0.00    +0.000 C 
ENDBRANCH  11  15
ENDBRANCH  10  11
ENDBRANCH   9  10
ENDBRANCH   1   9
TORSDOF 6
