MODEL 4727
MODEL 1
REMARK VINA RESULT:    -5.699      0.000      0.000
REMARK INTER + INTRA:          -9.357
REMARK INTER:                  -7.698
REMARK INTRA:                  -1.660
REMARK UNBOUND:                -1.660
REMARK  Name = No_4727-gen_results/8p0m/2024-11-26-14-13-15/
REMARK  6 active torsions:
REMARK  status: ('A' for Active; 'I' for Inactive)
REMARK    1  A    between atoms: C_2  and  C_7
REMARK    2  A    between atoms: C_7  and  C_9
REMARK    3  A    between atoms: C_9  and  C_10
REMARK    4  A    between atoms: C_10  and  C_11
REMARK    5  A    between atoms: C_11  and  C_12
REMARK    6  A    between atoms: C_11  and  C_13
REMARK                            x       y       z     vdW  Elec       q    Type
REMARK                         _______ _______ _______ _____ _____    ______ ____
ROOT
ATOM      1  C   UNL A   1     -22.450  -0.051  29.035  0.00  0.00    +0.022 C 
ATOM      2  C   UNL A   1     -21.145  -0.546  29.010  0.00  0.00    +0.005 C 
ENDROOT
BRANCH   1   4
ATOM      3  C   UNL A   1     -22.416   1.676  27.374  0.00  0.00    -0.004 A 
ATOM      4  C   UNL A   1     -22.980   0.708  27.830  0.00  0.00    -0.022 A 
ATOM      5  C   UNL A   1     -24.127   0.189  27.323  0.00  0.00    -0.004 A 
ATOM      6  C   UNL A   1     -24.701   0.810  26.198  0.00  0.00    -0.000 A 
ATOM      7  C   UNL A   1     -22.895   2.302  26.168  0.00  0.00    -0.000 A 
ATOM      8  C   UNL A   1     -24.060   1.837  25.636  0.00  0.00    -0.000 A 
ENDBRANCH   1   4
BRANCH   1   9
ATOM      9  C   UNL A   1     -23.118  -0.049  30.296  0.00  0.00    +0.005 C 
BRANCH   9  10
ATOM     10  C   UNL A   1     -23.748  -1.140  30.884  0.00  0.00    +0.005 C 
BRANCH  10  11
ATOM     11  C   UNL A   1     -24.977  -1.664  30.377  0.00  0.00    +0.022 C 
BRANCH  11  12
ATOM     12  C   UNL A   1     -24.932  -3.033  29.899  0.00  0.00    -0.031 C 
ATOM     13  C   UNL A   1     -24.105  -3.347  28.815  0.00  0.00    -0.030 C 
ATOM     14  C   UNL A   1     -24.027  -4.745  28.433  0.00  0.00    +0.030 C 
ENDBRANCH  11  12
BRANCH  11  15
ATOM     15  C   UNL A   1     -26.109  -0.876  30.418  0.00  0.00    +0.004 C 
ATOM     16  C   UNL A   1     -27.043  -0.683  29.423  0.00  0.00    +0.000 C 
ENDBRANCH  11  15
ENDBRANCH  10  11
ENDBRANCH   9  10
ENDBRANCH   1   9
TORSDOF 6
ENDMDL
ENDMDL
