MODEL 4728
MODEL 1
REMARK VINA RESULT:    -4.255      0.000      0.000
REMARK INTER + INTRA:          -4.255
REMARK INTER:                  -4.255
REMARK INTRA:                   0.000
REMARK UNBOUND:                 0.000
REMARK  Name = No_4728-gen_results/8p0m/2024-11-26-14-13-15/
REMARK  0 active torsions:
REMARK  status: ('A' for Active; 'I' for Inactive)
REMARK                            x       y       z     vdW  Elec       q    Type
REMARK                         _______ _______ _______ _____ _____    ______ ____
ROOT
ATOM      1  C   UNL A   1     -26.198  -4.829  29.655  0.00  0.00    +0.000 A 
ATOM      2  C   UNL A   1     -26.177  -3.778  29.729  0.00  0.00    +0.000 A 
ATOM      3  C   UNL A   1     -25.018  -5.393  29.000  0.00  0.00    +0.000 A 
ATOM      4  C   UNL A   1     -23.986  -4.607  28.551  0.00  0.00    +0.000 A 
ATOM      5  C   UNL A   1     -25.244  -2.715  29.357  0.00  0.00    +0.000 A 
ATOM      6  C   UNL A   1     -24.098  -3.251  28.722  0.00  0.00    +0.000 A 
ENDROOT
TORSDOF 0
ENDMDL
ENDMDL
