MODEL 472
MODEL 1
REMARK VINA RESULT:    -6.763      0.000      0.000
REMARK INTER + INTRA:          -7.529
REMARK INTER:                  -7.159
REMARK INTRA:                  -0.370
REMARK UNBOUND:                -0.370
REMARK  Name = No_472-gen_results/8p0m/2024-11-26-14-13-15/
REMARK  1 active torsions:
REMARK  status: ('A' for Active; 'I' for Inactive)
REMARK    1  A    between atoms: C_6  and  C_8
REMARK                            x       y       z     vdW  Elec       q    Type
REMARK                         _______ _______ _______ _____ _____    ______ ____
ROOT
ATOM      1  C   UNL A   1     -23.563   0.615  27.521  0.00  0.00    +0.011 A 
ATOM      2  C   UNL A   1     -22.445   0.674  27.979  0.00  0.00    +0.058 A 
ATOM      3  C   UNL A   1     -21.938  -0.225  28.860  0.00  0.00    +0.011 A 
ATOM      4  C   UNL A   1     -22.758  -1.294  29.270  0.00  0.00    +0.001 A 
ATOM      5  C   UNL A   1     -24.422  -0.502  27.823  0.00  0.00    +0.001 A 
ATOM      6  C   UNL A   1     -23.970  -1.417  28.725  0.00  0.00    +0.000 A 
ATOM      7 CL   UNL A   1     -21.338   1.941  27.523  0.00  0.00    -0.082 Cl
ENDROOT
BRANCH   6   8
ATOM      8  C   UNL A   1     -24.869  -2.554  29.090  0.00  0.00    +0.000 A 
ATOM      9  C   UNL A   1     -25.842  -2.475  29.588  0.00  0.00    +0.000 A 
ATOM     10  C   UNL A   1     -26.707  -3.594  29.962  0.00  0.00    +0.000 A 
ATOM     11  C   UNL A   1     -26.228  -4.895  29.689  0.00  0.00    +0.000 A 
ATOM     12  C   UNL A   1     -24.194  -3.877  28.715  0.00  0.00    +0.000 A 
ATOM     13  C   UNL A   1     -24.949  -5.017  29.048  0.00  0.00    +0.000 A 
ENDBRANCH   6   8
TORSDOF 1
ENDMDL
ENDMDL
