MODEL 4730
MODEL 1
REMARK VINA RESULT:    -6.064      0.000      0.000
REMARK INTER + INTRA:          -6.849
REMARK INTER:                  -6.773
REMARK INTRA:                  -0.076
REMARK UNBOUND:                -0.076
REMARK  Name = No_4730-gen_results/8p0m/2024-11-26-14-13-15/
REMARK  2 active torsions:
REMARK  status: ('A' for Active; 'I' for Inactive)
REMARK    1  A    between atoms: C_3  and  C_7
REMARK    2  A    between atoms: C_14  and  O_15
REMARK                            x       y       z     vdW  Elec       q    Type
REMARK                         _______ _______ _______ _____ _____    ______ ____
ROOT
ATOM      1  C   UNL A   1     -29.972 -12.195  11.949  0.00  0.00    +0.250 C 
ATOM      2  N   UNL A   1     -30.539 -13.359  12.048  0.00  0.00    -0.252 N 
ATOM      3  O   UNL A   1     -29.089 -11.879  12.745  0.00  0.00    -0.270 OA
ATOM      4  C   UNL A   1     -30.060 -14.401  12.963  0.00  0.00    +0.096 C 
ATOM      5  C   UNL A   1     -29.707 -15.614  12.241  0.00  0.00    +0.022 C 
ATOM      6  C   UNL A   1     -30.063 -15.690  10.855  0.00  0.00    +0.006 C 
ATOM      7  C   UNL A   1     -31.252 -15.284  10.445  0.00  0.00    +0.055 C 
ATOM      8  C   UNL A   1     -31.466 -13.828  11.009  0.00  0.00    +0.236 C 
ENDROOT
BRANCH   1  11
ATOM      9  C   UNL A   1     -31.385 -10.204  11.170  0.00  0.00    +0.004 A 
ATOM     10  C   UNL A   1     -31.644  -9.557  10.379  0.00  0.00    +0.000 A 
ATOM     11  C   UNL A   1     -30.452 -11.230  10.903  0.00  0.00    +0.050 A 
ATOM     12  C   UNL A   1     -29.896 -11.405   9.651  0.00  0.00    -0.018 A 
ATOM     13  C   UNL A   1     -31.202  -9.522   8.971  0.00  0.00    -0.000 A 
ATOM     14  C   UNL A   1     -30.308 -10.490   8.672  0.00  0.00    -0.004 A 
ATOM     15  C   UNL A   1     -28.356 -10.961   9.669  0.00  0.00    +0.031 C 
ENDBRANCH   1  11
BRANCH   8  16
ATOM     16  O   UNL A   1     -32.354 -13.122  10.681  0.00  0.00    -0.161 OA
ATOM     17  F   UNL A   1     -33.113 -13.119  11.265  0.00  0.00    -0.045 F 
ENDBRANCH   8  16
TORSDOF 2
ENDMDL
ENDMDL
