MODEL 4731
MODEL 1
REMARK VINA RESULT:    -6.655      0.000      0.000
REMARK INTER + INTRA:          -6.655
REMARK INTER:                  -6.655
REMARK INTRA:                   0.000
REMARK UNBOUND:                 0.000
REMARK  Name = No_4731-gen_results/8p0m/2024-11-26-14-13-15/
REMARK  0 active torsions:
REMARK  status: ('A' for Active; 'I' for Inactive)
REMARK                            x       y       z     vdW  Elec       q    Type
REMARK                         _______ _______ _______ _____ _____    ______ ____
ROOT
ATOM      1  C   UNL A   1     -29.016 -10.310  33.194  0.00  0.00    +0.000 A 
ATOM      2  C   UNL A   1     -29.070 -10.509  32.003  0.00  0.00    +0.000 A 
ATOM      3  C   UNL A   1     -30.037  -9.967  31.179  0.00  0.00    +0.000 A 
ATOM      4  C   UNL A   1     -30.191 -10.237  29.762  0.00  0.00    +0.000 A 
ATOM      5  C   UNL A   1     -31.128  -9.646  28.938  0.00  0.00    +0.000 A 
ATOM      6  C   UNL A   1     -27.932 -10.928  33.981  0.00  0.00    +0.000 A 
ATOM      7  C   UNL A   1     -27.196 -11.955  33.415  0.00  0.00    +0.000 A 
ATOM      8  C   UNL A   1     -27.409 -12.345  32.114  0.00  0.00    +0.000 A 
ATOM      9  C   UNL A   1     -28.410 -11.643  31.358  0.00  0.00    +0.000 A 
ATOM     10  C   UNL A   1     -31.087  -9.939  27.540  0.00  0.00    +0.000 A 
ATOM     11  C   UNL A   1     -30.249 -10.954  27.055  0.00  0.00    +0.000 A 
ATOM     12  C   UNL A   1     -29.424 -11.626  27.907  0.00  0.00    +0.000 A 
ATOM     13  C   UNL A   1     -29.349 -11.310  29.248  0.00  0.00    +0.000 A 
ATOM     14  C   UNL A   1     -28.575 -11.974  29.992  0.00  0.00    +0.000 A 
ENDROOT
TORSDOF 0
ENDMDL
ENDMDL
