REMARK  Name = No_4732-gen_results/8p0m/2024-11-26-14-13-15/
REMARK  3 active torsions:
REMARK  status: ('A' for Active; 'I' for Inactive)
REMARK    1  A    between atoms: C_2  and  C_15
REMARK    2  A    between atoms: C_4  and  C_7
REMARK    3  A    between atoms: C_8  and  C_18
REMARK                            x       y       z     vdW  Elec       q    Type
REMARK                         _______ _______ _______ _____ _____    ______ ____
ROOT
ATOM      1  C   UNL A   1     -24.389  -0.805  30.164  0.00  0.00    +0.056 C 
ATOM      2  C   UNL A   1     -23.817   0.476  29.912  0.00  0.00    +0.097 C 
ATOM      3  C   UNL A   1     -22.501   0.545  29.410  0.00  0.00    +0.011 C 
ATOM      4  C   UNL A   1     -21.770  -0.652  29.213  0.00  0.00    +0.003 C 
ATOM      5  C   UNL A   1     -23.694  -1.821  29.252  0.00  0.00    +0.156 C 
ATOM      6  C   UNL A   1     -22.303  -1.789  29.162  0.00  0.00    +0.033 C 
ATOM      7  C   UNL A   1     -23.870  -1.252  31.663  0.00  0.00    +0.007 C 
ATOM      8  O   UNL A   1     -24.223  -2.907  28.965  0.00  0.00    -0.223 OA
ENDROOT
BRANCH   1  12
ATOM      9  C   UNL A   1     -28.016  -0.814  28.878  0.00  0.00    +0.006 A 
ATOM     10  C   UNL A   1     -28.469  -0.785  29.829  0.00  0.00    +0.080 A 
ATOM     11  C   UNL A   1     -26.504  -0.778  28.877  0.00  0.00    -0.004 A 
ATOM     12  C   UNL A   1     -25.810  -0.853  30.103  0.00  0.00    -0.020 A 
ATOM     13  C   UNL A   1     -27.991  -0.892  31.226  0.00  0.00    +0.006 A 
ATOM     14  C   UNL A   1     -26.604  -0.868  31.265  0.00  0.00    -0.004 A 
BRANCH  10  15
ATOM     15  C   UNL A   1     -30.079  -0.818  29.824  0.00  0.00    +0.388 C 
ATOM     16  O   UNL A   1     -30.731  -0.059  30.703  0.00  0.00    -0.241 OA
ATOM     17  O   UNL A   1     -30.667  -1.403  28.964  0.00  0.00    -0.241 OA
ENDBRANCH  10  15
ENDBRANCH   1  12
BRANCH   2  18
ATOM     18  C   UNL A   1     -24.435   1.748  30.307  0.00  0.00    +0.310 C 
ATOM     19  O   UNL A   1     -24.527   2.150  31.448  0.00  0.00    -0.259 OA
ATOM     20  F   UNL A   1     -25.145   2.293  29.352  0.00  0.00    -0.164 F 
ENDBRANCH   2  18
TORSDOF 3
