MODEL 4732
MODEL 1
REMARK VINA RESULT:    -6.653      0.000      0.000
REMARK INTER + INTRA:          -8.476
REMARK INTER:                  -7.820
REMARK INTRA:                  -0.656
REMARK UNBOUND:                -0.656
REMARK  Name = No_4732-gen_results/8p0m/2024-11-26-14-13-15/
REMARK  3 active torsions:
REMARK  status: ('A' for Active; 'I' for Inactive)
REMARK    1  A    between atoms: C_2  and  C_15
REMARK    2  A    between atoms: C_4  and  C_7
REMARK    3  A    between atoms: C_8  and  C_18
REMARK                            x       y       z     vdW  Elec       q    Type
REMARK                         _______ _______ _______ _____ _____    ______ ____
ROOT
ATOM      1  C   UNL A   1     -24.224   1.084  27.269  0.00  0.00    +0.056 C 
ATOM      2  C   UNL A   1     -23.093   1.728  26.690  0.00  0.00    +0.097 C 
ATOM      3  C   UNL A   1     -21.832   1.562  27.299  0.00  0.00    +0.011 C 
ATOM      4  C   UNL A   1     -21.731   0.801  28.489  0.00  0.00    +0.003 C 
ATOM      5  C   UNL A   1     -23.726  -0.141  28.042  0.00  0.00    +0.156 C 
ATOM      6  C   UNL A   1     -22.623   0.007  28.881  0.00  0.00    +0.033 C 
ATOM      7  C   UNL A   1     -24.754   2.079  28.471  0.00  0.00    +0.007 C 
ATOM      8  O   UNL A   1     -24.480  -1.090  28.314  0.00  0.00    -0.223 OA
ENDROOT
BRANCH   1  12
ATOM      9  C   UNL A   1     -27.675   0.969  25.570  0.00  0.00    +0.006 A 
ATOM     10  C   UNL A   1     -27.415   0.253  24.842  0.00  0.00    +0.080 A 
ATOM     11  C   UNL A   1     -26.584   1.321  26.555  0.00  0.00    -0.004 A 
ATOM     12  C   UNL A   1     -25.286   0.802  26.364  0.00  0.00    -0.020 A 
ATOM     13  C   UNL A   1     -26.158  -0.401  24.411  0.00  0.00    +0.006 A 
ATOM     14  C   UNL A   1     -25.129  -0.096  25.291  0.00  0.00    -0.004 A 
BRANCH  10  15
ATOM     15  C   UNL A   1     -28.583  -0.122  23.798  0.00  0.00    +0.388 C 
ATOM     16  O   UNL A   1     -28.798  -1.407  23.523  0.00  0.00    -0.241 OA
ATOM     17  O   UNL A   1     -29.321   0.724  23.391  0.00  0.00    -0.241 OA
ENDBRANCH  10  15
ENDBRANCH   1  12
BRANCH   2  18
ATOM     18  C   UNL A   1     -23.170   2.708  25.599  0.00  0.00    +0.310 C 
ATOM     19  O   UNL A   1     -23.940   3.644  25.559  0.00  0.00    -0.259 OA
ATOM     20  F   UNL A   1     -22.532   2.328  24.521  0.00  0.00    -0.164 F 
ENDBRANCH   2  18
TORSDOF 3
ENDMDL
ENDMDL
