MODEL 4733
MODEL 1
REMARK VINA RESULT:    -6.529      0.000      0.000
REMARK INTER + INTRA:          -7.291
REMARK INTER:                  -6.911
REMARK INTRA:                  -0.380
REMARK UNBOUND:                -0.380
REMARK  Name = No_4733-gen_results/8p0m/2024-11-26-14-13-15/
REMARK  1 active torsions:
REMARK  status: ('A' for Active; 'I' for Inactive)
REMARK    1  A    between atoms: C_4  and  C_7
REMARK                            x       y       z     vdW  Elec       q    Type
REMARK                         _______ _______ _______ _____ _____    ______ ____
ROOT
ATOM      1  C   UNL A   1     -26.598  -3.917  29.916  0.00  0.00    +0.000 A 
ATOM      2  C   UNL A   1     -26.187  -4.857  29.676  0.00  0.00    +0.000 A 
ATOM      3  C   UNL A   1     -25.743  -2.743  29.676  0.00  0.00    +0.000 A 
ATOM      4  C   UNL A   1     -24.486  -2.884  29.020  0.00  0.00    +0.000 A 
ATOM      5  C   UNL A   1     -24.110  -4.167  28.710  0.00  0.00    +0.000 A 
ATOM      6  C   UNL A   1     -24.923  -5.211  28.977  0.00  0.00    +0.000 A 
ENDROOT
BRANCH   4   7
ATOM      7  C   UNL A   1     -23.646  -1.729  28.764  0.00  0.00    +0.000 A 
ATOM      8  C   UNL A   1     -22.708  -1.507  29.227  0.00  0.00    +0.000 A 
ATOM      9  C   UNL A   1     -21.884  -0.241  29.138  0.00  0.00    +0.000 A 
ATOM     10  C   UNL A   1     -22.482   0.713  28.391  0.00  0.00    +0.000 A 
ATOM     11  C   UNL A   1     -23.742   0.558  27.784  0.00  0.00    +0.000 A 
ATOM     12  C   UNL A   1     -24.386  -0.734  27.985  0.00  0.00    +0.000 A 
ENDBRANCH   4   7
TORSDOF 1
ENDMDL
ENDMDL
