REMARK  Name = No_4733-gen_results/8p0m/2024-11-26-14-13-15/
REMARK  1 active torsions:
REMARK  status: ('A' for Active; 'I' for Inactive)
REMARK    1  A    between atoms: C_4  and  C_7
REMARK                            x       y       z     vdW  Elec       q    Type
REMARK                         _______ _______ _______ _____ _____    ______ ____
ROOT
ATOM      1  C   UNL A   1     -28.016  -0.814  28.878  0.00  0.00    +0.000 A 
ATOM      2  C   UNL A   1     -28.469  -0.785  29.829  0.00  0.00    +0.000 A 
ATOM      3  C   UNL A   1     -26.546  -0.876  28.850  0.00  0.00    +0.000 A 
ATOM      4  C   UNL A   1     -25.804  -1.032  30.057  0.00  0.00    +0.000 A 
ATOM      5  C   UNL A   1     -26.537  -1.039  31.217  0.00  0.00    +0.000 A 
ATOM      6  C   UNL A   1     -27.884  -0.953  31.186  0.00  0.00    +0.000 A 
ENDROOT
BRANCH   4   7
ATOM      7  C   UNL A   1     -24.355  -1.112  30.035  0.00  0.00    +0.000 A 
ATOM      8  C   UNL A   1     -23.708  -1.192  30.883  0.00  0.00    +0.000 A 
ATOM      9  C   UNL A   1     -22.199  -1.095  30.934  0.00  0.00    +0.000 A 
ATOM     10  C   UNL A   1     -21.656  -0.835  29.724  0.00  0.00    +0.000 A 
ATOM     11  C   UNL A   1     -22.411  -0.649  28.551  0.00  0.00    +0.000 A 
ATOM     12  C   UNL A   1     -23.855  -0.778  28.701  0.00  0.00    +0.000 A 
ENDBRANCH   4   7
TORSDOF 1
