REMARK  Name = No_4734-gen_results/8p0m/2024-11-26-14-13-15/
REMARK  3 active torsions:
REMARK  status: ('A' for Active; 'I' for Inactive)
REMARK    1  A    between atoms: C_3  and  C_10
REMARK    2  A    between atoms: C_5  and  C_7
REMARK    3  A    between atoms: C_14  and  C_16
REMARK                            x       y       z     vdW  Elec       q    Type
REMARK                         _______ _______ _______ _____ _____    ______ ____
ROOT
ATOM      1  C   UNL A   1     -28.016  -0.814  28.878  0.00  0.00    +0.000 A 
ATOM      2  C   UNL A   1     -27.064  -0.119  28.608  0.00  0.00    +0.000 A 
ATOM      3  C   UNL A   1     -26.972   0.714  27.506  0.00  0.00    +0.000 A 
ATOM      4  C   UNL A   1     -28.105   0.774  26.642  0.00  0.00    +0.007 A 
ATOM      5  C   UNL A   1     -29.204   0.118  27.048  0.00  0.00    +0.080 A 
ATOM      6  C   UNL A   1     -29.213  -0.609  28.128  0.00  0.00    +0.007 A 
ENDROOT
BRANCH   3   7
ATOM      7  C   UNL A   1     -25.656   1.402  27.135  0.00  0.00    +0.000 A 
ATOM      8  C   UNL A   1     -25.273   2.050  26.432  0.00  0.00    +0.000 A 
ATOM      9  C   UNL A   1     -23.907   2.658  26.280  0.00  0.00    +0.000 A 
ATOM     10  C   UNL A   1     -22.931   2.141  27.132  0.00  0.00    +0.007 A 
ATOM     11  C   UNL A   1     -23.280   1.136  27.991  0.00  0.00    +0.080 A 
ATOM     12  C   UNL A   1     -24.619   0.702  28.142  0.00  0.00    +0.007 A 
BRANCH  11  13
ATOM     13  C   UNL A   1     -22.236   0.592  28.910  0.00  0.00    +0.388 C 
ATOM     14  O   UNL A   1     -21.111   0.837  28.840  0.00  0.00    -0.241 OA
ATOM     15  O   UNL A   1     -22.650  -0.416  29.724  0.00  0.00    -0.241 OA
ENDBRANCH  11  13
ENDBRANCH   3   7
BRANCH   5  16
ATOM     16  C   UNL A   1     -30.371   0.233  26.138  0.00  0.00    +0.388 C 
ATOM     17  O   UNL A   1     -31.252  -0.404  26.304  0.00  0.00    -0.241 OA
ATOM     18  O   UNL A   1     -30.126   0.714  24.907  0.00  0.00    -0.241 OA
ENDBRANCH   5  16
TORSDOF 3
