MODEL 4734
MODEL 1
REMARK VINA RESULT:    -7.238      0.000      0.000
REMARK INTER + INTRA:          -9.054
REMARK INTER:                  -8.507
REMARK INTRA:                  -0.547
REMARK UNBOUND:                -0.547
REMARK  Name = No_4734-gen_results/8p0m/2024-11-26-14-13-15/
REMARK  3 active torsions:
REMARK  status: ('A' for Active; 'I' for Inactive)
REMARK    1  A    between atoms: C_3  and  C_10
REMARK    2  A    between atoms: C_5  and  C_7
REMARK    3  A    between atoms: C_14  and  C_16
REMARK                            x       y       z     vdW  Elec       q    Type
REMARK                         _______ _______ _______ _____ _____    ______ ____
ROOT
ATOM      1  C   UNL A   1     -25.808  -1.686  30.464  0.00  0.00    +0.000 A 
ATOM      2  C   UNL A   1     -24.980  -0.971  29.950  0.00  0.00    +0.000 A 
ATOM      3  C   UNL A   1     -23.951  -1.403  29.130  0.00  0.00    +0.000 A 
ATOM      4  C   UNL A   1     -23.889  -2.799  28.850  0.00  0.00    +0.007 A 
ATOM      5  C   UNL A   1     -24.908  -3.548  29.300  0.00  0.00    +0.080 A 
ATOM      6  C   UNL A   1     -25.862  -3.045  30.031  0.00  0.00    +0.007 A 
ENDROOT
BRANCH   3   7
ATOM      7  C   UNL A   1     -22.833  -0.455  28.689  0.00  0.00    +0.000 A 
ATOM      8  C   UNL A   1     -21.851  -0.234  28.908  0.00  0.00    +0.000 A 
ATOM      9  C   UNL A   1     -20.890   0.741  28.289  0.00  0.00    +0.000 A 
ATOM     10  C   UNL A   1     -21.453   1.623  27.366  0.00  0.00    +0.007 A 
ATOM     11  C   UNL A   1     -22.798   1.547  27.127  0.00  0.00    +0.080 A 
ATOM     12  C   UNL A   1     -23.606   0.522  27.675  0.00  0.00    +0.007 A 
BRANCH  11  13
ATOM     13  C   UNL A   1     -23.396   2.485  26.131  0.00  0.00    +0.388 C 
ATOM     14  O   UNL A   1     -24.449   2.949  26.220  0.00  0.00    -0.241 OA
ATOM     15  O   UNL A   1     -22.713   2.598  24.960  0.00  0.00    -0.241 OA
ENDBRANCH  11  13
ENDBRANCH   3   7
BRANCH   5  16
ATOM     16  C   UNL A   1     -24.822  -4.990  28.959  0.00  0.00    +0.388 C 
ATOM     17  O   UNL A   1     -25.277  -5.733  29.630  0.00  0.00    -0.241 OA
ATOM     18  O   UNL A   1     -23.808  -5.356  28.157  0.00  0.00    -0.241 OA
ENDBRANCH   5  16
TORSDOF 3
ENDMDL
ENDMDL
