MODEL 4735
MODEL 1
REMARK VINA RESULT:    -5.168      0.000      0.000
REMARK INTER + INTRA:          -5.507
REMARK INTER:                  -5.471
REMARK INTRA:                  -0.037
REMARK UNBOUND:                -0.037
REMARK  Name = No_4735-gen_results/8p0m/2024-11-26-14-13-15/
REMARK  1 active torsions:
REMARK  status: ('A' for Active; 'I' for Inactive)
REMARK    1  A    between atoms: C_2  and  C_7
REMARK                            x       y       z     vdW  Elec       q    Type
REMARK                         _______ _______ _______ _____ _____    ______ ____
ROOT
ATOM      1  C   UNL A   1     -10.293  -9.419  19.046  0.00  0.00    +0.007 A 
ATOM      2  C   UNL A   1      -9.702 -10.082  18.479  0.00  0.00    +0.080 A 
ATOM      3  C   UNL A   1      -9.710  -9.006  20.379  0.00  0.00    +0.000 A 
ATOM      4  C   UNL A   1      -8.396  -9.399  20.710  0.00  0.00    +0.000 A 
ATOM      5  C   UNL A   1      -8.320 -10.604  18.574  0.00  0.00    +0.007 A 
ATOM      6  C   UNL A   1      -7.748 -10.239  19.785  0.00  0.00    +0.000 A 
ENDROOT
BRANCH   2   7
ATOM      7  C   UNL A   1     -10.290 -10.526  17.052  0.00  0.00    +0.388 C 
ATOM      8  O   UNL A   1      -9.464 -10.960  16.170  0.00  0.00    -0.241 OA
ATOM      9  O   UNL A   1     -11.509 -10.522  16.930  0.00  0.00    -0.241 OA
ENDBRANCH   2   7
TORSDOF 1
ENDMDL
ENDMDL
