MODEL 4736
MODEL 1
REMARK VINA RESULT:    -6.726      0.000      0.000
REMARK INTER + INTRA:          -7.444
REMARK INTER:                  -7.120
REMARK INTRA:                  -0.324
REMARK UNBOUND:                -0.324
REMARK  Name = No_4736-gen_results/8p0m/2024-11-26-14-13-15/
REMARK  1 active torsions:
REMARK  status: ('A' for Active; 'I' for Inactive)
REMARK    1  A    between atoms: C_3  and  C_7
REMARK                            x       y       z     vdW  Elec       q    Type
REMARK                         _______ _______ _______ _____ _____    ______ ____
ROOT
ATOM      1  C   UNL A   1     -23.779   0.550  27.552  0.00  0.00    +0.011 A 
ATOM      2  C   UNL A   1     -24.403  -0.419  27.918  0.00  0.00    +0.001 A 
ATOM      3  C   UNL A   1     -23.886  -1.391  28.773  0.00  0.00    +0.000 A 
ATOM      4  C   UNL A   1     -22.508  -1.284  29.214  0.00  0.00    +0.001 A 
ATOM      5  C   UNL A   1     -21.821  -0.162  28.753  0.00  0.00    +0.011 A 
ATOM      6  C   UNL A   1     -22.456   0.587  28.057  0.00  0.00    +0.058 A 
ATOM      7 CL   UNL A   1     -21.466   2.025  27.416  0.00  0.00    -0.082 Cl
ENDROOT
BRANCH   3   8
ATOM      8  C   UNL A   1     -24.603  -2.633  29.254  0.00  0.00    +0.000 A 
ATOM      9  C   UNL A   1     -25.874  -2.664  29.561  0.00  0.00    +0.000 A 
ATOM     10  C   UNL A   1     -26.516  -3.850  29.993  0.00  0.00    +0.000 A 
ATOM     11  C   UNL A   1     -25.983  -5.008  29.392  0.00  0.00    +0.000 A 
ATOM     12  C   UNL A   1     -24.050  -3.935  28.910  0.00  0.00    +0.000 A 
ATOM     13  C   UNL A   1     -24.739  -5.077  29.055  0.00  0.00    +0.000 A 
ENDBRANCH   3   8
TORSDOF 1
ENDMDL
ENDMDL
