MODEL 4737
MODEL 1
REMARK VINA RESULT:    -6.189      0.000      0.000
REMARK INTER + INTRA:          -7.688
REMARK INTER:                  -6.913
REMARK INTRA:                  -0.775
REMARK UNBOUND:                -0.775
REMARK  Name = No_4737-gen_results/8p0m/2024-11-26-14-13-15/
REMARK  2 active torsions:
REMARK  status: ('A' for Active; 'I' for Inactive)
REMARK    1  A    between atoms: C_3  and  C_7
REMARK    2  A    between atoms: C_8  and  C_9
REMARK                            x       y       z     vdW  Elec       q    Type
REMARK                         _______ _______ _______ _____ _____    ______ ____
ROOT
ATOM      1  C   UNL A   1     -24.819  -1.286  28.472  0.00  0.00    +0.000 C 
ATOM      2  C   UNL A   1     -24.540  -0.344  29.111  0.00  0.00    +0.000 C 
ENDROOT
BRANCH   1   5
ATOM      3  C   UNL A   1     -26.081  -3.251  29.532  0.00  0.00    +0.000 A 
ATOM      4  C   UNL A   1     -26.121  -4.291  29.698  0.00  0.00    +0.000 A 
ATOM      5  C   UNL A   1     -24.975  -2.740  28.818  0.00  0.00    +0.000 A 
ATOM      6  C   UNL A   1     -23.963  -3.557  28.355  0.00  0.00    +0.000 A 
ATOM      7  C   UNL A   1     -25.190  -5.370  29.314  0.00  0.00    +0.000 A 
ATOM      8  C   UNL A   1     -24.115  -4.923  28.628  0.00  0.00    +0.000 A 
ENDBRANCH   1   5
BRANCH   2   9
ATOM      9  C   UNL A   1     -24.173  -0.584  30.515  0.00  0.00    +0.000 A 
ATOM     10  C   UNL A   1     -23.027  -0.950  30.946  0.00  0.00    +0.000 A 
ATOM     11  C   UNL A   1     -22.849  -1.171  32.349  0.00  0.00    +0.000 A 
ATOM     12  C   UNL A   1     -23.950  -1.030  33.231  0.00  0.00    +0.000 A 
ATOM     13  C   UNL A   1     -25.312  -0.311  31.467  0.00  0.00    +0.000 A 
ATOM     14  C   UNL A   1     -25.164  -0.628  32.779  0.00  0.00    +0.000 A 
ENDBRANCH   2   9
TORSDOF 2
ENDMDL
ENDMDL
