REMARK  Name = No_4737-gen_results/8p0m/2024-11-26-14-13-15/
REMARK  2 active torsions:
REMARK  status: ('A' for Active; 'I' for Inactive)
REMARK    1  A    between atoms: C_3  and  C_7
REMARK    2  A    between atoms: C_8  and  C_9
REMARK                            x       y       z     vdW  Elec       q    Type
REMARK                         _______ _______ _______ _____ _____    ______ ____
ROOT
ATOM      1  C   UNL A   1     -26.388   0.291  27.233  0.00  0.00    +0.000 C 
ATOM      2  C   UNL A   1     -26.494   0.973  26.286  0.00  0.00    +0.000 C 
ENDROOT
BRANCH   1   5
ATOM      3  C   UNL A   1     -28.016  -0.814  28.878  0.00  0.00    +0.000 A 
ATOM      4  C   UNL A   1     -28.469  -0.785  29.829  0.00  0.00    +0.000 A 
ATOM      5  C   UNL A   1     -27.136   0.236  28.535  0.00  0.00    +0.000 A 
ATOM      6  C   UNL A   1     -26.875   1.282  29.398  0.00  0.00    +0.000 A 
ATOM      7  C   UNL A   1     -28.361   0.199  30.924  0.00  0.00    +0.000 A 
ATOM      8  C   UNL A   1     -27.528   1.223  30.636  0.00  0.00    +0.000 A 
ENDBRANCH   1   5
BRANCH   2   9
ATOM      9  C   UNL A   1     -27.476   2.065  26.365  0.00  0.00    +0.000 A 
ATOM     10  C   UNL A   1     -28.747   1.939  26.402  0.00  0.00    +0.000 A 
ATOM     11  C   UNL A   1     -29.563   3.114  26.445  0.00  0.00    +0.000 A 
ATOM     12  C   UNL A   1     -28.957   4.395  26.398  0.00  0.00    +0.000 A 
ATOM     13  C   UNL A   1     -26.827   3.425  26.442  0.00  0.00    +0.000 A 
ATOM     14  C   UNL A   1     -27.608   4.533  26.373  0.00  0.00    +0.000 A 
ENDBRANCH   2   9
TORSDOF 2
