REMARK  Name = No_4738-gen_results/8p0m/2024-11-26-14-13-15/
REMARK  0 active torsions:
REMARK  status: ('A' for Active; 'I' for Inactive)
REMARK                            x       y       z     vdW  Elec       q    Type
REMARK                         _______ _______ _______ _____ _____    ______ ____
ROOT
ATOM      1  C   UNL A   1     -28.016  -0.814  28.878  0.00  0.00    +0.013 A 
ATOM      2  C   UNL A   1     -27.064  -0.119  28.608  0.00  0.00    +0.058 A 
ATOM      3  C   UNL A   1     -25.792  -0.430  29.076  0.00  0.00    +0.011 A 
ATOM      4  C   UNL A   1     -25.576  -1.565  29.936  0.00  0.00    +0.001 A 
ATOM      5  C   UNL A   1     -26.735  -2.300  30.217  0.00  0.00    +0.003 A 
ATOM      6  C   UNL A   1     -27.918  -1.954  29.763  0.00  0.00    +0.020 A 
ATOM      7 CL   UNL A   1     -27.146   1.292  27.641  0.00  0.00    -0.082 Cl
ATOM      8  C   UNL A   1     -29.068  -2.788  30.181  0.00  0.00    +0.099 A 
ATOM      9  N   UNL A   1     -28.957  -4.077  30.436  0.00  0.00    -0.242 NA
ATOM     10  C   UNL A   1     -27.849  -4.615  30.310  0.00  0.00    +0.099 A 
ATOM     11  C   UNL A   1     -26.598  -3.856  30.341  0.00  0.00    +0.021 A 
ENDROOT
TORSDOF 0
