REMARK  Name = No_4739-gen_results/8p0m/2024-11-26-14-13-15/
REMARK  4 active torsions:
REMARK  status: ('A' for Active; 'I' for Inactive)
REMARK    1  A    between atoms: C_2  and  C_10
REMARK    2  A    between atoms: C_6  and  C_7
REMARK    3  A    between atoms: C_10  and  C_11
REMARK    4  A    between atoms: C_10  and  C_17
REMARK                            x       y       z     vdW  Elec       q    Type
REMARK                         _______ _______ _______ _____ _____    ______ ____
ROOT
ATOM      1  C   UNL A   1     -27.286   1.114  27.834  0.00  0.00    +0.066 C 
ENDROOT
BRANCH   1   3
ATOM      2  C   UNL A   1     -28.016  -0.814  28.878  0.00  0.00    +0.003 A 
ATOM      3  C   UNL A   1     -27.064  -0.119  28.608  0.00  0.00    -0.014 A 
ATOM      4  C   UNL A   1     -25.792  -0.430  29.076  0.00  0.00    -0.004 A 
ATOM      5  C   UNL A   1     -25.576  -1.565  29.936  0.00  0.00    -0.000 A 
ATOM      6  C   UNL A   1     -26.735  -2.300  30.217  0.00  0.00    +0.007 A 
ATOM      7  C   UNL A   1     -27.918  -1.954  29.763  0.00  0.00    +0.080 A 
BRANCH   7   8
ATOM      8  C   UNL A   1     -29.073  -2.784  30.178  0.00  0.00    +0.388 C 
ATOM      9  O   UNL A   1     -29.002  -3.985  30.235  0.00  0.00    -0.241 OA
ATOM     10  O   UNL A   1     -30.181  -2.190  30.460  0.00  0.00    -0.241 OA
ENDBRANCH   7   8
ENDBRANCH   1   3
BRANCH   1  11
ATOM     11  C   UNL A   1     -27.355   1.013  26.449  0.00  0.00    -0.014 A 
ATOM     12  C   UNL A   1     -27.105  -0.096  25.830  0.00  0.00    -0.004 A 
ATOM     13  C   UNL A   1     -27.177  -0.163  24.363  0.00  0.00    -0.000 A 
ATOM     14  C   UNL A   1     -27.880   0.829  23.761  0.00  0.00    -0.000 A 
ATOM     15  C   UNL A   1     -28.007   2.014  25.650  0.00  0.00    -0.004 A 
ATOM     16  C   UNL A   1     -28.224   1.944  24.368  0.00  0.00    -0.000 A 
ENDBRANCH   1  11
BRANCH   1  17
ATOM     17  C   UNL A   1     -27.416   2.380  28.568  0.00  0.00    -0.022 C 
ATOM     18  C   UNL A   1     -28.537   2.936  28.841  0.00  0.00    -0.030 C 
ATOM     19  C   UNL A   1     -28.611   4.129  29.574  0.00  0.00    +0.030 C 
ENDBRANCH   1  17
TORSDOF 4
