MODEL 4739
MODEL 1
REMARK VINA RESULT:    -7.597      0.000      0.000
REMARK INTER + INTRA:         -10.210
REMARK INTER:                  -9.374
REMARK INTRA:                  -0.836
REMARK UNBOUND:                -0.836
REMARK  Name = No_4739-gen_results/8p0m/2024-11-26-14-13-15/
REMARK  4 active torsions:
REMARK  status: ('A' for Active; 'I' for Inactive)
REMARK    1  A    between atoms: C_2  and  C_10
REMARK    2  A    between atoms: C_6  and  C_7
REMARK    3  A    between atoms: C_10  and  C_11
REMARK    4  A    between atoms: C_10  and  C_17
REMARK                            x       y       z     vdW  Elec       q    Type
REMARK                         _______ _______ _______ _____ _____    ______ ____
ROOT
ATOM      1  C   UNL A   1     -24.308  -1.257  30.157  0.00  0.00    +0.066 C 
ENDROOT
BRANCH   1   3
ATOM      2  C   UNL A   1     -23.839   0.492  28.722  0.00  0.00    +0.003 A 
ATOM      3  C   UNL A   1     -23.382  -0.402  29.397  0.00  0.00    -0.014 A 
ATOM      4  C   UNL A   1     -22.018  -0.671  29.405  0.00  0.00    -0.004 A 
ATOM      5  C   UNL A   1     -21.110   0.077  28.573  0.00  0.00    -0.000 A 
ATOM      6  C   UNL A   1     -21.726   1.076  27.806  0.00  0.00    +0.007 A 
ATOM      7  C   UNL A   1     -23.024   1.279  27.822  0.00  0.00    +0.080 A 
BRANCH   7   8
ATOM      8  C   UNL A   1     -23.557   2.329  26.924  0.00  0.00    +0.388 C 
ATOM      9  O   UNL A   1     -23.451   2.253  25.727  0.00  0.00    -0.241 OA
ATOM     10  O   UNL A   1     -24.125   3.356  27.456  0.00  0.00    -0.241 OA
ENDBRANCH   7   8
ENDBRANCH   1   3
BRANCH   1  11
ATOM     11  C   UNL A   1     -24.621  -2.507  29.636  0.00  0.00    -0.014 A 
ATOM     12  C   UNL A   1     -23.729  -3.257  29.072  0.00  0.00    -0.004 A 
ATOM     13  C   UNL A   1     -24.099  -4.569  28.521  0.00  0.00    -0.000 A 
ATOM     14  C   UNL A   1     -25.263  -5.094  28.979  0.00  0.00    -0.000 A 
ATOM     15  C   UNL A   1     -25.849  -3.178  29.966  0.00  0.00    -0.004 A 
ATOM     16  C   UNL A   1     -26.170  -4.393  29.624  0.00  0.00    -0.000 A 
ENDBRANCH   1  11
BRANCH   1  17
ATOM     17  C   UNL A   1     -24.853  -0.739  31.420  0.00  0.00    -0.022 C 
ATOM     18  C   UNL A   1     -24.356  -0.996  32.572  0.00  0.00    -0.030 C 
ATOM     19  C   UNL A   1     -24.892  -0.450  33.747  0.00  0.00    +0.030 C 
ENDBRANCH   1  17
TORSDOF 4
ENDMDL
ENDMDL
