MODEL 473
MODEL 1
REMARK VINA RESULT:    -6.502      0.000      0.000
REMARK INTER + INTRA:          -7.294
REMARK INTER:                  -6.882
REMARK INTRA:                  -0.412
REMARK UNBOUND:                -0.412
REMARK  Name = No_473-gen_results/8p0m/2024-11-26-14-13-15/
REMARK  1 active torsions:
REMARK  status: ('A' for Active; 'I' for Inactive)
REMARK    1  A    between atoms: C_3  and  C_7
REMARK                            x       y       z     vdW  Elec       q    Type
REMARK                         _______ _______ _______ _____ _____    ______ ____
ROOT
ATOM      1  C   UNL A   1     -25.772  -2.654  29.625  0.00  0.00    +0.000 A 
ATOM      2  C   UNL A   1     -26.289  -3.546  29.846  0.00  0.00    +0.000 A 
ATOM      3  C   UNL A   1     -24.479  -2.762  29.068  0.00  0.00    +0.000 A 
ATOM      4  C   UNL A   1     -24.013  -3.761  28.741  0.00  0.00    +0.000 A 
ATOM      5  C   UNL A   1     -24.651  -5.022  28.945  0.00  0.00    +0.000 A 
ATOM      6  C   UNL A   1     -25.906  -4.935  29.506  0.00  0.00    +0.000 A 
ENDROOT
BRANCH   3   7
ATOM      7  C   UNL A   1     -23.705  -1.453  28.761  0.00  0.00    +0.000 A 
ATOM      8  C   UNL A   1     -22.580  -1.238  29.149  0.00  0.00    +0.000 A 
ATOM      9  C   UNL A   1     -21.962   0.044  28.929  0.00  0.00    +0.000 A 
ATOM     10  C   UNL A   1     -22.669   0.941  28.078  0.00  0.00    +0.000 A 
ATOM     11  C   UNL A   1     -24.381  -0.481  27.885  0.00  0.00    +0.000 A 
ATOM     12  C   UNL A   1     -23.806   0.640  27.537  0.00  0.00    +0.000 A 
ENDBRANCH   3   7
TORSDOF 1
ENDMDL
ENDMDL
