REMARK  Name = No_4740-gen_results/8p0m/2024-11-26-14-13-15/
REMARK  10 active torsions:
REMARK  status: ('A' for Active; 'I' for Inactive)
REMARK    1  A    between atoms: C_2  and  O_11
REMARK    2  A    between atoms: C_3  and  C_7
REMARK    3  A    between atoms: O_11  and  C_12
REMARK    4  A    between atoms: C_12  and  C_13
REMARK    5  A    between atoms: N_15  and  C_16
REMARK    6  A    between atoms: N_15  and  C_25
REMARK    7  A    between atoms: C_16  and  C_18
REMARK    8  A    between atoms: C_18  and  O_19
REMARK    9  A    between atoms: O_19  and  C_20
REMARK   10  A    between atoms: C_21  and  C_22
REMARK                            x       y       z     vdW  Elec       q    Type
REMARK                         _______ _______ _______ _____ _____    ______ ____
ROOT
ATOM      1  C   UNL A   1     -31.233  -2.242  31.294  0.00  0.00    +0.329 C 
ATOM      2  O   UNL A   1     -32.402  -1.961  31.434  0.00  0.00    -0.262 OA
ATOM      3  N   UNL A   1     -30.750  -3.409  31.925  0.00  0.00    -0.247 N 
ENDROOT
BRANCH   3   4
ATOM      4  C   UNL A   1     -31.565  -3.930  33.035  0.00  0.00    +0.054 A 
ATOM      5  C   UNL A   1     -31.841  -3.135  34.008  0.00  0.00    +0.015 A 
ATOM      6  C   UNL A   1     -32.521  -3.583  34.966  0.00  0.00    +0.001 A 
ATOM      7  C   UNL A   1     -32.916  -4.938  35.014  0.00  0.00    +0.000 A 
ATOM      8  C   UNL A   1     -32.557  -5.768  33.978  0.00  0.00    +0.001 A 
ATOM      9  C   UNL A   1     -31.810  -5.247  32.974  0.00  0.00    +0.015 A 
ENDBRANCH   3   4
BRANCH   1  10
ATOM     10  C   UNL A   1     -30.590  -1.837  30.145  0.00  0.00    +0.401 C 
ATOM     11  O   UNL A   1     -31.129  -1.425  29.112  0.00  0.00    -0.239 OA
BRANCH  10  12
ATOM     12  O   UNL A   1     -29.354  -1.922  30.176  0.00  0.00    -0.418 OA
BRANCH  12  14
ATOM     13  C   UNL A   1     -28.016  -0.814  28.878  0.00  0.00    +0.042 A 
ATOM     14  C   UNL A   1     -28.469  -0.785  29.829  0.00  0.00    +0.149 A 
ATOM     15  C   UNL A   1     -27.087   0.290  28.638  0.00  0.00    +0.074 A 
ATOM     16  C   UNL A   1     -26.832   1.249  29.587  0.00  0.00    +0.004 A 
ATOM     17  C   UNL A   1     -28.391   0.080  31.006  0.00  0.00    +0.038 A 
ATOM     18  C   UNL A   1     -27.494   1.152  30.784  0.00  0.00    +0.003 A 
BRANCH  15  19
ATOM     19  C   UNL A   1     -26.317   0.399  27.365  0.00  0.00    +0.419 C 
ATOM     20  F   UNL A   1     -25.456  -0.360  27.315  0.00  0.00    -0.166 F 
ATOM     21  F   UNL A   1     -27.205   0.231  26.318  0.00  0.00    -0.166 F 
ATOM     22  F   UNL A   1     -25.818   1.669  27.094  0.00  0.00    -0.166 F 
ENDBRANCH  15  19
ENDBRANCH  12  14
ENDBRANCH  10  12
ENDBRANCH   1  10
BRANCH   3  23
ATOM     23  C   UNL A   1     -29.516  -3.988  31.686  0.00  0.00    +0.132 C 
BRANCH  23  24
ATOM     24  C   UNL A   1     -29.659  -5.542  31.866  0.00  0.00    +0.182 C 
BRANCH  24  25
ATOM     25  O   UNL A   1     -29.465  -6.060  30.837  0.00  0.00    -0.282 OA
BRANCH  25  26
ATOM     26  C   UNL A   1     -30.483  -6.158  29.940  0.00  0.00    +0.067 C 
ATOM     27  C   UNL A   1     -31.054  -5.934  28.895  0.00  0.00    +0.050 C 
BRANCH  27  28
ATOM     28  C   UNL A   1     -31.657  -5.655  27.710  0.00  0.00    +0.432 C 
ATOM     29  O   UNL A   1     -31.636  -6.342  26.881  0.00  0.00    -0.231 OA
ATOM     30  O   UNL A   1     -32.290  -4.457  27.629  0.00  0.00    -0.231 OA
ENDBRANCH  27  28
ENDBRANCH  25  26
ENDBRANCH  24  25
ENDBRANCH  23  24
ENDBRANCH   3  23
TORSDOF 10
