MODEL 4740
MODEL 1
REMARK VINA RESULT:    -7.058      0.000      0.000
REMARK INTER + INTRA:         -12.193
REMARK INTER:                 -11.185
REMARK INTRA:                  -1.008
REMARK UNBOUND:                -1.008
REMARK  Name = No_4740-gen_results/8p0m/2024-11-26-14-13-15/
REMARK  10 active torsions:
REMARK  status: ('A' for Active; 'I' for Inactive)
REMARK    1  A    between atoms: C_2  and  O_11
REMARK    2  A    between atoms: C_3  and  C_7
REMARK    3  A    between atoms: O_11  and  C_12
REMARK    4  A    between atoms: C_12  and  C_13
REMARK    5  A    between atoms: N_15  and  C_16
REMARK    6  A    between atoms: N_15  and  C_25
REMARK    7  A    between atoms: C_16  and  C_18
REMARK    8  A    between atoms: C_18  and  O_19
REMARK    9  A    between atoms: O_19  and  C_20
REMARK   10  A    between atoms: C_21  and  C_22
REMARK                            x       y       z     vdW  Elec       q    Type
REMARK                         _______ _______ _______ _____ _____    ______ ____
ROOT
ATOM      1  C   UNL A   1     -26.016  -0.604  28.459  0.00  0.00    +0.329 C 
ATOM      2  O   UNL A   1     -25.587  -1.010  27.403  0.00  0.00    -0.262 OA
ATOM      3  N   UNL A   1     -25.822  -1.403  29.607  0.00  0.00    -0.247 N 
ENDROOT
BRANCH   3   4
ATOM      4  C   UNL A   1     -25.524  -2.824  29.363  0.00  0.00    +0.054 A 
ATOM      5  C   UNL A   1     -26.383  -3.698  29.756  0.00  0.00    +0.015 A 
ATOM      6  C   UNL A   1     -26.123  -4.913  29.566  0.00  0.00    +0.001 A 
ATOM      7  C   UNL A   1     -24.894  -5.320  29.002  0.00  0.00    +0.000 A 
ATOM      8  C   UNL A   1     -23.981  -4.357  28.642  0.00  0.00    +0.001 A 
ATOM      9  C   UNL A   1     -24.296  -3.060  28.880  0.00  0.00    +0.015 A 
ENDBRANCH   3   4
BRANCH   1  10
ATOM     10  C   UNL A   1     -26.118   0.757  28.651  0.00  0.00    +0.401 C 
ATOM     11  O   UNL A   1     -27.165   1.400  28.781  0.00  0.00    -0.239 OA
BRANCH  10  12
ATOM     12  O   UNL A   1     -25.039   1.367  28.673  0.00  0.00    -0.418 OA
BRANCH  12  14
ATOM     13  C   UNL A   1     -25.016   3.418  27.971  0.00  0.00    +0.042 A 
ATOM     14  C   UNL A   1     -24.714   2.444  27.709  0.00  0.00    +0.149 A 
ATOM     15  C   UNL A   1     -24.745   4.415  26.935  0.00  0.00    +0.074 A 
ATOM     16  C   UNL A   1     -24.168   4.081  25.735  0.00  0.00    +0.004 A 
ATOM     17  C   UNL A   1     -24.100   1.811  26.542  0.00  0.00    +0.038 A 
ATOM     18  C   UNL A   1     -23.833   2.767  25.533  0.00  0.00    +0.003 A 
BRANCH  15  19
ATOM     19  C   UNL A   1     -25.138   5.844  27.105  0.00  0.00    +0.419 C 
ATOM     20  F   UNL A   1     -24.937   6.223  28.171  0.00  0.00    -0.166 F 
ATOM     21  F   UNL A   1     -24.450   6.586  26.162  0.00  0.00    -0.166 F 
ATOM     22  F   UNL A   1     -26.456   6.129  26.764  0.00  0.00    -0.166 F 
ENDBRANCH  15  19
ENDBRANCH  12  14
ENDBRANCH  10  12
ENDBRANCH   1  10
BRANCH   3  23
ATOM     23  C   UNL A   1     -26.045  -0.991  30.909  0.00  0.00    +0.132 C 
BRANCH  23  24
ATOM     24  C   UNL A   1     -24.719  -1.200  31.725  0.00  0.00    +0.182 C 
BRANCH  24  25
ATOM     25  O   UNL A   1     -24.153  -0.181  31.792  0.00  0.00    -0.282 OA
BRANCH  25  26
ATOM     26  C   UNL A   1     -23.007  -0.009  31.079  0.00  0.00    +0.067 C 
ATOM     27  C   UNL A   1     -22.306  -0.067  30.093  0.00  0.00    +0.050 C 
BRANCH  27  28
ATOM     28  C   UNL A   1     -21.556  -0.152  28.963  0.00  0.00    +0.432 C 
ATOM     29  O   UNL A   1     -21.576   0.611  28.204  0.00  0.00    -0.231 OA
ATOM     30  O   UNL A   1     -20.779  -1.258  28.843  0.00  0.00    -0.231 OA
ENDBRANCH  27  28
ENDBRANCH  25  26
ENDBRANCH  24  25
ENDBRANCH  23  24
ENDBRANCH   3  23
TORSDOF 10
ENDMDL
ENDMDL
