MODEL 4741
MODEL 1
REMARK VINA RESULT:    -6.912      0.000      0.000
REMARK INTER + INTRA:          -8.833
REMARK INTER:                  -8.125
REMARK INTRA:                  -0.709
REMARK UNBOUND:                -0.709
REMARK  Name = No_4741-gen_results/8p0m/2024-11-26-14-13-15/
REMARK  3 active torsions:
REMARK  status: ('A' for Active; 'I' for Inactive)
REMARK    1  A    between atoms: C_2  and  C_7
REMARK    2  A    between atoms: C_7  and  C_8
REMARK    3  A    between atoms: C_7  and  C_14
REMARK                            x       y       z     vdW  Elec       q    Type
REMARK                         _______ _______ _______ _____ _____    ______ ____
ROOT
ATOM      1  C   UNL A   1     -23.962  -1.251  29.507  0.00  0.00    +0.148 C 
ENDROOT
BRANCH   1   3
ATOM      2  C   UNL A   1     -23.673   0.615  28.028  0.00  0.00    -0.003 A 
ATOM      3  C   UNL A   1     -23.191  -0.235  28.741  0.00  0.00    -0.008 A 
ATOM      4  C   UNL A   1     -21.815  -0.324  28.923  0.00  0.00    -0.003 A 
ATOM      5  C   UNL A   1     -20.918   0.565  28.232  0.00  0.00    -0.000 A 
ATOM      6  C   UNL A   1     -21.558   1.502  27.410  0.00  0.00    -0.000 A 
ATOM      7  C   UNL A   1     -22.863   1.533  27.259  0.00  0.00    -0.000 A 
ENDBRANCH   1   3
BRANCH   1   8
ATOM      8  C   UNL A   1     -24.481  -2.290  29.131  0.00  0.00    -0.008 A 
ATOM      9  C   UNL A   1     -25.935  -2.526  29.538  0.00  0.00    -0.003 A 
ATOM     10  C   UNL A   1     -26.416  -3.589  29.948  0.00  0.00    -0.000 A 
ATOM     11  C   UNL A   1     -25.764  -4.823  29.426  0.00  0.00    -0.000 A 
ATOM     12  C   UNL A   1     -24.511  -4.709  28.884  0.00  0.00    -0.000 A 
ATOM     13  C   UNL A   1     -23.830  -3.491  28.836  0.00  0.00    -0.003 A 
ENDBRANCH   1   8
BRANCH   1  14
ATOM     14  C   UNL A   1     -23.928  -0.994  30.975  0.00  0.00    +0.372 C 
ATOM     15  O   UNL A   1     -23.317  -1.586  31.770  0.00  0.00    -0.245 OA
ATOM     16  O   UNL A   1     -24.562   0.246  31.310  0.00  0.00    -0.245 OA
ENDBRANCH   1  14
TORSDOF 3
ENDMDL
ENDMDL
