REMARK  Name = No_4742-gen_results/8p0m/2024-11-26-14-13-15/
REMARK  1 active torsions:
REMARK  status: ('A' for Active; 'I' for Inactive)
REMARK    1  A    between atoms: C_4  and  C_7
REMARK                            x       y       z     vdW  Elec       q    Type
REMARK                         _______ _______ _______ _____ _____    ______ ____
ROOT
ATOM      1  C   UNL A   1     -24.392  -1.740  29.564  0.00  0.00    +0.250 C 
ATOM      2  N   UNL A   1     -23.448  -0.800  29.510  0.00  0.00    -0.261 N 
ATOM      3  C   UNL A   1     -22.417  -0.749  28.692  0.00  0.00    +0.097 C 
ATOM      4  C   UNL A   1     -21.749   0.502  28.603  0.00  0.00    +0.040 C 
ATOM      5  C   UNL A   1     -23.594   0.408  30.320  0.00  0.00    +0.186 C 
ATOM      6  N   UNL A   1     -23.000   1.519  30.128  0.00  0.00    -0.197 NA
ATOM      7  C   UNL A   1     -21.942   1.568  29.392  0.00  0.00    +0.092 C 
ATOM      8  O   UNL A   1     -24.014  -2.922  29.439  0.00  0.00    -0.270 OA
ENDROOT
BRANCH   1  12
ATOM      9  C   UNL A   1     -28.016  -0.814  28.878  0.00  0.00    +0.000 A 
ATOM     10  C   UNL A   1     -28.469  -0.785  29.829  0.00  0.00    +0.000 A 
ATOM     11  C   UNL A   1     -26.603  -1.060  28.538  0.00  0.00    +0.004 A 
ATOM     12  C   UNL A   1     -25.797  -1.449  29.727  0.00  0.00    +0.054 A 
ATOM     13  C   UNL A   1     -26.428  -1.541  30.983  0.00  0.00    +0.004 A 
ATOM     14  C   UNL A   1     -27.756  -1.244  31.075  0.00  0.00    +0.000 A 
ENDBRANCH   1  12
TORSDOF 1
