MODEL 4742
MODEL 1
REMARK VINA RESULT:    -6.157      0.000      0.000
REMARK INTER + INTRA:          -6.673
REMARK INTER:                  -6.517
REMARK INTRA:                  -0.156
REMARK UNBOUND:                -0.156
REMARK  Name = No_4742-gen_results/8p0m/2024-11-26-14-13-15/
REMARK  1 active torsions:
REMARK  status: ('A' for Active; 'I' for Inactive)
REMARK    1  A    between atoms: C_4  and  C_7
REMARK                            x       y       z     vdW  Elec       q    Type
REMARK                         _______ _______ _______ _____ _____    ______ ____
ROOT
ATOM      1  C   UNL A   1     -24.306  -1.205  29.467  0.00  0.00    +0.250 C 
ATOM      2  N   UNL A   1     -24.312  -0.344  28.449  0.00  0.00    -0.261 N 
ATOM      3  C   UNL A   1     -23.417   0.583  28.181  0.00  0.00    +0.097 C 
ATOM      4  C   UNL A   1     -23.466   1.144  26.876  0.00  0.00    +0.040 C 
ATOM      5  C   UNL A   1     -25.318  -0.487  27.397  0.00  0.00    +0.186 C 
ATOM      6  N   UNL A   1     -25.251  -0.001  26.221  0.00  0.00    -0.197 NA
ATOM      7  C   UNL A   1     -24.433   0.962  25.965  0.00  0.00    +0.092 C 
ATOM      8  O   UNL A   1     -23.955  -0.758  30.577  0.00  0.00    -0.270 OA
ENDROOT
BRANCH   1  12
ATOM      9  C   UNL A   1     -26.148  -4.527  29.638  0.00  0.00    +0.000 A 
ATOM     10  C   UNL A   1     -25.469  -5.230  29.243  0.00  0.00    +0.000 A 
ATOM     11  C   UNL A   1     -25.949  -3.086  29.874  0.00  0.00    +0.004 A 
ATOM     12  C   UNL A   1     -24.651  -2.601  29.332  0.00  0.00    +0.054 A 
ATOM     13  C   UNL A   1     -23.794  -3.512  28.683  0.00  0.00    +0.004 A 
ATOM     14  C   UNL A   1     -24.171  -4.820  28.596  0.00  0.00    +0.000 A 
ENDBRANCH   1  12
TORSDOF 1
ENDMDL
ENDMDL
