REMARK  Name = No_4743-gen_results/8p0m/2024-11-26-14-13-15/
REMARK  2 active torsions:
REMARK  status: ('A' for Active; 'I' for Inactive)
REMARK    1  A    between atoms: C_2  and  C_5
REMARK    2  A    between atoms: C_16  and  C_17
REMARK                            x       y       z     vdW  Elec       q    Type
REMARK                         _______ _______ _______ _____ _____    ______ ____
ROOT
ATOM      1  C   UNL A   1     -28.016  -0.814  28.878  0.00  0.00    +0.008 A 
ATOM      2  C   UNL A   1     -28.469  -0.785  29.829  0.00  0.00    +0.080 A 
ATOM      3  C   UNL A   1     -28.182   0.428  28.113  0.00  0.00    +0.014 A 
ATOM      4  C   UNL A   1     -28.984   1.415  28.515  0.00  0.00    -0.016 A 
ATOM      5  C   UNL A   1     -29.561   1.293  29.742  0.00  0.00    -0.004 A 
ATOM      6  C   UNL A   1     -29.320   0.165  30.445  0.00  0.00    +0.006 A 
ATOM      7  C   UNL A   1     -27.447   0.499  26.747  0.00  0.00    +0.081 A 
ATOM      8  C   UNL A   1     -28.009   0.876  25.626  0.00  0.00    +0.017 A 
ATOM      9  C   UNL A   1     -29.349   1.228  25.648  0.00  0.00    -0.003 C 
ATOM     10  C   UNL A   1     -30.094   1.348  26.614  0.00  0.00    -0.021 C 
ATOM     11  C   UNL A   1     -29.844   1.621  27.833  0.00  0.00    +0.052 C 
ATOM     12  N   UNL A   1     -26.184  -0.111  26.770  0.00  0.00    -0.245 NA
ATOM     13  C   UNL A   1     -25.325   0.367  25.872  0.00  0.00    +0.081 A 
ATOM     14  C   UNL A   1     -27.199   1.088  24.475  0.00  0.00    +0.003 A 
ATOM     15  C   UNL A   1     -25.863   1.406  24.915  0.00  0.00    +0.019 A 
ENDROOT
BRANCH  13  16
ATOM     16  C   UNL A   1     -23.930   0.561  26.328  0.00  0.00    +0.018 A 
ATOM     17  C   UNL A   1     -23.430   1.917  26.160  0.00  0.00    +0.002 A 
ATOM     18  C   UNL A   1     -22.194   2.193  26.755  0.00  0.00    +0.000 A 
ATOM     19  C   UNL A   1     -21.711   1.337  27.844  0.00  0.00    +0.000 A 
ATOM     20  C   UNL A   1     -22.462   0.205  28.160  0.00  0.00    +0.000 A 
ATOM     21  C   UNL A   1     -23.576  -0.076  27.511  0.00  0.00    +0.002 A 
ENDBRANCH  13  16
BRANCH   2  22
ATOM     22  C   UNL A   1     -28.337  -2.048  30.787  0.00  0.00    +0.388 C 
ATOM     23  O   UNL A   1     -28.943  -3.035  30.731  0.00  0.00    -0.241 OA
ATOM     24  O   UNL A   1     -27.219  -2.057  31.595  0.00  0.00    -0.241 OA
ENDBRANCH   2  22
TORSDOF 2
