REMARK  Name = No_4744-gen_results/8p0m/2024-11-26-14-13-15/
REMARK  7 active torsions:
REMARK  status: ('A' for Active; 'I' for Inactive)
REMARK    1  A    between atoms: C_2  and  C_14
REMARK    2  A    between atoms: C_3  and  C_17
REMARK    3  A    between atoms: C_4  and  C_6
REMARK    4  A    between atoms: C_6  and  C_8
REMARK    5  A    between atoms: C_17  and  N_18
REMARK    6  A    between atoms: N_18  and  C_19
REMARK    7  A    between atoms: C_19  and  C_20
REMARK                            x       y       z     vdW  Elec       q    Type
REMARK                         _______ _______ _______ _____ _____    ______ ____
ROOT
ATOM      1  C   UNL A   1     -28.016  -0.814  28.878  0.00  0.00    +0.003 A 
ATOM      2  C   UNL A   1     -28.469  -0.785  29.829  0.00  0.00    +0.080 A 
ATOM      3  C   UNL A   1     -26.546  -0.876  28.850  0.00  0.00    -0.008 A 
ATOM      4  C   UNL A   1     -25.804  -1.032  30.057  0.00  0.00    -0.022 A 
ATOM      5  C   UNL A   1     -27.944  -0.987  31.207  0.00  0.00    +0.006 A 
ATOM      6  C   UNL A   1     -26.561  -1.075  31.227  0.00  0.00    -0.004 A 
ENDROOT
BRANCH   4   7
ATOM      7  C   UNL A   1     -24.401  -1.097  30.096  0.00  0.00    +0.037 C 
ATOM      8  C   UNL A   1     -23.943  -1.631  31.460  0.00  0.00    +0.009 C 
ATOM      9  C   UNL A   1     -23.916  -2.208  29.081  0.00  0.00    +0.009 C 
BRANCH   7  10
ATOM     10  C   UNL A   1     -23.719   0.112  29.858  0.00  0.00    -0.019 A 
ATOM     11  C   UNL A   1     -22.435   0.141  29.241  0.00  0.00    -0.004 A 
ATOM     12  C   UNL A   1     -21.824   1.319  28.901  0.00  0.00    -0.000 A 
ATOM     13  C   UNL A   1     -24.215   1.387  30.282  0.00  0.00    -0.004 A 
ATOM     14  C   UNL A   1     -23.692   2.591  29.857  0.00  0.00    -0.000 A 
ATOM     15  C   UNL A   1     -22.448   2.551  29.186  0.00  0.00    -0.000 A 
ENDBRANCH   7  10
ENDBRANCH   4   7
BRANCH   2  16
ATOM     16  C   UNL A   1     -30.088  -0.702  29.872  0.00  0.00    +0.388 C 
ATOM     17  O   UNL A   1     -30.510  -0.239  28.921  0.00  0.00    -0.241 OA
ATOM     18  O   UNL A   1     -30.766  -1.040  30.901  0.00  0.00    -0.241 OA
ENDBRANCH   2  16
BRANCH   3  19
ATOM     19  C   UNL A   1     -25.738  -0.751  27.585  0.00  0.00    +0.116 C 
BRANCH  19  20
ATOM     20  N   UNL A   1     -26.180   0.133  26.654  0.00  0.00    -0.198 NA
BRANCH  20  21
ATOM     21  C   UNL A   1     -25.763   1.166  26.255  0.00  0.00    +0.152 C 
ATOM     22 CL   UNL A   1     -26.770   2.340  25.552  0.00  0.00    -0.096 Cl
BRANCH  21  23
ATOM     23  C   UNL A   1     -24.470   1.543  26.741  0.00  0.00    +0.034 C 
ATOM     24  C   UNL A   1     -23.982   2.948  26.705  0.00  0.00    +0.003 C 
ENDBRANCH  21  23
ENDBRANCH  20  21
ENDBRANCH  19  20
ENDBRANCH   3  19
TORSDOF 7
