MODEL 4744
MODEL 1
REMARK VINA RESULT:    -7.100      0.000      0.000
REMARK INTER + INTRA:          -9.993
REMARK INTER:                 -10.006
REMARK INTRA:                   0.013
REMARK UNBOUND:                 0.013
REMARK  Name = No_4744-gen_results/8p0m/2024-11-26-14-13-15/
REMARK  7 active torsions:
REMARK  status: ('A' for Active; 'I' for Inactive)
REMARK    1  A    between atoms: C_2  and  C_14
REMARK    2  A    between atoms: C_3  and  C_17
REMARK    3  A    between atoms: C_4  and  C_6
REMARK    4  A    between atoms: C_6  and  C_8
REMARK    5  A    between atoms: C_17  and  N_18
REMARK    6  A    between atoms: N_18  and  C_19
REMARK    7  A    between atoms: C_19  and  C_20
REMARK                            x       y       z     vdW  Elec       q    Type
REMARK                         _______ _______ _______ _____ _____    ______ ____
ROOT
ATOM      1  C   UNL A   1     -23.510   1.784  28.057  0.00  0.00    +0.003 A 
ATOM      2  C   UNL A   1     -23.967   1.558  27.134  0.00  0.00    +0.080 A 
ATOM      3  C   UNL A   1     -23.779   0.860  29.169  0.00  0.00    -0.008 A 
ATOM      4  C   UNL A   1     -24.506  -0.347  28.950  0.00  0.00    -0.022 A 
ATOM      5  C   UNL A   1     -24.705   0.366  26.635  0.00  0.00    +0.006 A 
ATOM      6  C   UNL A   1     -24.961  -0.546  27.647  0.00  0.00    -0.004 A 
ENDROOT
BRANCH   4   7
ATOM      7  C   UNL A   1     -24.796  -1.268  29.970  0.00  0.00    +0.037 C 
ATOM      8  C   UNL A   1     -23.717  -1.195  31.058  0.00  0.00    +0.009 C 
ATOM      9  C   UNL A   1     -26.109  -0.802  30.718  0.00  0.00    +0.009 C 
BRANCH   7  10
ATOM     10  C   UNL A   1     -24.914  -2.614  29.573  0.00  0.00    -0.019 A 
ATOM     11  C   UNL A   1     -23.876  -3.280  28.858  0.00  0.00    -0.004 A 
ATOM     12  C   UNL A   1     -23.938  -4.619  28.576  0.00  0.00    -0.000 A 
ATOM     13  C   UNL A   1     -26.099  -3.390  29.779  0.00  0.00    -0.004 A 
ATOM     14  C   UNL A   1     -26.155  -4.760  29.618  0.00  0.00    -0.000 A 
ATOM     15  C   UNL A   1     -25.062  -5.375  28.965  0.00  0.00    -0.000 A 
ENDBRANCH   7  10
ENDBRANCH   4   7
BRANCH   2  16
ATOM     16  C   UNL A   1     -23.689   2.578  25.905  0.00  0.00    +0.388 C 
ATOM     17  O   UNL A   1     -22.692   2.362  25.397  0.00  0.00    -0.241 OA
ATOM     18  O   UNL A   1     -24.472   3.549  25.627  0.00  0.00    -0.241 OA
ENDBRANCH   2  16
BRANCH   3  19
ATOM     19  C   UNL A   1     -23.348   1.126  30.588  0.00  0.00    +0.116 C 
BRANCH  19  20
ATOM     20  N   UNL A   1     -23.773   2.283  31.156  0.00  0.00    -0.198 NA
BRANCH  20  21
ATOM     21  C   UNL A   1     -24.827   2.655  31.546  0.00  0.00    +0.152 C 
ATOM     22 CL   UNL A   1     -25.959   3.405  30.525  0.00  0.00    -0.096 Cl
BRANCH  21  23
ATOM     23  C   UNL A   1     -25.258   2.100  32.793  0.00  0.00    +0.034 C 
ATOM     24  C   UNL A   1     -26.140   2.841  33.734  0.00  0.00    +0.003 C 
ENDBRANCH  21  23
ENDBRANCH  20  21
ENDBRANCH  19  20
ENDBRANCH   3  19
TORSDOF 7
ENDMDL
ENDMDL
