MODEL 4745
MODEL 1
REMARK VINA RESULT:    -6.479      0.000      0.000
REMARK INTER + INTRA:          -7.177
REMARK INTER:                  -6.857
REMARK INTRA:                  -0.319
REMARK UNBOUND:                -0.319
REMARK  Name = No_4745-gen_results/8p0m/2024-11-26-14-13-15/
REMARK  1 active torsions:
REMARK  status: ('A' for Active; 'I' for Inactive)
REMARK    1  A    between atoms: C_3  and  C_7
REMARK                            x       y       z     vdW  Elec       q    Type
REMARK                         _______ _______ _______ _____ _____    ______ ____
ROOT
ATOM      1  C   UNL A   1     -26.529  -3.593  29.917  0.00  0.00    +0.000 A 
ATOM      2  C   UNL A   1     -25.877  -2.607  29.660  0.00  0.00    +0.000 A 
ATOM      3  C   UNL A   1     -24.631  -2.646  29.037  0.00  0.00    +0.000 A 
ATOM      4  C   UNL A   1     -24.038  -3.933  28.724  0.00  0.00    +0.000 A 
ATOM      5  C   UNL A   1     -24.814  -5.043  29.055  0.00  0.00    +0.000 A 
ATOM      6  C   UNL A   1     -25.982  -4.914  29.654  0.00  0.00    +0.000 A 
ENDROOT
BRANCH   3   7
ATOM      7  C   UNL A   1     -23.775  -1.477  28.683  0.00  0.00    +0.000 A 
ATOM      8  C   UNL A   1     -22.579  -1.326  29.166  0.00  0.00    +0.000 A 
ATOM      9  C   UNL A   1     -21.799  -0.154  28.878  0.00  0.00    +0.000 A 
ATOM     10  C   UNL A   1     -22.285   0.912  28.203  0.00  0.00    +0.000 A 
ATOM     11  C   UNL A   1     -24.356  -0.345  27.945  0.00  0.00    +0.000 A 
ATOM     12  C   UNL A   1     -23.575   0.827  27.721  0.00  0.00    +0.000 A 
ENDBRANCH   3   7
TORSDOF 1
ENDMDL
ENDMDL
