REMARK  Name = No_4747-gen_results/8p0m/2024-11-26-14-13-15/
REMARK  6 active torsions:
REMARK  status: ('A' for Active; 'I' for Inactive)
REMARK    1  A    between atoms: C_3  and  O_15
REMARK    2  A    between atoms: C_5  and  O_8
REMARK    3  A    between atoms: C_6  and  C_22
REMARK    4  A    between atoms: O_8  and  C_9
REMARK    5  A    between atoms: O_15  and  C_16
REMARK    6  A    between atoms: C_22  and  C_23
REMARK                            x       y       z     vdW  Elec       q    Type
REMARK                         _______ _______ _______ _____ _____    ______ ____
ROOT
ATOM      1  F   UNL A   1     -28.073  -1.254  28.532  0.00  0.00    -0.201 F 
ATOM      2  C   UNL A   1     -27.359  -0.379  28.722  0.00  0.00    +0.174 A 
ATOM      3  C   UNL A   1     -26.810   0.189  27.651  0.00  0.00    +0.175 A 
ATOM      4  C   UNL A   1     -25.602   0.953  27.683  0.00  0.00    +0.077 A 
ATOM      5  C   UNL A   1     -25.037   1.233  29.000  0.00  0.00    +0.145 A 
ATOM      6  C   UNL A   1     -25.616   0.586  30.087  0.00  0.00    +0.019 A 
ATOM      7  C   UNL A   1     -26.606  -0.230  29.962  0.00  0.00    +0.032 A 
ENDROOT
BRANCH   5   8
ATOM      8  O   UNL A   1     -23.992   2.075  29.073  0.00  0.00    -0.454 OA
BRANCH   8   9
ATOM      9  C   UNL A   1     -22.823   1.708  28.393  0.00  0.00    +0.145 A 
ATOM     10  C   UNL A   1     -21.725   1.143  29.164  0.00  0.00    +0.037 A 
ATOM     11  C   UNL A   1     -20.725   0.472  28.398  0.00  0.00    +0.003 A 
ATOM     12  C   UNL A   1     -22.651   2.075  27.070  0.00  0.00    +0.037 A 
ATOM     13  C   UNL A   1     -21.399   1.716  26.466  0.00  0.00    +0.003 A 
ATOM     14  C   UNL A   1     -20.524   0.914  27.137  0.00  0.00    +0.000 A 
ENDBRANCH   8   9
ENDBRANCH   5   8
BRANCH   3  15
ATOM     15  O   UNL A   1     -27.272   0.006  26.402  0.00  0.00    -0.451 OA
BRANCH  15  16
ATOM     16  C   UNL A   1     -28.338   0.760  26.009  0.00  0.00    +0.145 A 
ATOM     17  C   UNL A   1     -28.980   0.344  24.935  0.00  0.00    +0.037 A 
ATOM     18  C   UNL A   1     -30.156   1.003  24.460  0.00  0.00    +0.003 A 
ATOM     19  C   UNL A   1     -30.514   2.234  25.134  0.00  0.00    +0.000 A 
ATOM     20  C   UNL A   1     -28.787   1.933  26.690  0.00  0.00    +0.037 A 
ATOM     21  C   UNL A   1     -29.826   2.646  26.265  0.00  0.00    +0.003 A 
ENDBRANCH  15  16
ENDBRANCH   3  15
BRANCH   6  22
ATOM     22  C   UNL A   1     -24.929   0.878  31.409  0.00  0.00    +0.056 C 
BRANCH  22  23
ATOM     23  C   UNL A   1     -25.570   1.986  32.200  0.00  0.00    -0.018 A 
ATOM     24  C   UNL A   1     -26.870   2.137  32.095  0.00  0.00    -0.004 A 
ATOM     25  C   UNL A   1     -27.425   3.267  32.839  0.00  0.00    -0.000 A 
ATOM     26  C   UNL A   1     -26.604   4.124  33.550  0.00  0.00    -0.000 A 
ATOM     27  C   UNL A   1     -25.209   3.981  33.434  0.00  0.00    -0.000 A 
ATOM     28  C   UNL A   1     -24.718   2.972  32.722  0.00  0.00    -0.004 A 
ENDBRANCH  22  23
ENDBRANCH   6  22
TORSDOF 6
