MODEL 4747
MODEL 1
REMARK VINA RESULT:    -7.240      0.000      0.000
REMARK INTER + INTRA:         -11.438
REMARK INTER:                  -9.779
REMARK INTRA:                  -1.658
REMARK UNBOUND:                -1.658
REMARK  Name = No_4747-gen_results/8p0m/2024-11-26-14-13-15/
REMARK  6 active torsions:
REMARK  status: ('A' for Active; 'I' for Inactive)
REMARK    1  A    between atoms: C_3  and  O_15
REMARK    2  A    between atoms: C_5  and  O_8
REMARK    3  A    between atoms: C_6  and  C_22
REMARK    4  A    between atoms: O_8  and  C_9
REMARK    5  A    between atoms: O_15  and  C_16
REMARK    6  A    between atoms: C_22  and  C_23
REMARK                            x       y       z     vdW  Elec       q    Type
REMARK                         _______ _______ _______ _____ _____    ______ ____
ROOT
ATOM      1  F   UNL A   1     -25.711  -0.697  24.052  0.00  0.00    -0.201 F 
ATOM      2  C   UNL A   1     -26.073  -0.089  24.953  0.00  0.00    +0.174 A 
ATOM      3  C   UNL A   1     -26.957   0.876  24.708  0.00  0.00    +0.175 A 
ATOM      4  C   UNL A   1     -27.178   1.993  25.572  0.00  0.00    +0.077 A 
ATOM      5  C   UNL A   1     -26.489   1.975  26.859  0.00  0.00    +0.145 A 
ATOM      6  C   UNL A   1     -25.544   0.973  27.056  0.00  0.00    +0.019 A 
ATOM      7  C   UNL A   1     -25.271   0.090  26.157  0.00  0.00    +0.032 A 
ENDROOT
BRANCH   5   8
ATOM      8  O   UNL A   1     -26.795   2.930  27.753  0.00  0.00    -0.454 OA
BRANCH   8   9
ATOM      9  C   UNL A   1     -26.393   4.240  27.457  0.00  0.00    +0.145 A 
ATOM     10  C   UNL A   1     -27.423   5.239  27.214  0.00  0.00    +0.037 A 
ATOM     11  C   UNL A   1     -26.982   6.595  27.270  0.00  0.00    +0.003 A 
ATOM     12  C   UNL A   1     -25.061   4.510  27.195  0.00  0.00    +0.037 A 
ATOM     13  C   UNL A   1     -24.743   5.863  26.838  0.00  0.00    +0.003 A 
ATOM     14  C   UNL A   1     -25.697   6.833  26.925  0.00  0.00    +0.000 A 
ENDBRANCH   8   9
ENDBRANCH   5   8
BRANCH   3  15
ATOM     15  O   UNL A   1     -27.653   0.963  23.562  0.00  0.00    -0.451 OA
BRANCH  15  16
ATOM     16  C   UNL A   1     -28.875   0.359  23.520  0.00  0.00    +0.145 A 
ATOM     17  C   UNL A   1     -29.910   1.154  23.332  0.00  0.00    +0.037 A 
ATOM     18  C   UNL A   1     -31.237   0.640  23.197  0.00  0.00    +0.003 A 
ATOM     19  C   UNL A   1     -31.397  -0.781  23.428  0.00  0.00    +0.000 A 
ATOM     20  C   UNL A   1     -29.079  -1.049  23.653  0.00  0.00    +0.037 A 
ATOM     21  C   UNL A   1     -30.291  -1.595  23.617  0.00  0.00    +0.003 A 
ENDBRANCH  15  16
ENDBRANCH   3  15
BRANCH   6  22
ATOM     22  C   UNL A   1     -24.826   1.064  28.390  0.00  0.00    +0.056 C 
BRANCH  22  23
ATOM     23  C   UNL A   1     -23.353   0.762  28.314  0.00  0.00    -0.018 A 
ATOM     24  C   UNL A   1     -22.891  -0.212  29.065  0.00  0.00    -0.004 A 
ATOM     25  C   UNL A   1     -21.445  -0.417  28.992  0.00  0.00    -0.000 A 
ATOM     26  C   UNL A   1     -20.647   0.405  28.218  0.00  0.00    -0.000 A 
ATOM     27  C   UNL A   1     -21.223   1.536  27.610  0.00  0.00    -0.000 A 
ATOM     28  C   UNL A   1     -22.533   1.731  27.716  0.00  0.00    -0.004 A 
ENDBRANCH  22  23
ENDBRANCH   6  22
TORSDOF 6
ENDMDL
ENDMDL
