MODEL 4748
MODEL 1
REMARK VINA RESULT:    -6.619      0.000      0.000
REMARK INTER + INTRA:          -8.133
REMARK INTER:                  -7.779
REMARK INTRA:                  -0.354
REMARK UNBOUND:                -0.354
REMARK  Name = No_4748-gen_results/8p0m/2024-11-26-14-13-15/
REMARK  3 active torsions:
REMARK  status: ('A' for Active; 'I' for Inactive)
REMARK    1  A    between atoms: C_2  and  O_7
REMARK    2  A    between atoms: O_7  and  C_8
REMARK    3  A    between atoms: C_8  and  C_9
REMARK                            x       y       z     vdW  Elec       q    Type
REMARK                         _______ _______ _______ _____ _____    ______ ____
ROOT
ATOM      1  O   UNL A   1     -24.682  -1.259  29.328  0.00  0.00    -0.471 OA
ENDROOT
BRANCH   1   3
ATOM      2  C   UNL A   1     -23.947  -3.171  28.677  0.00  0.00    +0.037 A 
ATOM      3  C   UNL A   1     -24.739  -2.724  29.210  0.00  0.00    +0.139 A 
ATOM      4  C   UNL A   1     -24.011  -4.677  28.560  0.00  0.00    +0.003 A 
ATOM      5  C   UNL A   1     -25.156  -5.359  29.024  0.00  0.00    +0.000 A 
ATOM      6  C   UNL A   1     -26.038  -3.187  29.750  0.00  0.00    +0.037 A 
ATOM      7  C   UNL A   1     -26.135  -4.568  29.654  0.00  0.00    +0.003 A 
ENDBRANCH   1   3
BRANCH   1   8
ATOM      8  C   UNL A   1     -23.560  -0.702  29.046  0.00  0.00    +0.232 C 
BRANCH   8   9
ATOM      9  C   UNL A   1     -23.383   0.276  28.193  0.00  0.00    +0.021 A 
ATOM     10  C   UNL A   1     -24.406   0.368  27.162  0.00  0.00    -0.001 A 
ATOM     11  C   UNL A   1     -24.247   1.295  26.048  0.00  0.00    -0.000 A 
ATOM     12  C   UNL A   1     -23.024   2.050  25.998  0.00  0.00    -0.000 A 
ATOM     13  C   UNL A   1     -22.045   1.918  26.960  0.00  0.00    -0.000 A 
ATOM     14  C   UNL A   1     -22.195   0.984  28.031  0.00  0.00    -0.001 A 
ENDBRANCH   8   9
ENDBRANCH   1   8
TORSDOF 3
ENDMDL
ENDMDL
