MODEL 4749
MODEL 1
REMARK VINA RESULT:    -4.320      0.000      0.000
REMARK INTER + INTRA:          -4.320
REMARK INTER:                  -4.320
REMARK INTRA:                   0.000
REMARK UNBOUND:                 0.000
REMARK  Name = No_4749-gen_results/8p0m/2024-11-26-14-13-15/
REMARK  0 active torsions:
REMARK  status: ('A' for Active; 'I' for Inactive)
REMARK                            x       y       z     vdW  Elec       q    Type
REMARK                         _______ _______ _______ _____ _____    ______ ____
ROOT
ATOM      1  C   UNL A   1     -24.908  -5.428  28.958  0.00  0.00    +0.000 A 
ATOM      2  C   UNL A   1     -24.145  -4.758  28.675  0.00  0.00    +0.000 A 
ATOM      3  C   UNL A   1     -26.021  -4.785  29.657  0.00  0.00    +0.000 A 
ATOM      4  C   UNL A   1     -26.119  -3.635  29.744  0.00  0.00    +0.000 A 
ATOM      5  C   UNL A   1     -24.010  -3.314  28.695  0.00  0.00    +0.000 A 
ATOM      6  C   UNL A   1     -25.135  -2.729  29.336  0.00  0.00    +0.000 A 
ENDROOT
TORSDOF 0
ENDMDL
ENDMDL
