MODEL 474
MODEL 1
REMARK VINA RESULT:    -6.450      0.000      0.000
REMARK INTER + INTRA:         -10.313
REMARK INTER:                  -8.712
REMARK INTRA:                  -1.600
REMARK UNBOUND:                -1.600
REMARK  Name = No_474-gen_results/8p0m/2024-11-26-14-13-15/
REMARK  6 active torsions:
REMARK  status: ('A' for Active; 'I' for Inactive)
REMARK    1  A    between atoms: C_7  and  C_9
REMARK    2  A    between atoms: C_9  and  C_10
REMARK    3  A    between atoms: C_9  and  C_16
REMARK    4  A    between atoms: C_11  and  C_12
REMARK    5  A    between atoms: C_12  and  C_14
REMARK    6  A    between atoms: C_17  and  C_18
REMARK                            x       y       z     vdW  Elec       q    Type
REMARK                         _______ _______ _______ _____ _____    ______ ____
ROOT
ATOM      1  C   UNL A   1     -25.148  -0.657  28.443  0.00  0.00    +0.066 C 
ENDROOT
BRANCH   1   8
ATOM      2 BR   UNL A   1     -26.641   0.392  25.900  0.00  0.00    -0.049 Br
ATOM      3  C   UNL A   1     -25.221   0.988  26.505  0.00  0.00    +0.031 A 
ATOM      4  C   UNL A   1     -24.448   1.874  25.735  0.00  0.00    +0.007 A 
ATOM      5  C   UNL A   1     -23.109   2.149  25.969  0.00  0.00    +0.012 A 
ATOM      6  C   UNL A   1     -22.467   1.578  27.102  0.00  0.00    +0.057 A 
ATOM      7  C   UNL A   1     -23.172   0.696  27.862  0.00  0.00    +0.008 A 
ATOM      8  C   UNL A   1     -24.420   0.363  27.548  0.00  0.00    -0.007 A 
ATOM      9 CL   UNL A   1     -20.832   1.882  27.530  0.00  0.00    -0.082 Cl
ENDBRANCH   1   8
BRANCH   1  10
ATOM     10  C   UNL A   1     -26.047  -0.156  29.306  0.00  0.00    -0.022 C 
ATOM     11  C   UNL A   1     -25.928   0.292  30.337  0.00  0.00    -0.030 C 
BRANCH  11  12
ATOM     12  C   UNL A   1     -24.609   0.430  30.980  0.00  0.00    +0.022 C 
ATOM     13  C   UNL A   1     -24.330   1.750  31.562  0.00  0.00    +0.005 C 
BRANCH  12  14
ATOM     14  C   UNL A   1     -24.415  -0.502  32.118  0.00  0.00    +0.004 C 
ATOM     15  C   UNL A   1     -23.091  -1.143  32.169  0.00  0.00    +0.000 C 
ENDBRANCH  12  14
ENDBRANCH  11  12
ENDBRANCH   1  10
BRANCH   1  16
ATOM     16  C   UNL A   1     -24.787  -2.027  28.115  0.00  0.00    -0.018 C 
ATOM     17  C   UNL A   1     -24.439  -2.799  29.024  0.00  0.00    -0.004 C 
BRANCH  17  18
ATOM     18  C   UNL A   1     -24.086  -4.170  28.761  0.00  0.00    -0.005 C 
ATOM     19  C   UNL A   1     -25.009  -5.175  29.086  0.00  0.00    -0.026 C 
ATOM     20  C   UNL A   1     -26.232  -4.851  29.691  0.00  0.00    +0.031 C 
ENDBRANCH  17  18
ENDBRANCH   1  16
TORSDOF 6
ENDMDL
ENDMDL
