REMARK  Name = No_4750-gen_results/8p0m/2024-11-26-14-13-15/
REMARK  5 active torsions:
REMARK  status: ('A' for Active; 'I' for Inactive)
REMARK    1  A    between atoms: C_4  and  C_11
REMARK    2  A    between atoms: C_12  and  O_17
REMARK    3  A    between atoms: O_17  and  C_18
REMARK    4  A    between atoms: C_22  and  O_25
REMARK    5  A    between atoms: O_25  and  C_27
REMARK                            x       y       z     vdW  Elec       q    Type
REMARK                         _______ _______ _______ _____ _____    ______ ____
ROOT
ATOM      1  C   UNL A   1     -24.645   1.658  27.946  0.00  0.00    +0.034 A 
ATOM      2  C   UNL A   1     -24.896   2.756  28.561  0.00  0.00    +0.140 A 
ATOM      3  C   UNL A   1     -25.173   3.934  27.844  0.00  0.00    +0.037 A 
ATOM      4  C   UNL A   1     -24.484   1.557  26.589  0.00  0.00    +0.003 A 
ATOM      5  C   UNL A   1     -24.632   2.694  25.785  0.00  0.00    +0.000 A 
ATOM      6  C   UNL A   1     -24.890   3.923  26.432  0.00  0.00    +0.003 A 
ENDROOT
BRANCH   1  10
ATOM      7  C   UNL A   1     -28.016  -0.814  28.878  0.00  0.00    +0.000 A 
ATOM      8  C   UNL A   1     -27.064  -0.119  28.608  0.00  0.00    +0.000 A 
ATOM      9  C   UNL A   1     -25.765  -0.390  29.036  0.00  0.00    +0.000 A 
ATOM     10  C   UNL A   1     -24.552   0.406  28.765  0.00  0.00    +0.003 A 
ATOM     11  C   UNL A   1     -23.230   0.118  29.258  0.00  0.00    +0.000 A 
ATOM     12  C   UNL A   1     -23.094  -1.131  29.873  0.00  0.00    +0.000 A 
ATOM     13  C   UNL A   1     -27.798  -1.934  29.856  0.00  0.00    +0.000 A 
ATOM     14  C   UNL A   1     -26.542  -2.327  30.258  0.00  0.00    +0.000 A 
ATOM     15  C   UNL A   1     -25.451  -1.552  29.908  0.00  0.00    +0.000 A 
ATOM     16  C   UNL A   1     -24.156  -1.910  30.281  0.00  0.00    +0.000 A 
ENDBRANCH   1  10
BRANCH   2  17
ATOM     17  O   UNL A   1     -25.076   2.911  29.907  0.00  0.00    -0.461 OA
BRANCH  17  18
ATOM     18  C   UNL A   1     -26.231   3.135  30.608  0.00  0.00    +0.321 C 
ATOM     19  C   UNL A   1     -26.326   2.391  31.778  0.00  0.00    +0.366 C 
ATOM     20  O   UNL A   1     -26.567   2.979  32.722  0.00  0.00    -0.440 OA
ATOM     21  O   UNL A   1     -26.289   1.115  31.704  0.00  0.00    -0.245 OA
ATOM     22  C   UNL A   1     -26.346   4.610  30.911  0.00  0.00    +0.184 C 
ATOM     23  C   UNL A   1     -26.903   4.800  31.936  0.00  0.00    +0.113 C 
ATOM     24  C   UNL A   1     -26.556   4.247  33.197  0.00  0.00    +0.249 C 
ATOM     25 CL   UNL A   1     -26.848   6.675  32.314  0.00  0.00    -0.080 Cl
BRANCH  22  26
ATOM     26  O   UNL A   1     -26.861   5.248  29.680  0.00  0.00    -0.453 OA
BRANCH  26  27
ATOM     27  C   UNL A   1     -28.090   5.441  29.546  0.00  0.00    +0.145 A 
ATOM     28  C   UNL A   1     -28.406   5.698  28.227  0.00  0.00    +0.037 A 
ATOM     29  C   UNL A   1     -29.389   5.572  27.779  0.00  0.00    +0.003 A 
ATOM     30  C   UNL A   1     -30.601   5.309  28.554  0.00  0.00    +0.000 A 
ATOM     31  C   UNL A   1     -30.351   5.091  29.925  0.00  0.00    +0.003 A 
ATOM     32  C   UNL A   1     -29.062   5.102  30.377  0.00  0.00    +0.037 A 
ENDBRANCH  26  27
ENDBRANCH  22  26
ENDBRANCH  17  18
ENDBRANCH   2  17
TORSDOF 5
