MODEL 4750
MODEL 1
REMARK VINA RESULT:    -8.655      0.000      0.000
REMARK INTER + INTRA:         -13.151
REMARK INTER:                 -11.184
REMARK INTRA:                  -1.966
REMARK UNBOUND:                -1.966
REMARK  Name = No_4750-gen_results/8p0m/2024-11-26-14-13-15/
REMARK  5 active torsions:
REMARK  status: ('A' for Active; 'I' for Inactive)
REMARK    1  A    between atoms: C_4  and  C_11
REMARK    2  A    between atoms: C_12  and  O_17
REMARK    3  A    between atoms: O_17  and  C_18
REMARK    4  A    between atoms: C_22  and  O_25
REMARK    5  A    between atoms: O_25  and  C_27
REMARK                            x       y       z     vdW  Elec       q    Type
REMARK                         _______ _______ _______ _____ _____    ______ ____
ROOT
ATOM      1  C   UNL A   1     -23.455   1.559  27.453  0.00  0.00    +0.034 A 
ATOM      2  C   UNL A   1     -23.592   0.774  28.460  0.00  0.00    +0.140 A 
ATOM      3  C   UNL A   1     -22.466   0.275  29.139  0.00  0.00    +0.037 A 
ATOM      4  C   UNL A   1     -22.251   1.860  26.872  0.00  0.00    +0.003 A 
ATOM      5  C   UNL A   1     -21.070   1.328  27.404  0.00  0.00    +0.000 A 
ATOM      6  C   UNL A   1     -21.187   0.445  28.500  0.00  0.00    +0.003 A 
ENDROOT
BRANCH   1  10
ATOM      7  C   UNL A   1     -26.147  -0.398  24.757  0.00  0.00    +0.000 A 
ATOM      8  C   UNL A   1     -25.390   0.151  25.524  0.00  0.00    +0.000 A 
ATOM      9  C   UNL A   1     -25.565   1.457  25.979  0.00  0.00    +0.000 A 
ATOM     10  C   UNL A   1     -24.689   2.206  26.901  0.00  0.00    +0.003 A 
ATOM     11  C   UNL A   1     -24.880   3.571  27.319  0.00  0.00    +0.000 A 
ATOM     12  C   UNL A   1     -26.110   4.128  26.956  0.00  0.00    +0.000 A 
ATOM     13  C   UNL A   1     -27.239   0.437  24.150  0.00  0.00    +0.000 A 
ATOM     14  C   UNL A   1     -27.540   1.701  24.604  0.00  0.00    +0.000 A 
ATOM     15  C   UNL A   1     -26.694   2.306  25.516  0.00  0.00    +0.000 A 
ATOM     16  C   UNL A   1     -26.957   3.581  26.015  0.00  0.00    +0.000 A 
ENDBRANCH   1  10
BRANCH   2  17
ATOM     17  O   UNL A   1     -24.764   0.449  29.084  0.00  0.00    -0.461 OA
BRANCH  17  18
ATOM     18  C   UNL A   1     -25.102   0.559  30.406  0.00  0.00    +0.321 C 
ATOM     19  C   UNL A   1     -25.604   1.808  30.751  0.00  0.00    +0.366 C 
ATOM     20  O   UNL A   1     -26.596   1.808  31.308  0.00  0.00    -0.440 OA
ATOM     21  O   UNL A   1     -24.873   2.841  30.565  0.00  0.00    -0.245 OA
ATOM     22  C   UNL A   1     -26.098  -0.523  30.751  0.00  0.00    +0.184 C 
ATOM     23  C   UNL A   1     -26.850  -0.167  31.591  0.00  0.00    +0.113 C 
ATOM     24  C   UNL A   1     -27.655   1.002  31.560  0.00  0.00    +0.249 C 
ATOM     25 CL   UNL A   1     -28.170  -1.531  31.836  0.00  0.00    -0.080 Cl
BRANCH  22  26
ATOM     26  O   UNL A   1     -25.314  -1.759  30.960  0.00  0.00    -0.453 OA
BRANCH  26  27
ATOM     27  C   UNL A   1     -25.408  -2.701  30.142  0.00  0.00    +0.145 A 
ATOM     28  C   UNL A   1     -24.211  -2.900  29.483  0.00  0.00    +0.037 A 
ATOM     29  C   UNL A   1     -23.910  -3.821  28.989  0.00  0.00    +0.003 A 
ATOM     30  C   UNL A   1     -24.817  -4.944  28.754  0.00  0.00    +0.000 A 
ATOM     31  C   UNL A   1     -26.081  -4.778  29.358  0.00  0.00    +0.003 A 
ATOM     32  C   UNL A   1     -26.319  -3.659  30.106  0.00  0.00    +0.037 A 
ENDBRANCH  26  27
ENDBRANCH  22  26
ENDBRANCH  17  18
ENDBRANCH   2  17
TORSDOF 5
ENDMDL
ENDMDL
