MODEL 4751
MODEL 1
REMARK VINA RESULT:    -5.340      0.000      0.000
REMARK INTER + INTRA:          -5.793
REMARK INTER:                  -5.652
REMARK INTRA:                  -0.140
REMARK UNBOUND:                -0.140
REMARK  Name = No_4751-gen_results/8p0m/2024-11-26-14-13-15/
REMARK  1 active torsions:
REMARK  status: ('A' for Active; 'I' for Inactive)
REMARK    1  A    between atoms: C_4  and  C_7
REMARK                            x       y       z     vdW  Elec       q    Type
REMARK                         _______ _______ _______ _____ _____    ______ ____
ROOT
ATOM      1  C   UNL A   1     -24.630  -5.234  28.917  0.00  0.00    -0.000 A 
ATOM      2  C   UNL A   1     -25.606  -5.159  29.306  0.00  0.00    -0.000 A 
ATOM      3  C   UNL A   1     -23.925  -3.968  28.657  0.00  0.00    -0.000 A 
ATOM      4  C   UNL A   1     -24.499  -2.725  29.052  0.00  0.00    -0.000 A 
ATOM      5  C   UNL A   1     -25.754  -2.789  29.603  0.00  0.00    -0.000 A 
ATOM      6  C   UNL A   1     -26.366  -3.977  29.796  0.00  0.00    -0.000 A 
ENDROOT
BRANCH   4   7
ATOM      7  C   UNL A   1     -23.801  -1.474  28.815  0.00  0.00    -0.005 C 
ATOM      8  C   UNL A   1     -22.656  -1.167  29.180  0.00  0.00    -0.026 C 
ATOM      9  C   UNL A   1     -21.925   0.028  28.747  0.00  0.00    +0.031 C 
ENDBRANCH   4   7
TORSDOF 1
ENDMDL
ENDMDL
