REMARK  Name = No_4752-gen_results/8p0m/2024-11-26-14-13-15/
REMARK  2 active torsions:
REMARK  status: ('A' for Active; 'I' for Inactive)
REMARK    1  A    between atoms: C_1  and  C_2
REMARK    2  A    between atoms: C_5  and  C_14
REMARK                            x       y       z     vdW  Elec       q    Type
REMARK                         _______ _______ _______ _____ _____    ______ ____
ROOT
ATOM      1  C   UNL A   1     -27.064  -0.119  28.608  0.00  0.00    +0.054 A 
ATOM      2  C   UNL A   1     -26.929   1.171  29.008  0.00  0.00    +0.005 A 
ATOM      3  C   UNL A   1     -25.770   2.034  28.688  0.00  0.00    +0.008 A 
ATOM      4  C   UNL A   1     -24.714   1.443  27.919  0.00  0.00    +0.088 A 
ATOM      5  C   UNL A   1     -24.859   0.078  27.584  0.00  0.00    +0.008 A 
ATOM      6  C   UNL A   1     -25.965  -0.661  27.916  0.00  0.00    +0.005 A 
ENDROOT
BRANCH   1   7
ATOM      7  C   UNL A   1     -28.016  -0.814  28.878  0.00  0.00    +0.249 C 
ATOM      8  N   UNL A   1     -29.170  -0.298  28.947  0.00  0.00    -0.276 N 
ATOM      9  C   UNL A   1     -29.722   0.373  28.043  0.00  0.00    +0.094 C 
ATOM     10  C   UNL A   1     -31.148   0.637  28.103  0.00  0.00    +0.022 C 
ATOM     11  C   UNL A   1     -30.203  -0.914  29.836  0.00  0.00    +0.094 C 
ATOM     12  C   UNL A   1     -31.496  -0.610  29.894  0.00  0.00    +0.022 C 
ATOM     13  C   UNL A   1     -31.961   0.218  28.968  0.00  0.00    +0.004 C 
ATOM     14  O   UNL A   1     -27.811  -1.971  29.429  0.00  0.00    -0.270 OA
ENDBRANCH   1   7
BRANCH   4  15
ATOM     15  C   UNL A   1     -23.496   2.124  27.597  0.00  0.00    +0.387 C 
ATOM     16  N   UNL A   1     -23.099   2.735  26.823  0.00  0.00    +0.073 NA
ATOM     17  N   UNL A   1     -22.310   1.567  28.355  0.00  0.00    +0.000 NA
ATOM     18  C   UNL A   1     -21.209   2.022  27.668  0.00  0.00    +0.410 C 
ATOM     19  N   UNL A   1     -21.759   2.540  26.613  0.00  0.00    +0.027 NA
ENDBRANCH   4  15
TORSDOF 2
