MODEL 4752
MODEL 1
REMARK VINA RESULT:    -6.418      0.000      0.000
REMARK INTER + INTRA:          -7.417
REMARK INTER:                  -7.168
REMARK INTRA:                  -0.249
REMARK UNBOUND:                -0.249
REMARK  Name = No_4752-gen_results/8p0m/2024-11-26-14-13-15/
REMARK  2 active torsions:
REMARK  status: ('A' for Active; 'I' for Inactive)
REMARK    1  A    between atoms: C_1  and  C_2
REMARK    2  A    between atoms: C_5  and  C_14
REMARK                            x       y       z     vdW  Elec       q    Type
REMARK                         _______ _______ _______ _____ _____    ______ ____
ROOT
ATOM      1  C   UNL A   1     -24.208  -1.496  29.932  0.00  0.00    +0.054 A 
ATOM      2  C   UNL A   1     -24.216  -2.701  29.309  0.00  0.00    +0.005 A 
ATOM      3  C   UNL A   1     -25.357  -3.644  29.317  0.00  0.00    +0.008 A 
ATOM      4  C   UNL A   1     -26.520  -3.249  30.057  0.00  0.00    +0.088 A 
ATOM      5  C   UNL A   1     -26.445  -2.021  30.751  0.00  0.00    +0.008 A 
ATOM      6  C   UNL A   1     -25.350  -1.197  30.698  0.00  0.00    +0.005 A 
ENDROOT
BRANCH   1   7
ATOM      7  C   UNL A   1     -23.267  -0.735  29.920  0.00  0.00    +0.249 C 
ATOM      8  N   UNL A   1     -23.017  -0.064  28.876  0.00  0.00    -0.276 N 
ATOM      9  C   UNL A   1     -23.828   0.685  28.282  0.00  0.00    +0.094 C 
ATOM     10  C   UNL A   1     -23.347   1.641  27.300  0.00  0.00    +0.022 C 
ATOM     11  C   UNL A   1     -21.613   0.367  28.594  0.00  0.00    +0.094 C 
ATOM     12  C   UNL A   1     -21.208   1.212  27.651  0.00  0.00    +0.022 C 
ATOM     13  C   UNL A   1     -22.150   1.863  26.981  0.00  0.00    +0.004 C 
ATOM     14  O   UNL A   1     -22.340  -0.872  30.817  0.00  0.00    -0.270 OA
ENDBRANCH   1   7
BRANCH   4  15
ATOM     15  C   UNL A   1     -27.671  -4.085  30.223  0.00  0.00    +0.387 C 
ATOM     16  N   UNL A   1     -28.185  -4.855  29.701  0.00  0.00    +0.073 NA
ATOM     17  N   UNL A   1     -28.654  -3.514  31.223  0.00  0.00    +0.000 NA
ATOM     18  C   UNL A   1     -29.832  -4.181  30.977  0.00  0.00    +0.410 C 
ATOM     19  N   UNL A   1     -29.542  -4.824  29.887  0.00  0.00    +0.027 NA
ENDBRANCH   4  15
TORSDOF 2
ENDMDL
ENDMDL
