REMARK  Name = No_4753-gen_results/8p0m/2024-11-26-14-13-15/
REMARK  7 active torsions:
REMARK  status: ('A' for Active; 'I' for Inactive)
REMARK    1  A    between atoms: C_3  and  O_7
REMARK    2  A    between atoms: C_6  and  C_29
REMARK    3  A    between atoms: O_7  and  C_8
REMARK    4  A    between atoms: C_9  and  C_22
REMARK    5  A    between atoms: C_10  and  C_14
REMARK    6  A    between atoms: N_23  and  C_32
REMARK    7  A    between atoms: C_33  and  C_34
REMARK                            x       y       z     vdW  Elec       q    Type
REMARK                         _______ _______ _______ _____ _____    ______ ____
ROOT
ATOM      1  C   UNL A   1     -25.782   1.545  27.076  0.00  0.00    +0.143 A 
ATOM      2  C   UNL A   1     -26.107   2.496  26.654  0.00  0.00    +0.035 A 
ATOM      3  C   UNL A   1     -24.212   1.357  27.277  0.00  0.00    +0.034 A 
ATOM      4  C   UNL A   1     -23.415   2.453  26.877  0.00  0.00    +0.003 A 
ATOM      5  C   UNL A   1     -25.355   3.680  26.274  0.00  0.00    +0.001 A 
ATOM      6  C   UNL A   1     -23.955   3.593  26.359  0.00  0.00    -0.000 A 
ENDROOT
BRANCH   3   7
ATOM      7  C   UNL A   1     -23.628   0.169  27.818  0.00  0.00    +0.005 A 
ATOM      8  C   UNL A   1     -22.506   0.322  28.737  0.00  0.00    +0.000 A 
ATOM      9  C   UNL A   1     -21.831  -0.213  29.267  0.00  0.00    +0.002 A 
ATOM     10  C   UNL A   1     -22.246  -1.499  29.622  0.00  0.00    +0.030 A 
ATOM     11  C   UNL A   1     -23.516  -1.938  29.028  0.00  0.00    +0.140 A 
ATOM     12  C   UNL A   1     -24.242  -1.013  28.207  0.00  0.00    +0.030 A 
ATOM     13  F   UNL A   1     -23.974  -3.114  29.251  0.00  0.00    -0.204 F 
ENDBRANCH   3   7
BRANCH   2  14
ATOM     14  C   UNL A   1     -27.631   2.747  26.442  0.00  0.00    +0.125 C 
ATOM     15  N   UNL A   1     -28.234   3.694  27.018  0.00  0.00    -0.279 N 
ATOM     16  C   UNL A   1     -29.115   4.184  27.226  0.00  0.00    +0.062 C 
ATOM     17  C   UNL A   1     -30.305   3.567  26.745  0.00  0.00    -0.005 C 
ATOM     18  C   UNL A   1     -28.325   1.958  25.560  0.00  0.00    -0.006 C 
ATOM     19  C   UNL A   1     -29.658   1.860  25.404  0.00  0.00    -0.024 C 
ATOM     20  C   UNL A   1     -30.575   2.678  25.844  0.00  0.00    +0.053 C 
BRANCH  15  21
ATOM     21  C   UNL A   1     -27.143   4.550  27.842  0.00  0.00    +0.068 C 
ATOM     22  C   UNL A   1     -27.309   4.629  28.955  0.00  0.00    +0.039 C 
BRANCH  22  23
ATOM     23  C   UNL A   1     -26.351   5.613  29.695  0.00  0.00    +0.123 C 
ATOM     24  N   UNL A   1     -25.455   6.133  28.836  0.00  0.00    -0.146 NA
ENDBRANCH  22  23
ENDBRANCH  15  21
ENDBRANCH   2  14
BRANCH   1  25
ATOM     25  O   UNL A   1     -26.382   0.366  27.456  0.00  0.00    -0.454 OA
BRANCH  25  28
ATOM     26  C   UNL A   1     -28.016  -0.814  28.878  0.00  0.00    +0.049 A 
ATOM     27  C   UNL A   1     -28.469  -0.785  29.829  0.00  0.00    +0.061 A 
ATOM     28  C   UNL A   1     -27.087   0.290  28.638  0.00  0.00    +0.146 A 
ATOM     29  C   UNL A   1     -26.832   1.249  29.587  0.00  0.00    +0.044 A 
ATOM     30  C   UNL A   1     -28.391   0.080  31.006  0.00  0.00    +0.018 A 
ATOM     31  C   UNL A   1     -27.494   1.152  30.784  0.00  0.00    +0.084 A 
ATOM     32 CL   UNL A   1     -29.605  -2.185  30.274  0.00  0.00    -0.082 Cl
BRANCH  31  33
ATOM     33  C   UNL A   1     -27.323   2.183  31.896  0.00  0.00    +0.388 C 
ATOM     34  O   UNL A   1     -27.435   3.169  31.661  0.00  0.00    -0.241 OA
ATOM     35  O   UNL A   1     -27.021   1.646  33.052  0.00  0.00    -0.241 OA
ENDBRANCH  31  33
ENDBRANCH  25  28
ENDBRANCH   1  25
TORSDOF 7
