MODEL 4754
MODEL 1
REMARK VINA RESULT:    -8.293      0.000      0.000
REMARK INTER + INTRA:         -12.178
REMARK INTER:                 -10.232
REMARK INTRA:                  -1.946
REMARK UNBOUND:                -1.946
REMARK  Name = No_4754-gen_results/8p0m/2024-11-26-14-13-15/
REMARK  4 active torsions:
REMARK  status: ('A' for Active; 'I' for Inactive)
REMARK    1  A    between atoms: C_3  and  C_7
REMARK    2  A    between atoms: C_7  and  C_8
REMARK    3  A    between atoms: C_7  and  C_9
REMARK    4  A    between atoms: C_9  and  C_10
REMARK                            x       y       z     vdW  Elec       q    Type
REMARK                         _______ _______ _______ _____ _____    ______ ____
ROOT
ATOM      1  C   UNL A   1     -24.797  -1.356  29.483  0.00  0.00    +0.049 C 
ENDROOT
BRANCH   1   4
ATOM      2  C   UNL A   1     -26.019  -3.588  29.790  0.00  0.00    -0.004 A 
ATOM      3  C   UNL A   1     -26.019  -4.628  29.618  0.00  0.00    -0.000 A 
ATOM      4  C   UNL A   1     -24.914  -2.843  29.325  0.00  0.00    -0.018 A 
ATOM      5  C   UNL A   1     -23.851  -3.439  28.675  0.00  0.00    -0.004 A 
ATOM      6  C   UNL A   1     -23.935  -4.809  28.484  0.00  0.00    -0.000 A 
ATOM      7  C   UNL A   1     -25.051  -5.490  28.923  0.00  0.00    -0.000 A 
ENDBRANCH   1   4
BRANCH   1   8
ATOM      8  C   UNL A   1     -24.746  -0.898  30.808  0.00  0.00    -0.018 A 
ATOM      9  C   UNL A   1     -23.700  -1.303  31.663  0.00  0.00    -0.004 A 
ATOM     10  C   UNL A   1     -23.767  -1.184  33.003  0.00  0.00    -0.000 A 
ATOM     11  C   UNL A   1     -24.855  -0.500  33.632  0.00  0.00    -0.000 A 
ATOM     12  C   UNL A   1     -25.981  -0.177  32.811  0.00  0.00    -0.000 A 
ATOM     13  C   UNL A   1     -25.946  -0.473  31.451  0.00  0.00    -0.004 A 
ENDBRANCH   1   8
BRANCH   1  14
ATOM     14  C   UNL A   1     -24.777  -0.481  28.419  0.00  0.00    +0.030 C 
ATOM     15  C   UNL A   1     -26.033  -0.249  27.787  0.00  0.00    +0.005 C 
BRANCH  14  16
ATOM     16  C   UNL A   1     -23.653   0.175  28.016  0.00  0.00    -0.022 A 
ATOM     17  C   UNL A   1     -23.842   1.259  27.127  0.00  0.00    -0.004 A 
ATOM     18  C   UNL A   1     -22.712   1.999  26.740  0.00  0.00    -0.000 A 
ATOM     19  C   UNL A   1     -21.498   1.734  27.288  0.00  0.00    -0.000 A 
ATOM     20  C   UNL A   1     -21.342   0.668  28.176  0.00  0.00    -0.000 A 
ATOM     21  C   UNL A   1     -22.363  -0.091  28.526  0.00  0.00    -0.004 A 
ENDBRANCH  14  16
ENDBRANCH   1  14
TORSDOF 4
ENDMDL
ENDMDL
