MODEL 4755
MODEL 1
REMARK VINA RESULT:    -4.603      0.000      0.000
REMARK INTER + INTRA:          -4.603
REMARK INTER:                  -4.603
REMARK INTRA:                   0.000
REMARK UNBOUND:                 0.000
REMARK  Name = No_4755-gen_results/8p0m/2024-11-26-14-13-15/
REMARK  0 active torsions:
REMARK  status: ('A' for Active; 'I' for Inactive)
REMARK                            x       y       z     vdW  Elec       q    Type
REMARK                         _______ _______ _______ _____ _____    ______ ____
ROOT
ATOM      1  C   UNL A   1      -9.241  -9.224  20.296  0.00  0.00    +0.042 A 
ATOM      2  C   UNL A   1     -10.198  -9.098  19.567  0.00  0.00    +0.003 A 
ATOM      3  C   UNL A   1     -10.260  -9.755  18.343  0.00  0.00    +0.000 A 
ATOM      4  C   UNL A   1      -9.165 -10.570  17.883  0.00  0.00    +0.003 A 
ATOM      5  C   UNL A   1      -8.089 -10.642  18.777  0.00  0.00    +0.042 A 
ATOM      6  C   UNL A   1      -8.072  -9.988  19.916  0.00  0.00    +0.196 A 
ATOM      7  O   UNL A   1      -6.971 -10.081  20.710  0.00  0.00    -0.287 OA
ENDROOT
TORSDOF 0
ENDMDL
ENDMDL
