MODEL 4756
MODEL 1
REMARK VINA RESULT:    -4.357      0.000      0.000
REMARK INTER + INTRA:          -4.357
REMARK INTER:                  -4.357
REMARK INTRA:                   0.000
REMARK UNBOUND:                 0.000
REMARK  Name = No_4756-gen_results/8p0m/2024-11-26-14-13-15/
REMARK  0 active torsions:
REMARK  status: ('A' for Active; 'I' for Inactive)
REMARK                            x       y       z     vdW  Elec       q    Type
REMARK                         _______ _______ _______ _____ _____    ______ ____
ROOT
ATOM      1  C   UNL A   1     -24.938  -5.399  29.027  0.00  0.00    +0.000 A 
ATOM      2  C   UNL A   1     -24.201  -4.726  28.688  0.00  0.00    +0.000 A 
ATOM      3  C   UNL A   1     -26.125  -4.737  29.580  0.00  0.00    +0.000 A 
ATOM      4  C   UNL A   1     -26.176  -3.421  29.797  0.00  0.00    +0.000 A 
ATOM      5  C   UNL A   1     -24.027  -3.301  28.827  0.00  0.00    +0.000 A 
ATOM      6  C   UNL A   1     -25.130  -2.707  29.366  0.00  0.00    +0.000 A 
ENDROOT
TORSDOF 0
ENDMDL
ENDMDL
