REMARK  Name = No_4757-gen_results/8p0m/2024-11-26-14-13-15/
REMARK  2 active torsions:
REMARK  status: ('A' for Active; 'I' for Inactive)
REMARK    1  A    between atoms: C_1  and  C_2
REMARK    2  A    between atoms: C_5  and  C_9
REMARK                            x       y       z     vdW  Elec       q    Type
REMARK                         _______ _______ _______ _____ _____    ______ ____
ROOT
ATOM      1  C   UNL A   1     -27.064  -0.119  28.608  0.00  0.00    -0.006 A 
ATOM      2  C   UNL A   1     -26.876   1.133  28.913  0.00  0.00    -0.003 A 
ATOM      3  C   UNL A   1     -25.688   1.952  28.567  0.00  0.00    +0.004 A 
ATOM      4  C   UNL A   1     -24.639   1.283  27.875  0.00  0.00    +0.071 A 
ATOM      5  C   UNL A   1     -24.807  -0.051  27.604  0.00  0.00    +0.004 A 
ATOM      6  C   UNL A   1     -25.902  -0.767  27.951  0.00  0.00    -0.003 A 
ENDROOT
BRANCH   4   7
ATOM      7  C   UNL A   1     -23.448   1.990  27.482  0.00  0.00    +0.419 C 
ATOM      8  F   UNL A   1     -23.429   2.450  26.378  0.00  0.00    -0.166 F 
ATOM      9  F   UNL A   1     -23.064   2.935  28.412  0.00  0.00    -0.166 F 
ATOM     10  F   UNL A   1     -22.312   1.130  27.608  0.00  0.00    -0.166 F 
ENDBRANCH   4   7
BRANCH   1  11
ATOM     11  C   UNL A   1     -28.016  -0.814  28.878  0.00  0.00    +0.121 C 
ATOM     12 CL   UNL A   1     -28.108  -1.737  30.390  0.00  0.00    -0.108 Cl
ENDBRANCH   1  11
TORSDOF 2
