MODEL 4758
MODEL 1
REMARK VINA RESULT:    -6.222      0.000      0.000
REMARK INTER + INTRA:          -7.641
REMARK INTER:                  -7.313
REMARK INTRA:                  -0.328
REMARK UNBOUND:                -0.328
REMARK  Name = No_4758-gen_results/8p0m/2024-11-26-14-13-15/
REMARK  3 active torsions:
REMARK  status: ('A' for Active; 'I' for Inactive)
REMARK    1  A    between atoms: C_6  and  N_12
REMARK    2  A    between atoms: N_12  and  C_13
REMARK    3  A    between atoms: C_14  and  C_15
REMARK                            x       y       z     vdW  Elec       q    Type
REMARK                         _______ _______ _______ _____ _____    ______ ____
ROOT
ATOM      1  O   UNL A   1     -26.362   0.299  26.419  0.00  0.00    -0.268 OA
ATOM      2  C   UNL A   1     -25.392   0.070  26.998  0.00  0.00    +0.266 C 
ATOM      3  C   UNL A   1     -24.361   0.396  27.082  0.00  0.00    +0.051 A 
ATOM      4  N   UNL A   1     -25.673  -0.988  28.094  0.00  0.00    -0.181 NA
ATOM      5  C   UNL A   1     -23.756   1.428  26.291  0.00  0.00    +0.004 A 
ATOM      6  C   UNL A   1     -24.733  -1.377  29.017  0.00  0.00    +0.191 C 
ATOM      7  C   UNL A   1     -23.479  -0.825  28.922  0.00  0.00    +0.070 C 
ATOM      8  C   UNL A   1     -23.220   0.072  28.071  0.00  0.00    -0.014 A 
ATOM      9  C   UNL A   1     -22.969   2.178  26.387  0.00  0.00    +0.000 A 
ATOM     10  C   UNL A   1     -21.810   1.776  27.318  0.00  0.00    -0.000 A 
ATOM     11  C   UNL A   1     -21.943   0.772  28.148  0.00  0.00    -0.004 A 
ENDROOT
BRANCH   6  12
ATOM     12  N   UNL A   1     -25.112  -2.366  29.892  0.00  0.00    -0.216 NA
BRANCH  12  13
ATOM     13  C   UNL A   1     -25.990  -2.999  29.865  0.00  0.00    +0.085 C 
ATOM     14  C   UNL A   1     -25.832  -4.461  29.546  0.00  0.00    +0.063 C 
BRANCH  14  15
ATOM     15  C   UNL A   1     -24.646  -5.042  29.104  0.00  0.00    +0.236 C 
ATOM     16  O   UNL A   1     -23.808  -4.991  28.225  0.00  0.00    -0.283 OA
ENDBRANCH  14  15
ENDBRANCH  12  13
ENDBRANCH   6  12
TORSDOF 3
ENDMDL
ENDMDL
