REMARK  Name = No_4758-gen_results/8p0m/2024-11-26-14-13-15/
REMARK  3 active torsions:
REMARK  status: ('A' for Active; 'I' for Inactive)
REMARK    1  A    between atoms: C_6  and  N_12
REMARK    2  A    between atoms: N_12  and  C_13
REMARK    3  A    between atoms: C_14  and  C_15
REMARK                            x       y       z     vdW  Elec       q    Type
REMARK                         _______ _______ _______ _____ _____    ______ ____
ROOT
ATOM      1  O   UNL A   1     -28.123  -1.335  28.487  0.00  0.00    -0.268 OA
ATOM      2  C   UNL A   1     -27.481  -0.404  28.709  0.00  0.00    +0.266 C 
ATOM      3  C   UNL A   1     -27.190   0.246  29.527  0.00  0.00    +0.051 A 
ATOM      4  N   UNL A   1     -26.687  -0.000  27.442  0.00  0.00    -0.181 NA
ATOM      5  C   UNL A   1     -27.651   0.126  30.880  0.00  0.00    +0.004 A 
ATOM      6  C   UNL A   1     -25.751   1.005  27.434  0.00  0.00    +0.191 C 
ATOM      7  C   UNL A   1     -25.554   1.702  28.601  0.00  0.00    +0.070 C 
ATOM      8  C   UNL A   1     -26.149   1.378  29.667  0.00  0.00    -0.014 A 
ATOM      9  C   UNL A   1     -27.290   0.331  31.889  0.00  0.00    +0.000 A 
ATOM     10  C   UNL A   1     -26.319   1.522  31.993  0.00  0.00    -0.000 A 
ATOM     11  C   UNL A   1     -25.750   2.011  30.919  0.00  0.00    -0.004 A 
ENDROOT
BRANCH   6  12
ATOM     12  N   UNL A   1     -25.169   1.286  26.222  0.00  0.00    -0.216 NA
BRANCH  12  13
ATOM     13  C   UNL A   1     -24.126   1.470  25.994  0.00  0.00    +0.085 C 
ATOM     14  C   UNL A   1     -23.167   1.747  27.120  0.00  0.00    +0.063 C 
BRANCH  14  15
ATOM     15  C   UNL A   1     -23.551   1.961  28.441  0.00  0.00    +0.236 C 
ATOM     16  O   UNL A   1     -23.145   2.343  29.521  0.00  0.00    -0.283 OA
ENDBRANCH  14  15
ENDBRANCH  12  13
ENDBRANCH   6  12
TORSDOF 3
