REMARK  Name = No_4759-gen_results/8p0m/2024-11-26-14-13-15/
REMARK  4 active torsions:
REMARK  status: ('A' for Active; 'I' for Inactive)
REMARK    1  A    between atoms: C_3  and  C_7
REMARK    2  A    between atoms: C_7  and  C_8
REMARK    3  A    between atoms: C_7  and  C_15
REMARK    4  A    between atoms: C_8  and  C_9
REMARK                            x       y       z     vdW  Elec       q    Type
REMARK                         _______ _______ _______ _____ _____    ______ ____
ROOT
ATOM      1  C   UNL A   1     -27.460   0.380  26.709  0.00  0.00    +0.046 C 
ENDROOT
BRANCH   1   4
ATOM      2  C   UNL A   1     -28.016  -0.814  28.878  0.00  0.00    -0.004 A 
ATOM      3  C   UNL A   1     -28.469  -0.785  29.829  0.00  0.00    -0.000 A 
ATOM      4  C   UNL A   1     -28.196   0.348  28.055  0.00  0.00    -0.021 A 
ATOM      5  C   UNL A   1     -29.019   1.350  28.378  0.00  0.00    -0.004 A 
ATOM      6  C   UNL A   1     -29.411   0.180  30.378  0.00  0.00    -0.000 A 
ATOM      7  C   UNL A   1     -29.606   1.250  29.619  0.00  0.00    -0.000 A 
ENDBRANCH   1   4
BRANCH   1   8
ATOM      8  C   UNL A   1     -28.102   0.653  25.549  0.00  0.00    +0.114 C 
ATOM      9  N   UNL A   1     -28.946   1.526  25.396  0.00  0.00    -0.131 NA
ENDBRANCH   1   8
BRANCH   1  10
ATOM     10  C   UNL A   1     -26.009   0.332  26.724  0.00  0.00    +0.032 C 
BRANCH  10  11
ATOM     11  C   UNL A   1     -25.257   1.316  27.339  0.00  0.00    -0.022 A 
ATOM     12  C   UNL A   1     -25.499   2.449  27.388  0.00  0.00    -0.004 A 
ATOM     13  C   UNL A   1     -24.571   3.470  27.945  0.00  0.00    -0.000 A 
ATOM     14  C   UNL A   1     -23.351   2.996  28.259  0.00  0.00    -0.000 A 
ATOM     15  C   UNL A   1     -23.768   1.064  27.657  0.00  0.00    -0.004 A 
ATOM     16  C   UNL A   1     -22.937   1.802  28.148  0.00  0.00    -0.000 A 
ENDBRANCH  10  11
ENDBRANCH   1  10
TORSDOF 4
