MODEL 475
MODEL 1
REMARK VINA RESULT:    -5.044      0.000      0.000
REMARK INTER + INTRA:          -5.374
REMARK INTER:                  -5.339
REMARK INTRA:                  -0.035
REMARK UNBOUND:                -0.035
REMARK  Name = No_475-gen_results/8p0m/2024-11-26-14-13-15/
REMARK  1 active torsions:
REMARK  status: ('A' for Active; 'I' for Inactive)
REMARK    1  A    between atoms: C_2  and  C_5
REMARK                            x       y       z     vdW  Elec       q    Type
REMARK                         _______ _______ _______ _____ _____    ______ ____
ROOT
ATOM      1  C   UNL A   1     -28.857 -10.555  32.768  0.00  0.00    +0.007 A 
ATOM      2  C   UNL A   1     -28.138 -11.291  32.541  0.00  0.00    +0.080 A 
ATOM      3  C   UNL A   1     -29.715 -10.104  31.607  0.00  0.00    +0.000 A 
ATOM      4  C   UNL A   1     -29.609 -10.772  30.369  0.00  0.00    +0.000 A 
ATOM      5  C   UNL A   1     -28.663 -11.767  30.271  0.00  0.00    +0.000 A 
ATOM      6  C   UNL A   1     -27.907 -12.124  31.364  0.00  0.00    +0.007 A 
ENDROOT
BRANCH   2   7
ATOM      7  C   UNL A   1     -27.265 -11.779  33.719  0.00  0.00    +0.388 C 
ATOM      8  O   UNL A   1     -26.722 -12.751  33.803  0.00  0.00    -0.241 OA
ATOM      9  O   UNL A   1     -26.932 -10.780  34.587  0.00  0.00    -0.241 OA
ENDBRANCH   2   7
TORSDOF 1
ENDMDL
ENDMDL
