REMARK  Name = No_476-gen_results/8p0m/2024-11-26-14-13-15/
REMARK  3 active torsions:
REMARK  status: ('A' for Active; 'I' for Inactive)
REMARK    1  A    between atoms: C_3  and  O_7
REMARK    2  A    between atoms: O_7  and  C_8
REMARK    3  A    between atoms: C_9  and  C_10
REMARK                            x       y       z     vdW  Elec       q    Type
REMARK                         _______ _______ _______ _____ _____    ______ ____
ROOT
ATOM      1  C   UNL A   1     -28.016  -0.814  28.878  0.00  0.00    +0.003 A 
ATOM      2  C   UNL A   1     -27.064  -0.119  28.608  0.00  0.00    +0.037 A 
ATOM      3  C   UNL A   1     -25.765  -0.390  29.036  0.00  0.00    +0.145 A 
ATOM      4  C   UNL A   1     -25.530  -1.530  29.901  0.00  0.00    +0.037 A 
ATOM      5  C   UNL A   1     -26.689  -2.289  30.181  0.00  0.00    +0.003 A 
ATOM      6  C   UNL A   1     -27.873  -1.951  29.737  0.00  0.00    +0.000 A 
ENDROOT
BRANCH   3   7
ATOM      7  O   UNL A   1     -24.659   0.382  28.769  0.00  0.00    -0.450 OA
BRANCH   7   8
ATOM      8  C   UNL A   1     -23.406   0.073  29.101  0.00  0.00    +0.179 C 
ATOM      9  C   UNL A   1     -22.394   1.018  28.749  0.00  0.00    +0.041 C 
BRANCH   9  10
ATOM     10  C   UNL A   1     -22.813   2.190  28.052  0.00  0.00    +0.003 C 
ATOM     11  C   UNL A   1     -24.143   2.384  27.699  0.00  0.00    +0.000 C 
ENDBRANCH   9  10
ENDBRANCH   7   8
ENDBRANCH   3   7
TORSDOF 3
