MODEL 4760
MODEL 1
REMARK VINA RESULT:    -5.321      0.000      0.000
REMARK INTER + INTRA:          -6.262
REMARK INTER:                  -5.943
REMARK INTRA:                  -0.319
REMARK UNBOUND:                -0.319
REMARK  Name = No_4760-gen_results/8p0m/2024-11-26-14-13-15/
REMARK  2 active torsions:
REMARK  status: ('A' for Active; 'I' for Inactive)
REMARK    1  A    between atoms: C_3  and  C_4
REMARK    2  A    between atoms: C_4  and  C_8
REMARK                            x       y       z     vdW  Elec       q    Type
REMARK                         _______ _______ _______ _____ _____    ______ ____
ROOT
ATOM      1  C   UNL A   1     -23.855  -3.666  28.608  0.00  0.00    -0.004 A 
ATOM      2  C   UNL A   1     -24.181  -4.668  28.594  0.00  0.00    -0.000 A 
ATOM      3  C   UNL A   1     -24.861  -2.664  29.129  0.00  0.00    -0.018 A 
ATOM      4  C   UNL A   1     -25.351  -5.327  29.189  0.00  0.00    -0.000 A 
ATOM      5  C   UNL A   1     -26.304  -4.478  29.710  0.00  0.00    -0.000 A 
ATOM      6  C   UNL A   1     -26.087  -3.124  29.731  0.00  0.00    -0.004 A 
ENDROOT
BRANCH   3   7
ATOM      7  C   UNL A   1     -24.721  -1.229  29.116  0.00  0.00    +0.052 C 
BRANCH   7   8
ATOM      8  C   UNL A   1     -23.614  -0.639  28.534  0.00  0.00    -0.026 C 
ATOM      9  C   UNL A   1     -22.559  -0.248  29.266  0.00  0.00    -0.030 C 
ATOM     10  C   UNL A   1     -21.376  -0.046  28.714  0.00  0.00    +0.030 C 
ENDBRANCH   7   8
ENDBRANCH   3   7
TORSDOF 2
ENDMDL
ENDMDL
