REMARK  Name = No_4760-gen_results/8p0m/2024-11-26-14-13-15/
REMARK  2 active torsions:
REMARK  status: ('A' for Active; 'I' for Inactive)
REMARK    1  A    between atoms: C_3  and  C_4
REMARK    2  A    between atoms: C_4  and  C_8
REMARK                            x       y       z     vdW  Elec       q    Type
REMARK                         _______ _______ _______ _____ _____    ______ ____
ROOT
ATOM      1  C   UNL A   1     -28.016  -0.814  28.878  0.00  0.00    -0.004 A 
ATOM      2  C   UNL A   1     -28.469  -0.785  29.829  0.00  0.00    -0.000 A 
ATOM      3  C   UNL A   1     -26.504  -0.778  28.877  0.00  0.00    -0.018 A 
ATOM      4  C   UNL A   1     -27.918  -0.937  31.182  0.00  0.00    -0.000 A 
ATOM      5  C   UNL A   1     -26.542  -0.940  31.261  0.00  0.00    -0.000 A 
ATOM      6  C   UNL A   1     -25.783  -0.893  30.120  0.00  0.00    -0.004 A 
ENDROOT
BRANCH   3   7
ATOM      7  C   UNL A   1     -25.654  -0.660  27.719  0.00  0.00    +0.052 C 
BRANCH   7   8
ATOM      8  C   UNL A   1     -25.926   0.282  26.744  0.00  0.00    -0.026 C 
ATOM      9  C   UNL A   1     -24.990   0.678  25.868  0.00  0.00    -0.030 C 
ATOM     10  C   UNL A   1     -25.317   1.263  24.729  0.00  0.00    +0.030 C 
ENDBRANCH   7   8
ENDBRANCH   3   7
TORSDOF 2
