MODEL 4761
MODEL 1
REMARK VINA RESULT:    -6.009      0.000      0.000
REMARK INTER + INTRA:          -8.398
REMARK INTER:                  -7.414
REMARK INTRA:                  -0.984
REMARK UNBOUND:                -0.984
REMARK  Name = No_4761-gen_results/8p0m/2024-11-26-14-13-15/
REMARK  4 active torsions:
REMARK  status: ('A' for Active; 'I' for Inactive)
REMARK    1  A    between atoms: C_2  and  C_3
REMARK    2  A    between atoms: N_4  and  C_11
REMARK    3  A    between atoms: C_5  and  C_19
REMARK    4  A    between atoms: C_15  and  C_17
REMARK                            x       y       z     vdW  Elec       q    Type
REMARK                         _______ _______ _______ _____ _____    ______ ____
ROOT
ATOM      1  O   UNL A   1     -21.104  -0.566  29.328  0.00  0.00    -0.270 OA
ATOM      2  C   UNL A   1     -22.168  -0.277  28.993  0.00  0.00    +0.253 C 
ATOM      3  N   UNL A   1     -22.448   0.736  27.959  0.00  0.00    -0.253 N 
ATOM      4  C   UNL A   1     -21.294   1.451  27.412  0.00  0.00    +0.120 C 
ENDROOT
BRANCH   2   5
ATOM      5  C   UNL A   1     -23.277  -0.967  29.439  0.00  0.00    +0.054 A 
ATOM      6  C   UNL A   1     -24.173  -0.464  30.417  0.00  0.00    +0.004 A 
ATOM      7  C   UNL A   1     -23.624  -2.279  28.919  0.00  0.00    +0.004 A 
ATOM      8  C   UNL A   1     -25.220  -1.265  30.925  0.00  0.00    +0.000 A 
ATOM      9  C   UNL A   1     -24.808  -2.985  29.265  0.00  0.00    +0.000 A 
ATOM     10  C   UNL A   1     -25.592  -2.427  30.316  0.00  0.00    +0.000 A 
BRANCH   6  11
ATOM     11  C   UNL A   1     -23.880   0.793  31.087  0.00  0.00    -0.004 C 
ATOM     12  C   UNL A   1     -24.617   1.624  31.158  0.00  0.00    -0.026 C 
ATOM     13  C   UNL A   1     -24.667   2.796  31.973  0.00  0.00    +0.031 C 
ENDBRANCH   6  11
ENDBRANCH   2   5
BRANCH   3  14
ATOM     14  C   UNL A   1     -23.722   1.037  27.486  0.00  0.00    +0.054 A 
ATOM     15  C   UNL A   1     -24.312   0.343  26.803  0.00  0.00    +0.015 A 
ATOM     16  C   UNL A   1     -25.580   0.772  26.231  0.00  0.00    +0.001 A 
ATOM     17  C   UNL A   1     -25.966   2.114  26.498  0.00  0.00    +0.003 A 
ATOM     18  C   UNL A   1     -25.082   2.777  27.374  0.00  0.00    +0.043 A 
ATOM     19  C   UNL A   1     -24.030   2.356  27.831  0.00  0.00    +0.018 A 
BRANCH  18  20
ATOM     20  C   UNL A   1     -25.653   4.252  27.660  0.00  0.00    +0.234 C 
ATOM     21  O   UNL A   1     -25.470   4.732  28.837  0.00  0.00    -0.283 OA
ENDBRANCH  18  20
ENDBRANCH   3  14
TORSDOF 4
ENDMDL
ENDMDL
