REMARK  Name = No_4761-gen_results/8p0m/2024-11-26-14-13-15/
REMARK  4 active torsions:
REMARK  status: ('A' for Active; 'I' for Inactive)
REMARK    1  A    between atoms: C_2  and  C_3
REMARK    2  A    between atoms: N_4  and  C_11
REMARK    3  A    between atoms: C_5  and  C_19
REMARK    4  A    between atoms: C_15  and  C_17
REMARK                            x       y       z     vdW  Elec       q    Type
REMARK                         _______ _______ _______ _____ _____    ______ ____
ROOT
ATOM      1  O   UNL A   1     -28.123  -1.335  28.487  0.00  0.00    -0.270 OA
ATOM      2  C   UNL A   1     -27.481  -0.404  28.709  0.00  0.00    +0.253 C 
ATOM      3  N   UNL A   1     -27.666   0.447  29.899  0.00  0.00    -0.253 N 
ATOM      4  C   UNL A   1     -28.786   0.110  30.779  0.00  0.00    +0.120 C 
ENDROOT
BRANCH   2   5
ATOM      5  C   UNL A   1     -26.380  -0.087  27.939  0.00  0.00    +0.054 A 
ATOM      6  C   UNL A   1     -26.409   0.857  26.880  0.00  0.00    +0.004 A 
ATOM      7  C   UNL A   1     -25.082  -0.697  28.170  0.00  0.00    +0.004 A 
ATOM      8  C   UNL A   1     -25.284   1.049  26.047  0.00  0.00    +0.000 A 
ATOM      9  C   UNL A   1     -23.895  -0.331  27.478  0.00  0.00    +0.000 A 
ATOM     10  C   UNL A   1     -24.055   0.564  26.381  0.00  0.00    +0.000 A 
BRANCH   6  11
ATOM     11  C   UNL A   1     -27.671   1.461  26.484  0.00  0.00    -0.004 C 
ATOM     12  C   UNL A   1     -28.171   2.257  27.080  0.00  0.00    -0.026 C 
ATOM     13  C   UNL A   1     -29.225   3.169  26.769  0.00  0.00    +0.031 C 
ENDBRANCH   6  11
ENDBRANCH   2   5
BRANCH   3  14
ATOM     14  C   UNL A   1     -26.847   1.525  30.222  0.00  0.00    +0.054 A 
ATOM     15  C   UNL A   1     -27.219   2.601  30.258  0.00  0.00    +0.015 A 
ATOM     16  C   UNL A   1     -26.286   3.699  30.467  0.00  0.00    +0.001 A 
ATOM     17  C   UNL A   1     -24.909   3.349  30.521  0.00  0.00    +0.003 A 
ATOM     18  C   UNL A   1     -24.692   1.957  30.464  0.00  0.00    +0.043 A 
ATOM     19  C   UNL A   1     -25.524   1.079  30.295  0.00  0.00    +0.018 A 
BRANCH  18  20
ATOM     20  C   UNL A   1     -23.115   1.677  30.605  0.00  0.00    +0.234 C 
ATOM     21  O   UNL A   1     -22.758   0.480  30.901  0.00  0.00    -0.283 OA
ENDBRANCH  18  20
ENDBRANCH   3  14
TORSDOF 4
