REMARK  Name = No_4762-gen_results/8p0m/2024-11-26-14-13-15/
REMARK  3 active torsions:
REMARK  status: ('A' for Active; 'I' for Inactive)
REMARK    1  A    between atoms: C_2  and  C_8
REMARK    2  A    between atoms: N_10  and  C_12
REMARK    3  A    between atoms: C_12  and  C_13
REMARK                            x       y       z     vdW  Elec       q    Type
REMARK                         _______ _______ _______ _____ _____    ______ ____
ROOT
ATOM      1  C   UNL A   1     -30.095  -0.841  29.850  0.00  0.00    +0.249 C 
ATOM      2  O   UNL A   1     -30.739  -1.668  30.174  0.00  0.00    -0.270 OA
ATOM      3  N   UNL A   1     -30.596   0.115  28.904  0.00  0.00    -0.270 N 
ATOM      4  C   UNL A   1     -31.972   0.120  28.625  0.00  0.00    +0.116 C 
ENDROOT
BRANCH   1   6
ATOM      5  C   UNL A   1     -28.016  -0.814  28.878  0.00  0.00    +0.007 A 
ATOM      6  C   UNL A   1     -28.469  -0.785  29.829  0.00  0.00    +0.054 A 
ATOM      7  C   UNL A   1     -26.504  -0.778  28.877  0.00  0.00    +0.030 A 
ATOM      8  C   UNL A   1     -25.810  -0.853  30.103  0.00  0.00    +0.140 A 
ATOM      9  C   UNL A   1     -27.991  -0.892  31.226  0.00  0.00    +0.007 A 
ATOM     10  C   UNL A   1     -26.604  -0.868  31.265  0.00  0.00    +0.030 A 
ATOM     11  F   UNL A   1     -24.553  -0.787  30.141  0.00  0.00    -0.204 F 
ENDBRANCH   1   6
BRANCH   3  12
ATOM     12  C   UNL A   1     -29.834   1.224  28.368  0.00  0.00    +0.120 C 
BRANCH  12  13
ATOM     13  C   UNL A   1     -30.130   2.449  29.004  0.00  0.00    -0.002 A 
ATOM     14  C   UNL A   1     -29.273   3.362  28.977  0.00  0.00    -0.003 A 
ATOM     15  C   UNL A   1     -29.373   4.614  29.799  0.00  0.00    -0.000 A 
ATOM     16  C   UNL A   1     -30.626   4.782  30.414  0.00  0.00    -0.000 A 
ATOM     17  C   UNL A   1     -31.546   3.767  30.392  0.00  0.00    -0.000 A 
ATOM     18  C   UNL A   1     -31.284   2.597  29.770  0.00  0.00    -0.003 A 
ENDBRANCH  12  13
ENDBRANCH   3  12
TORSDOF 3
