MODEL 4762
MODEL 1
REMARK VINA RESULT:    -7.363      0.000      0.000
REMARK INTER + INTRA:          -8.465
REMARK INTER:                  -8.654
REMARK INTRA:                   0.189
REMARK UNBOUND:                 0.189
REMARK  Name = No_4762-gen_results/8p0m/2024-11-26-14-13-15/
REMARK  3 active torsions:
REMARK  status: ('A' for Active; 'I' for Inactive)
REMARK    1  A    between atoms: C_2  and  C_8
REMARK    2  A    between atoms: N_10  and  C_12
REMARK    3  A    between atoms: C_12  and  C_13
REMARK                            x       y       z     vdW  Elec       q    Type
REMARK                         _______ _______ _______ _____ _____    ______ ____
ROOT
ATOM      1  C   UNL A   1     -23.511   0.763  29.971  0.00  0.00    +0.249 C 
ATOM      2  O   UNL A   1     -23.441   1.398  30.864  0.00  0.00    -0.270 OA
ATOM      3  N   UNL A   1     -23.384  -0.660  30.105  0.00  0.00    -0.270 N 
ATOM      4  C   UNL A   1     -23.440  -1.217  31.392  0.00  0.00    +0.116 C 
ENDROOT
BRANCH   1   6
ATOM      5  C   UNL A   1     -22.201   1.432  28.210  0.00  0.00    +0.007 A 
ATOM      6  C   UNL A   1     -23.197   1.167  28.427  0.00  0.00    +0.054 A 
ATOM      7  C   UNL A   1     -21.929   1.821  26.774  0.00  0.00    +0.030 A 
ATOM      8  C   UNL A   1     -23.010   1.944  25.875  0.00  0.00    +0.140 A 
ATOM      9  C   UNL A   1     -24.487   1.241  27.703  0.00  0.00    +0.007 A 
ATOM     10  C   UNL A   1     -24.278   1.602  26.380  0.00  0.00    +0.030 A 
ATOM     11  F   UNL A   1     -22.816   2.229  24.664  0.00  0.00    -0.204 F 
ENDBRANCH   1   6
BRANCH   3  12
ATOM     12  C   UNL A   1     -23.418  -1.599  29.003  0.00  0.00    +0.120 C 
BRANCH  12  13
ATOM     13  C   UNL A   1     -24.293  -2.682  29.233  0.00  0.00    -0.002 A 
ATOM     14  C   UNL A   1     -23.903  -3.839  28.955  0.00  0.00    -0.003 A 
ATOM     15  C   UNL A   1     -24.809  -5.036  28.941  0.00  0.00    -0.000 A 
ATOM     16  C   UNL A   1     -26.074  -4.787  29.501  0.00  0.00    -0.000 A 
ATOM     17  C   UNL A   1     -26.448  -3.508  29.820  0.00  0.00    -0.000 A 
ATOM     18  C   UNL A   1     -25.613  -2.465  29.623  0.00  0.00    -0.003 A 
ENDBRANCH  12  13
ENDBRANCH   3  12
TORSDOF 3
ENDMDL
ENDMDL
