MODEL 4763
MODEL 1
REMARK VINA RESULT:    -4.592      0.000      0.000
REMARK INTER + INTRA:          -4.592
REMARK INTER:                  -4.592
REMARK INTRA:                   0.000
REMARK UNBOUND:                 0.000
REMARK  Name = No_4763-gen_results/8p0m/2024-11-26-14-13-15/
REMARK  0 active torsions:
REMARK  status: ('A' for Active; 'I' for Inactive)
REMARK                            x       y       z     vdW  Elec       q    Type
REMARK                         _______ _______ _______ _____ _____    ______ ____
ROOT
ATOM      1  C   UNL A   1      -8.194  -9.756  20.054  0.00  0.00    +0.140 A 
ATOM      2  C   UNL A   1      -9.255  -9.213  20.262  0.00  0.00    +0.030 A 
ATOM      3  C   UNL A   1     -10.290  -9.182  19.348  0.00  0.00    +0.002 A 
ATOM      4  C   UNL A   1     -10.108  -9.861  18.111  0.00  0.00    +0.000 A 
ATOM      5  C   UNL A   1      -8.976 -10.594  17.995  0.00  0.00    +0.002 A 
ATOM      6  C   UNL A   1      -8.055 -10.597  18.940  0.00  0.00    +0.030 A 
ATOM      7  F   UNL A   1      -7.235  -9.800  21.001  0.00  0.00    -0.204 F 
ENDROOT
TORSDOF 0
ENDMDL
ENDMDL
