MODEL 4764
MODEL 1
REMARK VINA RESULT:    -6.711      0.000      0.000
REMARK INTER + INTRA:          -8.756
REMARK INTER:                  -8.281
REMARK INTRA:                  -0.475
REMARK UNBOUND:                -0.475
REMARK  Name = No_4764-gen_results/8p0m/2024-11-26-14-13-15/
REMARK  4 active torsions:
REMARK  status: ('A' for Active; 'I' for Inactive)
REMARK    1  A    between atoms: N_4  and  C_15
REMARK    2  A    between atoms: C_11  and  C_12
REMARK    3  A    between atoms: C_15  and  C_16
REMARK    4  A    between atoms: C_16  and  C_17
REMARK                            x       y       z     vdW  Elec       q    Type
REMARK                         _______ _______ _______ _____ _____    ______ ____
ROOT
ATOM      1  O   UNL A   1     -23.798   2.738  25.790  0.00  0.00    -0.270 OA
ATOM      2  C   UNL A   1     -24.052   1.869  26.632  0.00  0.00    +0.249 C 
ATOM      3  C   UNL A   1     -23.585   1.285  27.353  0.00  0.00    +0.050 A 
ATOM      4  N   UNL A   1     -25.542   1.304  26.360  0.00  0.00    -0.275 N 
ATOM      5  C   UNL A   1     -23.953   0.116  28.215  0.00  0.00    -0.010 A 
ATOM      6  C   UNL A   1     -25.332  -0.252  27.961  0.00  0.00    +0.048 C 
ATOM      7  C   UNL A   1     -26.042   0.341  27.013  0.00  0.00    +0.098 C 
ATOM      8  C   UNL A   1     -22.091   1.615  27.744  0.00  0.00    +0.004 A 
ATOM      9  C   UNL A   1     -21.208   0.714  28.050  0.00  0.00    +0.000 A 
ATOM     10  C   UNL A   1     -21.683  -0.428  28.910  0.00  0.00    +0.006 A 
ATOM     11  C   UNL A   1     -23.034  -0.825  28.792  0.00  0.00    +0.076 A 
ENDROOT
BRANCH  11  12
ATOM     12  C   UNL A   1     -23.454  -2.024  29.494  0.00  0.00    +0.387 C 
ATOM     13  O   UNL A   1     -23.506  -3.161  28.823  0.00  0.00    -0.241 OA
ATOM     14  O   UNL A   1     -24.010  -1.965  30.701  0.00  0.00    -0.241 OA
ENDBRANCH  11  12
BRANCH   4  15
ATOM     15  C   UNL A   1     -26.179   2.244  25.449  0.00  0.00    +0.098 C 
BRANCH  15  16
ATOM     16  C   UNL A   1     -26.970   3.086  25.402  0.00  0.00    +0.048 C 
BRANCH  16  17
ATOM     17  C   UNL A   1     -28.135   2.733  24.630  0.00  0.00    -0.024 A 
ATOM     18  C   UNL A   1     -28.319   2.063  23.879  0.00  0.00    -0.004 A 
ATOM     19  C   UNL A   1     -29.601   1.786  23.118  0.00  0.00    -0.000 A 
ATOM     20  C   UNL A   1     -30.664   2.641  23.360  0.00  0.00    -0.000 A 
ATOM     21  C   UNL A   1     -30.490   3.625  24.339  0.00  0.00    -0.005 A 
ATOM     22  C   UNL A   1     -29.299   3.665  25.032  0.00  0.00    -0.026 A 
ATOM     23  C   UNL A   1     -30.119   2.666  26.019  0.00  0.00    +0.031 C 
ENDBRANCH  16  17
ENDBRANCH  15  16
ENDBRANCH   4  15
TORSDOF 4
ENDMDL
ENDMDL
