MODEL 4765
MODEL 1
REMARK VINA RESULT:    -7.796      0.000      0.000
REMARK INTER + INTRA:         -11.265
REMARK INTER:                 -10.530
REMARK INTRA:                  -0.734
REMARK UNBOUND:                -0.734
REMARK  Name = No_4765-gen_results/8p0m/2024-11-26-14-13-15/
REMARK  6 active torsions:
REMARK  status: ('A' for Active; 'I' for Inactive)
REMARK    1  A    between atoms: C_2  and  C_7
REMARK    2  A    between atoms: N_8  and  C_10
REMARK    3  A    between atoms: C_10  and  C_19
REMARK    4  A    between atoms: C_11  and  C_12
REMARK    5  A    between atoms: C_19  and  N_20
REMARK    6  A    between atoms: C_21  and  C_22
REMARK                            x       y       z     vdW  Elec       q    Type
REMARK                         _______ _______ _______ _____ _____    ______ ____
ROOT
ATOM      1  C   UNL A   1     -24.256  -0.772  30.484  0.00  0.00    +0.076 C 
ATOM      2  C   UNL A   1     -24.996  -1.162  29.541  0.00  0.00    +0.014 C 
ENDROOT
BRANCH   2   3
ATOM      3  C   UNL A   1     -25.087  -2.565  29.069  0.00  0.00    +0.001 A 
ATOM      4  C   UNL A   1     -23.955  -3.191  28.666  0.00  0.00    +0.000 A 
ATOM      5  C   UNL A   1     -23.999  -4.637  28.546  0.00  0.00    +0.000 A 
ATOM      6  C   UNL A   1     -25.120  -5.255  29.090  0.00  0.00    +0.000 A 
ATOM      7  C   UNL A   1     -26.032  -3.553  29.583  0.00  0.00    +0.000 A 
ATOM      8  C   UNL A   1     -26.088  -4.725  29.517  0.00  0.00    +0.000 A 
ENDBRANCH   2   3
BRANCH   1  10
ATOM      9  C   UNL A   1     -24.087  -0.841  32.535  0.00  0.00    +0.269 C 
ATOM     10  N   UNL A   1     -24.499  -0.910  31.599  0.00  0.00    -0.178 NA
ATOM     11  O   UNL A   1     -22.854  -1.498  32.704  0.00  0.00    -0.268 OA
BRANCH   9  13
ATOM     12  C   UNL A   1     -24.475  -1.051  35.006  0.00  0.00    +0.016 A 
ATOM     13  C   UNL A   1     -24.760  -0.666  33.896  0.00  0.00    +0.056 A 
ATOM     14  C   UNL A   1     -25.842   0.182  33.686  0.00  0.00    +0.005 A 
ATOM     15  C   UNL A   1     -26.685   0.592  34.779  0.00  0.00    +0.001 A 
ATOM     16  C   UNL A   1     -26.298   0.081  36.024  0.00  0.00    +0.011 A 
ATOM     17  C   UNL A   1     -25.275  -0.731  36.168  0.00  0.00    +0.058 A 
ATOM     18 CL   UNL A   1     -24.938  -1.319  37.729  0.00  0.00    -0.082 Cl
ENDBRANCH   9  13
ENDBRANCH   1  10
BRANCH   1  19
ATOM     19  C   UNL A   1     -23.022   0.021  30.079  0.00  0.00    +0.168 C 
BRANCH  19  20
ATOM     20  N   UNL A   1     -23.066   0.893  29.169  0.00  0.00    -0.263 NA
ATOM     21  C   UNL A   1     -22.541   0.816  27.982  0.00  0.00    +0.093 C 
BRANCH  21  22
ATOM     22  C   UNL A   1     -22.577   1.912  26.998  0.00  0.00    +0.016 C 
ATOM     23  C   UNL A   1     -23.257   1.960  26.172  0.00  0.00    -0.024 C 
ATOM     24  C   UNL A   1     -24.322   0.885  25.964  0.00  0.00    +0.031 C 
ENDBRANCH  21  22
ENDBRANCH  19  20
ENDBRANCH   1  19
TORSDOF 6
ENDMDL
ENDMDL
