REMARK  Name = No_4765-gen_results/8p0m/2024-11-26-14-13-15/
REMARK  6 active torsions:
REMARK  status: ('A' for Active; 'I' for Inactive)
REMARK    1  A    between atoms: C_2  and  C_7
REMARK    2  A    between atoms: N_8  and  C_10
REMARK    3  A    between atoms: C_10  and  C_19
REMARK    4  A    between atoms: C_11  and  C_12
REMARK    5  A    between atoms: C_19  and  N_20
REMARK    6  A    between atoms: C_21  and  C_22
REMARK                            x       y       z     vdW  Elec       q    Type
REMARK                         _______ _______ _______ _____ _____    ______ ____
ROOT
ATOM      1  C   UNL A   1     -26.363   3.083  27.531  0.00  0.00    +0.076 C 
ATOM      2  C   UNL A   1     -25.536   3.178  26.584  0.00  0.00    +0.014 C 
ENDROOT
BRANCH   2   3
ATOM      3  C   UNL A   1     -24.075   2.961  26.720  0.00  0.00    +0.001 A 
ATOM      4  C   UNL A   1     -23.566   2.715  27.951  0.00  0.00    +0.000 A 
ATOM      5  C   UNL A   1     -22.223   2.167  28.021  0.00  0.00    +0.000 A 
ATOM      6  C   UNL A   1     -21.689   1.722  26.816  0.00  0.00    +0.000 A 
ATOM      7  C   UNL A   1     -23.233   2.325  25.710  0.00  0.00    +0.000 A 
ATOM      8  C   UNL A   1     -22.154   1.860  25.737  0.00  0.00    +0.000 A 
ENDBRANCH   2   3
BRANCH   1  10
ATOM      9  C   UNL A   1     -26.897   1.102  27.705  0.00  0.00    +0.269 C 
ATOM     10  N   UNL A   1     -26.762   2.089  27.947  0.00  0.00    -0.178 NA
ATOM     11  O   UNL A   1     -27.533   0.863  26.472  0.00  0.00    -0.268 OA
BRANCH   9  13
ATOM     12  C   UNL A   1     -28.016  -0.814  28.878  0.00  0.00    +0.016 A 
ATOM     13  C   UNL A   1     -27.064  -0.119  28.608  0.00  0.00    +0.056 A 
ATOM     14  C   UNL A   1     -25.792  -0.430  29.076  0.00  0.00    +0.005 A 
ATOM     15  C   UNL A   1     -25.576  -1.565  29.936  0.00  0.00    +0.001 A 
ATOM     16  C   UNL A   1     -26.735  -2.300  30.217  0.00  0.00    +0.011 A 
ATOM     17  C   UNL A   1     -27.918  -1.954  29.763  0.00  0.00    +0.058 A 
ATOM     18 CL   UNL A   1     -29.255  -2.905  30.218  0.00  0.00    -0.082 Cl
ENDBRANCH   9  13
ENDBRANCH   1  10
BRANCH   1  19
ATOM     19  C   UNL A   1     -26.926   4.395  28.058  0.00  0.00    +0.168 C 
BRANCH  19  20
ATOM     20  N   UNL A   1     -27.186   4.559  29.281  0.00  0.00    -0.263 NA
ATOM     21  C   UNL A   1     -27.587   5.652  29.859  0.00  0.00    +0.093 C 
BRANCH  21  22
ATOM     22  C   UNL A   1     -27.801   5.780  31.311  0.00  0.00    +0.016 C 
ATOM     23  C   UNL A   1     -27.676   4.980  32.013  0.00  0.00    -0.024 C 
ATOM     24  C   UNL A   1     -27.197   3.602  31.560  0.00  0.00    +0.031 C 
ENDBRANCH  21  22
ENDBRANCH  19  20
ENDBRANCH   1  19
TORSDOF 6
