MODEL 4766
MODEL 1
REMARK VINA RESULT:    -5.286      0.000      0.000
REMARK INTER + INTRA:          -5.744
REMARK INTER:                  -5.596
REMARK INTRA:                  -0.148
REMARK UNBOUND:                -0.148
REMARK  Name = No_4766-gen_results/8p0m/2024-11-26-14-13-15/
REMARK  1 active torsions:
REMARK  status: ('A' for Active; 'I' for Inactive)
REMARK    1  A    between atoms: C_4  and  C_7
REMARK                            x       y       z     vdW  Elec       q    Type
REMARK                         _______ _______ _______ _____ _____    ______ ____
ROOT
ATOM      1  C   UNL A   1     -26.621  -3.964  29.853  0.00  0.00    -0.000 A 
ATOM      2  C   UNL A   1     -26.130  -4.872  29.641  0.00  0.00    -0.000 A 
ATOM      3  C   UNL A   1     -25.810  -2.713  29.599  0.00  0.00    -0.000 A 
ATOM      4  C   UNL A   1     -24.547  -2.822  28.980  0.00  0.00    -0.000 A 
ATOM      5  C   UNL A   1     -24.864  -5.255  28.975  0.00  0.00    -0.000 A 
ATOM      6  C   UNL A   1     -24.094  -4.129  28.721  0.00  0.00    -0.000 A 
ENDROOT
BRANCH   4   7
ATOM      7  C   UNL A   1     -23.732  -1.681  28.734  0.00  0.00    -0.005 C 
ATOM      8  C   UNL A   1     -22.773  -1.322  29.480  0.00  0.00    -0.026 C 
ATOM      9  C   UNL A   1     -21.853  -0.222  29.140  0.00  0.00    +0.031 C 
ENDBRANCH   4   7
TORSDOF 1
ENDMDL
ENDMDL
