MODEL 4767
MODEL 1
REMARK VINA RESULT:    -6.353      0.000      0.000
REMARK INTER + INTRA:          -6.682
REMARK INTER:                  -6.725
REMARK INTRA:                   0.042
REMARK UNBOUND:                 0.042
REMARK  Name = No_4767-gen_results/8p0m/2024-11-26-14-13-15/
REMARK  1 active torsions:
REMARK  status: ('A' for Active; 'I' for Inactive)
REMARK    1  A    between atoms: C_2  and  C_7
REMARK                            x       y       z     vdW  Elec       q    Type
REMARK                         _______ _______ _______ _____ _____    ______ ____
ROOT
ATOM      1  C   UNL A   1     -23.576  -1.111  29.382  0.00  0.00    +0.249 C 
ATOM      2  O   UNL A   1     -22.733  -1.178  30.104  0.00  0.00    -0.270 OA
ATOM      3  N   UNL A   1     -23.761  -0.079  28.457  0.00  0.00    -0.276 N 
ATOM      4  C   UNL A   1     -22.808   0.987  28.444  0.00  0.00    +0.094 C 
ATOM      5  C   UNL A   1     -22.754   1.615  27.401  0.00  0.00    +0.022 C 
ATOM      6  C   UNL A   1     -23.760   1.520  26.312  0.00  0.00    +0.004 C 
ATOM      7  C   UNL A   1     -24.591   0.660  26.471  0.00  0.00    +0.022 C 
ATOM      8  C   UNL A   1     -24.645  -0.331  27.383  0.00  0.00    +0.094 C 
ENDROOT
BRANCH   1  10
ATOM      9  C   UNL A   1     -25.489  -2.235  29.912  0.00  0.00    +0.004 A 
ATOM     10  C   UNL A   1     -24.571  -2.372  29.413  0.00  0.00    +0.054 A 
ATOM     11  C   UNL A   1     -26.402  -3.441  29.938  0.00  0.00    +0.000 A 
ATOM     12  C   UNL A   1     -25.931  -4.674  29.441  0.00  0.00    +0.000 A 
ATOM     13  C   UNL A   1     -23.841  -3.531  28.854  0.00  0.00    +0.004 A 
ATOM     14  C   UNL A   1     -24.646  -4.661  28.866  0.00  0.00    +0.000 A 
ENDBRANCH   1  10
TORSDOF 1
ENDMDL
ENDMDL
