MODEL 4768
MODEL 1
REMARK VINA RESULT:    -6.149      0.000      0.000
REMARK INTER + INTRA:          -8.853
REMARK INTER:                  -7.946
REMARK INTRA:                  -0.907
REMARK UNBOUND:                -0.907
REMARK  Name = No_4768-gen_results/8p0m/2024-11-26-14-13-15/
REMARK  5 active torsions:
REMARK  status: ('A' for Active; 'I' for Inactive)
REMARK    1  A    between atoms: N_3  and  C_7
REMARK    2  A    between atoms: C_5  and  N_14
REMARK    3  A    between atoms: C_7  and  C_8
REMARK    4  A    between atoms: N_14  and  C_15
REMARK    5  A    between atoms: C_17  and  C_18
REMARK                            x       y       z     vdW  Elec       q    Type
REMARK                         _______ _______ _______ _____ _____    ______ ____
ROOT
ATOM      1  C   UNL A   1     -25.605   0.838  29.605  0.00  0.00    +0.074 C 
ATOM      2  C   UNL A   1     -25.689   1.447  28.749  0.00  0.00    +0.037 C 
ATOM      3  N   UNL A   1     -24.525  -0.074  29.622  0.00  0.00    -0.269 NA
ATOM      4  C   UNL A   1     -23.427   0.269  28.892  0.00  0.00    +0.074 C 
ATOM      5  C   UNL A   1     -24.604   2.167  27.944  0.00  0.00    +0.076 C 
ATOM      6  C   UNL A   1     -23.520   1.192  27.793  0.00  0.00    +0.037 C 
ENDROOT
BRANCH   5   7
ATOM      7  N   UNL A   1     -24.944   2.666  26.648  0.00  0.00    -0.306 N 
ATOM      8  C   UNL A   1     -23.752   3.036  25.825  0.00  0.00    +0.112 C 
BRANCH   7   9
ATOM      9  C   UNL A   1     -26.025   2.799  26.176  0.00  0.00    +0.061 C 
ATOM     10  C   UNL A   1     -26.684   2.037  25.442  0.00  0.00    +0.015 C 
BRANCH  10  11
ATOM     11  C   UNL A   1     -26.978   0.974  25.392  0.00  0.00    -0.003 C 
ATOM     12  C   UNL A   1     -26.330  -0.256  24.877  0.00  0.00    -0.026 C 
ATOM     13  C   UNL A   1     -25.011  -0.046  24.539  0.00  0.00    +0.031 C 
ENDBRANCH  10  11
ENDBRANCH   7   9
ENDBRANCH   5   7
BRANCH   3  14
ATOM     14  C   UNL A   1     -24.373  -1.215  30.465  0.00  0.00    +0.099 C 
BRANCH  14  15
ATOM     15  C   UNL A   1     -24.648  -2.477  29.859  0.00  0.00    -0.006 A 
ATOM     16  C   UNL A   1     -23.820  -3.163  29.101  0.00  0.00    -0.003 A 
ATOM     17  C   UNL A   1     -25.993  -3.009  30.118  0.00  0.00    -0.003 A 
ATOM     18  C   UNL A   1     -26.281  -4.352  29.711  0.00  0.00    -0.000 A 
ATOM     19  C   UNL A   1     -24.115  -4.472  28.605  0.00  0.00    -0.000 A 
ATOM     20  C   UNL A   1     -25.314  -5.062  28.966  0.00  0.00    -0.000 A 
ENDBRANCH  14  15
ENDBRANCH   3  14
TORSDOF 5
ENDMDL
ENDMDL
