REMARK  Name = No_4768-gen_results/8p0m/2024-11-26-14-13-15/
REMARK  5 active torsions:
REMARK  status: ('A' for Active; 'I' for Inactive)
REMARK    1  A    between atoms: N_3  and  C_7
REMARK    2  A    between atoms: C_5  and  N_14
REMARK    3  A    between atoms: C_7  and  C_8
REMARK    4  A    between atoms: N_14  and  C_15
REMARK    5  A    between atoms: C_17  and  C_18
REMARK                            x       y       z     vdW  Elec       q    Type
REMARK                         _______ _______ _______ _____ _____    ______ ____
ROOT
ATOM      1  C   UNL A   1     -28.016  -0.814  28.878  0.00  0.00    +0.074 C 
ATOM      2  C   UNL A   1     -28.469  -0.785  29.829  0.00  0.00    +0.037 C 
ATOM      3  N   UNL A   1     -26.608  -0.945  28.857  0.00  0.00    -0.269 NA
ATOM      4  C   UNL A   1     -26.040  -1.569  29.926  0.00  0.00    +0.074 C 
ATOM      5  C   UNL A   1     -28.171  -1.608  31.085  0.00  0.00    +0.076 C 
ATOM      6  C   UNL A   1     -26.710  -1.631  31.197  0.00  0.00    +0.037 C 
ENDROOT
BRANCH   5   7
ATOM      7  N   UNL A   1     -28.710  -1.158  32.331  0.00  0.00    -0.306 N 
ATOM      8  C   UNL A   1     -29.895  -1.948  32.783  0.00  0.00    +0.112 C 
BRANCH   7   9
ATOM      9  C   UNL A   1     -28.323  -0.269  33.016  0.00  0.00    +0.061 C 
ATOM     10  C   UNL A   1     -27.512   0.645  32.770  0.00  0.00    +0.015 C 
BRANCH  10  11
ATOM     11  C   UNL A   1     -27.308   1.389  31.980  0.00  0.00    -0.003 C 
ATOM     12  C   UNL A   1     -26.248   2.402  31.760  0.00  0.00    -0.026 C 
ATOM     13  C   UNL A   1     -25.208   2.268  32.653  0.00  0.00    +0.031 C 
ENDBRANCH  10  11
ENDBRANCH   7   9
ENDBRANCH   5   7
BRANCH   3  14
ATOM     14  C   UNL A   1     -25.733  -0.675  27.763  0.00  0.00    +0.099 C 
BRANCH  14  15
ATOM     15  C   UNL A   1     -24.495  -0.050  28.097  0.00  0.00    -0.006 A 
ATOM     16  C   UNL A   1     -23.552  -0.568  28.854  0.00  0.00    -0.003 A 
ATOM     17  C   UNL A   1     -24.308   1.295  27.537  0.00  0.00    -0.003 A 
ATOM     18  C   UNL A   1     -23.020   1.909  27.661  0.00  0.00    -0.000 A 
ATOM     19  C   UNL A   1     -22.286   0.063  29.070  0.00  0.00    -0.000 A 
ATOM     20  C   UNL A   1     -22.025   1.260  28.425  0.00  0.00    -0.000 A 
ENDBRANCH  14  15
ENDBRANCH   3  14
TORSDOF 5
