MODEL 4769
MODEL 1
REMARK VINA RESULT:    -6.313      0.000      0.000
REMARK INTER + INTRA:         -14.984
REMARK INTER:                 -10.003
REMARK INTRA:                  -4.981
REMARK UNBOUND:                -4.981
REMARK  Name = No_4769-gen_results/8p0m/2024-11-26-14-13-15/
REMARK  10 active torsions:
REMARK  status: ('A' for Active; 'I' for Inactive)
REMARK    1  A    between atoms: C_2  and  C_21
REMARK    2  A    between atoms: C_3  and  C_7
REMARK    3  A    between atoms: C_6  and  C_18
REMARK    4  A    between atoms: C_7  and  C_8
REMARK    5  A    between atoms: C_7  and  C_15
REMARK    6  A    between atoms: C_18  and  O_20
REMARK    7  A    between atoms: O_20  and  C_24
REMARK    8  A    between atoms: C_24  and  C_25
REMARK    9  A    between atoms: N_27  and  C_28
REMARK   10  A    between atoms: C_28  and  C_29
REMARK                            x       y       z     vdW  Elec       q    Type
REMARK                         _______ _______ _______ _____ _____    ______ ____
ROOT
ATOM      1  C   UNL A   1     -30.985 -15.071  11.081  0.00  0.00    +0.003 A 
ATOM      2  C   UNL A   1     -30.039 -15.462  11.330  0.00  0.00    +0.080 A 
ATOM      3  C   UNL A   1     -31.409 -15.254   9.722  0.00  0.00    -0.015 A 
ATOM      4  C   UNL A   1     -30.608 -15.736   8.768  0.00  0.00    +0.003 A 
ATOM      5  C   UNL A   1     -29.002 -16.003  10.462  0.00  0.00    +0.013 A 
ATOM      6  C   UNL A   1     -29.370 -16.157   9.198  0.00  0.00    +0.076 A 
ENDROOT
BRANCH   2   7
ATOM      7  C   UNL A   1     -29.459 -15.370  12.822  0.00  0.00    +0.388 C 
ATOM      8  O   UNL A   1     -29.893 -14.631  13.559  0.00  0.00    -0.241 OA
ATOM      9  O   UNL A   1     -28.466 -16.180  13.146  0.00  0.00    -0.241 OA
ENDBRANCH   2   7
BRANCH   6  10
ATOM     10  C   UNL A   1     -28.419 -16.736   8.164  0.00  0.00    +0.342 C 
ATOM     11  O   UNL A   1     -27.949 -17.720   8.171  0.00  0.00    -0.245 OA
BRANCH  10  12
ATOM     12  O   UNL A   1     -28.397 -15.902   7.011  0.00  0.00    -0.435 OA
BRANCH  12  13
ATOM     13  C   UNL A   1     -27.514 -14.913   6.976  0.00  0.00    +0.294 C 
BRANCH  13  14
ATOM     14  C   UNL A   1     -28.001 -13.715   7.088  0.00  0.00    +0.286 C 
ATOM     15  O   UNL A   1     -28.392 -13.154   6.147  0.00  0.00    -0.269 OA
ATOM     16  N   UNL A   1     -28.035 -13.109   8.320  0.00  0.00    -0.197 NA
BRANCH  16  17
ATOM     17  C   UNL A   1     -28.498 -11.738   8.508  0.00  0.00    +0.142 C 
BRANCH  17  18
ATOM     18  C   UNL A   1     -29.225 -11.560   9.494  0.00  0.00    -0.001 A 
ATOM     19  C   UNL A   1     -29.415 -11.962  10.540  0.00  0.00    -0.003 A 
ATOM     20  C   UNL A   1     -30.383 -11.625  11.623  0.00  0.00    -0.001 A 
ATOM     21  C   UNL A   1     -31.249 -10.584  11.314  0.00  0.00    -0.004 A 
ATOM     22  C   UNL A   1     -31.172  -9.984  10.102  0.00  0.00    -0.022 A 
ATOM     23  C   UNL A   1     -30.257 -10.381   9.143  0.00  0.00    -0.007 A 
ATOM     24  C   UNL A   1     -32.098  -8.878   9.752  0.00  0.00    +0.031 C 
ENDBRANCH  17  18
ENDBRANCH  16  17
ENDBRANCH  13  14
ENDBRANCH  12  13
ENDBRANCH  10  12
ENDBRANCH   6  10
BRANCH   3  25
ATOM     25  C   UNL A   1     -32.826 -14.792   9.357  0.00  0.00    +0.077 C 
BRANCH  25  26
ATOM     26  C   UNL A   1     -33.093 -13.365   9.336  0.00  0.00    -0.016 A 
ATOM     27  C   UNL A   1     -34.100 -12.805  10.071  0.00  0.00    -0.003 A 
ATOM     28  C   UNL A   1     -34.978 -11.938   9.696  0.00  0.00    +0.011 A 
ATOM     29  C   UNL A   1     -34.610 -11.196   8.491  0.00  0.00    +0.058 A 
ATOM     30  C   UNL A   1     -33.541 -11.628   7.700  0.00  0.00    +0.011 A 
ATOM     31  C   UNL A   1     -32.851 -12.766   8.030  0.00  0.00    -0.003 A 
ATOM     32 CL   UNL A   1     -35.543  -9.796   8.074  0.00  0.00    -0.082 Cl
ENDBRANCH  25  26
BRANCH  25  33
ATOM     33  C   UNL A   1     -33.756 -15.679   8.832  0.00  0.00    +0.169 C 
ATOM     34  F   UNL A   1     -33.542 -15.982   7.623  0.00  0.00    -0.237 F 
ATOM     35  C   UNL A   1     -34.784 -16.153   9.533  0.00  0.00    +0.039 C 
ENDBRANCH  25  33
ENDBRANCH   3  25
TORSDOF 10
ENDMDL
ENDMDL
