MODEL 476
MODEL 1
REMARK VINA RESULT:    -5.336      0.000      0.000
REMARK INTER + INTRA:          -6.565
REMARK INTER:                  -6.272
REMARK INTRA:                  -0.293
REMARK UNBOUND:                -0.293
REMARK  Name = No_476-gen_results/8p0m/2024-11-26-14-13-15/
REMARK  3 active torsions:
REMARK  status: ('A' for Active; 'I' for Inactive)
REMARK    1  A    between atoms: C_3  and  O_7
REMARK    2  A    between atoms: O_7  and  C_8
REMARK    3  A    between atoms: C_9  and  C_10
REMARK                            x       y       z     vdW  Elec       q    Type
REMARK                         _______ _______ _______ _____ _____    ______ ____
ROOT
ATOM      1  C   UNL A   1     -26.225  -3.409  29.916  0.00  0.00    +0.003 A 
ATOM      2  C   UNL A   1     -25.333  -2.622  29.698  0.00  0.00    +0.037 A 
ATOM      3  C   UNL A   1     -24.146  -2.960  29.051  0.00  0.00    +0.145 A 
ATOM      4  C   UNL A   1     -23.923  -4.339  28.661  0.00  0.00    +0.037 A 
ATOM      5  C   UNL A   1     -25.002  -5.203  28.956  0.00  0.00    +0.003 A 
ATOM      6  C   UNL A   1     -26.080  -4.792  29.575  0.00  0.00    +0.000 A 
ENDROOT
BRANCH   3   7
ATOM      7  O   UNL A   1     -23.101  -2.103  28.800  0.00  0.00    -0.450 OA
BRANCH   7   8
ATOM      8  C   UNL A   1     -22.579  -1.247  29.678  0.00  0.00    +0.179 C 
ATOM      9  C   UNL A   1     -22.555   0.130  29.300  0.00  0.00    +0.041 C 
BRANCH   9  10
ATOM     10  C   UNL A   1     -23.065   0.459  28.008  0.00  0.00    +0.003 C 
ATOM     11  C   UNL A   1     -22.606   1.570  27.311  0.00  0.00    +0.000 C 
ENDBRANCH   9  10
ENDBRANCH   7   8
ENDBRANCH   3   7
TORSDOF 3
ENDMDL
ENDMDL
