MODEL 4770
MODEL 1
REMARK VINA RESULT:    -6.635      0.000      0.000
REMARK INTER + INTRA:          -9.149
REMARK INTER:                  -8.187
REMARK INTRA:                  -0.962
REMARK UNBOUND:                -0.962
REMARK  Name = No_4770-gen_results/8p0m/2024-11-26-14-13-15/
REMARK  4 active torsions:
REMARK  status: ('A' for Active; 'I' for Inactive)
REMARK    1  A    between atoms: C_4  and  C_23
REMARK    2  A    between atoms: N_12  and  C_14
REMARK    3  A    between atoms: C_15  and  C_16
REMARK    4  A    between atoms: C_23  and  C_25
REMARK                            x       y       z     vdW  Elec       q    Type
REMARK                         _______ _______ _______ _____ _____    ______ ____
ROOT
ATOM      1  C   UNL A   1     -13.803   3.601  37.189  0.00  0.00    +0.072 A 
ATOM      2  C   UNL A   1     -14.560   3.354  36.500  0.00  0.00    +0.072 A 
ATOM      3  C   UNL A   1     -12.395   3.252  36.762  0.00  0.00    +0.014 A 
ATOM      4  C   UNL A   1     -12.169   2.769  35.455  0.00  0.00    -0.020 A 
ATOM      5  C   UNL A   1     -16.004   3.721  36.911  0.00  0.00    +0.266 A 
ATOM      6  C   UNL A   1     -13.274   2.577  34.657  0.00  0.00    -0.004 A 
ATOM      7  C   UNL A   1     -14.530   2.906  35.110  0.00  0.00    +0.006 A 
ATOM      8  O   UNL A   1     -16.645   4.529  36.485  0.00  0.00    -0.267 OA
ATOM      9  N   UNL A   1     -16.279   3.256  38.268  0.00  0.00    -0.246 N 
ATOM     10  C   UNL A   1     -17.469   3.669  38.891  0.00  0.00    +0.138 C 
ATOM     11  C   UNL A   1     -15.200   3.167  39.142  0.00  0.00    +0.338 A 
ATOM     12  N   UNL A   1     -13.812   3.318  38.589  0.00  0.00    -0.259 N 
ATOM     13  O   UNL A   1     -15.154   3.186  40.364  0.00  0.00    -0.246 OA
ENDROOT
BRANCH  12  14
ATOM     14  C   UNL A   1     -12.725   3.097  39.442  0.00  0.00    +0.084 C 
ATOM     15  C   UNL A   1     -12.475   2.014  39.922  0.00  0.00    +0.019 C 
BRANCH  15  16
ATOM     16  C   UNL A   1     -11.542   1.040  39.223  0.00  0.00    +0.002 A 
ATOM     17  C   UNL A   1     -10.348   1.453  38.661  0.00  0.00    +0.000 A 
ATOM     18  C   UNL A   1      -9.665   0.521  37.871  0.00  0.00    +0.001 A 
ATOM     19  C   UNL A   1     -10.162  -0.681  37.609  0.00  0.00    +0.011 A 
ATOM     20  C   UNL A   1     -11.789  -0.271  38.677  0.00  0.00    +0.011 A 
ATOM     21  C   UNL A   1     -11.181  -1.263  37.889  0.00  0.00    +0.058 A 
ATOM     22 CL   UNL A   1     -11.736  -2.722  37.574  0.00  0.00    -0.082 Cl
ENDBRANCH  15  16
ENDBRANCH  12  14
BRANCH   4  23
ATOM     23  C   UNL A   1     -10.818   2.578  34.923  0.00  0.00    +0.041 C 
ATOM     24  C   UNL A   1     -10.041   3.737  34.547  0.00  0.00    +0.006 C 
BRANCH  23  25
ATOM     25  C   UNL A   1     -10.275   1.516  34.349  0.00  0.00    +0.114 C 
ATOM     26  N   UNL A   1     -10.395   1.403  32.960  0.00  0.00    -0.131 NA
ENDBRANCH  23  25
ENDBRANCH   4  23
TORSDOF 4
ENDMDL
ENDMDL
