REMARK  Name = No_4770-gen_results/8p0m/2024-11-26-14-13-15/
REMARK  4 active torsions:
REMARK  status: ('A' for Active; 'I' for Inactive)
REMARK    1  A    between atoms: C_4  and  C_23
REMARK    2  A    between atoms: N_12  and  C_14
REMARK    3  A    between atoms: C_15  and  C_16
REMARK    4  A    between atoms: C_23  and  C_25
REMARK                            x       y       z     vdW  Elec       q    Type
REMARK                         _______ _______ _______ _____ _____    ______ ____
ROOT
ATOM      1  C   UNL A   1     -28.016  -0.814  28.878  0.00  0.00    +0.072 A 
ATOM      2  C   UNL A   1     -28.469  -0.785  29.829  0.00  0.00    +0.072 A 
ATOM      3  C   UNL A   1     -26.504  -0.778  28.877  0.00  0.00    +0.014 A 
ATOM      4  C   UNL A   1     -25.810  -0.853  30.103  0.00  0.00    -0.020 A 
ATOM      5  C   UNL A   1     -30.014  -0.841  29.851  0.00  0.00    +0.266 A 
ATOM      6  C   UNL A   1     -26.567  -0.885  31.252  0.00  0.00    -0.004 A 
ATOM      7  C   UNL A   1     -27.941  -0.907  31.185  0.00  0.00    +0.006 A 
ATOM      8  O   UNL A   1     -30.656  -1.692  30.181  0.00  0.00    -0.267 OA
ATOM      9  N   UNL A   1     -30.570   0.129  28.912  0.00  0.00    -0.246 N 
ATOM     10  C   UNL A   1     -31.949   0.090  28.644  0.00  0.00    +0.138 C 
ATOM     11  C   UNL A   1     -29.801   0.452  27.798  0.00  0.00    +0.338 A 
ATOM     12  N   UNL A   1     -28.375  -0.018  27.748  0.00  0.00    -0.259 N 
ATOM     13  O   UNL A   1     -30.119   0.897  26.704  0.00  0.00    -0.246 OA
ENDROOT
BRANCH  12  14
ATOM     14  C   UNL A   1     -27.564   0.417  26.694  0.00  0.00    +0.084 C 
ATOM     15  C   UNL A   1     -27.367   1.587  26.456  0.00  0.00    +0.019 C 
BRANCH  15  16
ATOM     16  C   UNL A   1     -26.189   2.327  27.067  0.00  0.00    +0.002 A 
ATOM     17  C   UNL A   1     -25.990   3.679  26.853  0.00  0.00    +0.000 A 
ATOM     18  C   UNL A   1     -24.774   4.216  27.291  0.00  0.00    +0.001 A 
ATOM     19  C   UNL A   1     -23.821   3.463  27.824  0.00  0.00    +0.011 A 
ATOM     20  C   UNL A   1     -24.942   1.836  27.597  0.00  0.00    +0.011 A 
ATOM     21  C   UNL A   1     -23.692   2.285  28.053  0.00  0.00    +0.058 A 
ATOM     22 CL   UNL A   1     -22.537   1.415  28.720  0.00  0.00    -0.082 Cl
ENDBRANCH  15  16
ENDBRANCH  12  14
BRANCH   4  23
ATOM     23  C   UNL A   1     -24.354  -0.997  30.161  0.00  0.00    +0.041 C 
ATOM     24  C   UNL A   1     -23.691  -1.832  29.185  0.00  0.00    +0.006 C 
BRANCH  23  25
ATOM     25  C   UNL A   1     -23.523  -0.813  31.175  0.00  0.00    +0.114 C 
ATOM     26  N   UNL A   1     -23.987  -0.061  32.259  0.00  0.00    -0.131 NA
ENDBRANCH  23  25
ENDBRANCH   4  23
TORSDOF 4
