REMARK  Name = No_4771-gen_results/8p0m/2024-11-26-14-13-15/
REMARK  2 active torsions:
REMARK  status: ('A' for Active; 'I' for Inactive)
REMARK    1  A    between atoms: C_3  and  C_8
REMARK    2  A    between atoms: C_15  and  C_18
REMARK                            x       y       z     vdW  Elec       q    Type
REMARK                         _______ _______ _______ _____ _____    ______ ____
ROOT
ATOM      1  C   UNL A   1     -26.473   0.911  27.433  0.00  0.00    +0.006 A 
ATOM      2  C   UNL A   1     -25.152   0.502  27.439  0.00  0.00    +0.018 A 
ATOM      3  C   UNL A   1     -24.492  -0.099  28.434  0.00  0.00    +0.002 A 
ATOM      4  C   UNL A   1     -23.027  -0.230  28.385  0.00  0.00    +0.000 A 
ATOM      5  C   UNL A   1     -22.309   0.708  27.651  0.00  0.00    +0.002 A 
ATOM      6  C   UNL A   1     -22.985   1.559  26.743  0.00  0.00    +0.019 A 
ATOM      7  C   UNL A   1     -24.371   1.545  26.670  0.00  0.00    +0.081 A 
ATOM      8  C   UNL A   1     -26.888   1.997  26.631  0.00  0.00    +0.037 A 
ATOM      9  N   UNL A   1     -25.085   2.426  25.984  0.00  0.00    -0.244 NA
ATOM     10  C   UNL A   1     -26.299   2.733  25.856  0.00  0.00    +0.100 A 
ENDROOT
BRANCH   1  13
ATOM     11  N   UNL A   1     -28.054  -1.050  28.725  0.00  0.00    -0.153 NA
ATOM     12  C   UNL A   1     -27.746  -0.073  29.010  0.00  0.00    +0.100 A 
ATOM     13  C   UNL A   1     -27.174   0.733  28.825  0.00  0.00    +0.019 A 
ATOM     14  C   UNL A   1     -26.913   2.029  29.575  0.00  0.00    +0.002 A 
ATOM     15  C   UNL A   1     -27.492   2.021  30.812  0.00  0.00    -0.000 A 
ATOM     16  C   UNL A   1     -28.188   0.940  31.249  0.00  0.00    -0.001 A 
ATOM     17  C   UNL A   1     -28.318  -0.103  30.549  0.00  0.00    +0.023 A 
ATOM     18  C   UNL A   1     -28.892  -1.433  30.587  0.00  0.00    +0.177 C 
ATOM     19  N   UNL A   1     -28.687  -1.961  29.437  0.00  0.00    -0.170 NA
ENDBRANCH   1  13
BRANCH   8  20
ATOM     20  C   UNL A   1     -28.424   2.237  26.528  0.00  0.00    +0.083 A 
ATOM     21  N   UNL A   1     -28.983   3.102  26.351  0.00  0.00    -0.244 NA
ATOM     22  C   UNL A   1     -30.403   3.208  26.234  0.00  0.00    +0.099 A 
ATOM     23  C   UNL A   1     -29.313   1.098  26.823  0.00  0.00    +0.019 A 
ATOM     24  C   UNL A   1     -30.640   1.119  26.748  0.00  0.00    +0.003 A 
ATOM     25  C   UNL A   1     -31.171   2.312  26.473  0.00  0.00    +0.021 A 
ENDBRANCH   8  20
TORSDOF 2
