MODEL 4772
MODEL 1
REMARK VINA RESULT:    -7.074      0.000      0.000
REMARK INTER + INTRA:          -9.805
REMARK INTER:                  -8.729
REMARK INTRA:                  -1.076
REMARK UNBOUND:                -1.076
REMARK  Name = No_4772-gen_results/8p0m/2024-11-26-14-13-15/
REMARK  4 active torsions:
REMARK  status: ('A' for Active; 'I' for Inactive)
REMARK    1  A    between atoms: C_2  and  C_16
REMARK    2  A    between atoms: C_3  and  C_4
REMARK    3  A    between atoms: C_4  and  C_9
REMARK    4  A    between atoms: C_6  and  C_19
REMARK                            x       y       z     vdW  Elec       q    Type
REMARK                         _______ _______ _______ _____ _____    ______ ____
ROOT
ATOM      1  C   UNL A   1     -11.829   1.132  34.759  0.00  0.00    +0.004 A 
ATOM      2  C   UNL A   1     -12.667   1.728  34.527  0.00  0.00    +0.080 A 
ATOM      3  C   UNL A   1     -11.486   1.130  36.181  0.00  0.00    -0.003 A 
ATOM      4  C   UNL A   1     -13.580   2.563  35.295  0.00  0.00    +0.010 A 
ATOM      5  C   UNL A   1     -13.282   2.597  36.641  0.00  0.00    +0.071 A 
ATOM      6  C   UNL A   1     -12.286   1.869  37.145  0.00  0.00    +0.001 A 
ENDROOT
BRANCH   5   7
ATOM      7  C   UNL A   1     -14.146   3.418  37.548  0.00  0.00    +0.419 C 
ATOM      8  F   UNL A   1     -13.999   3.299  38.599  0.00  0.00    -0.166 F 
ATOM      9  F   UNL A   1     -15.481   3.073  37.218  0.00  0.00    -0.166 F 
ATOM     10  F   UNL A   1     -14.089   4.718  37.101  0.00  0.00    -0.166 F 
ENDBRANCH   5   7
BRANCH   2  11
ATOM     11  C   UNL A   1     -13.189   1.756  32.976  0.00  0.00    +0.388 C 
ATOM     12  O   UNL A   1     -14.072   2.546  32.663  0.00  0.00    -0.241 OA
ATOM     13  O   UNL A   1     -12.523   1.132  32.180  0.00  0.00    -0.241 OA
ENDBRANCH   2  11
BRANCH   3  14
ATOM     14  C   UNL A   1     -10.418   0.291  36.767  0.00  0.00    +0.124 C 
ATOM     15 CL   UNL A   1      -9.059   0.080  36.021  0.00  0.00    -0.105 Cl
BRANCH  14  16
ATOM     16  C   UNL A   1     -10.680  -0.400  38.025  0.00  0.00    -0.003 A 
ATOM     17  C   UNL A   1     -11.454  -1.581  37.936  0.00  0.00    +0.001 A 
ATOM     18  C   UNL A   1     -11.701  -2.248  39.203  0.00  0.00    +0.042 A 
ATOM     19  C   UNL A   1     -10.942  -1.884  40.320  0.00  0.00    +0.196 A 
ATOM     20  C   UNL A   1      -9.921  -0.105  39.156  0.00  0.00    +0.001 A 
ATOM     21  C   UNL A   1     -10.061  -0.874  40.336  0.00  0.00    +0.042 A 
ATOM     22  O   UNL A   1     -11.093  -2.626  41.426  0.00  0.00    -0.287 OA
ENDBRANCH  14  16
ENDBRANCH   3  14
TORSDOF 4
ENDMDL
ENDMDL
