REMARK  Name = No_4773-gen_results/8p0m/2024-11-26-14-13-15/
REMARK  1 active torsions:
REMARK  status: ('A' for Active; 'I' for Inactive)
REMARK    1  A    between atoms: C_2  and  C_8
REMARK                            x       y       z     vdW  Elec       q    Type
REMARK                         _______ _______ _______ _____ _____    ______ ____
ROOT
ATOM      1  C   UNL A   1     -25.729  -0.204  29.399  0.00  0.00    +0.103 C 
ATOM      2  N   UNL A   1     -25.315   0.900  30.037  0.00  0.00    -0.265 NA
ATOM      3  C   UNL A   1     -24.304   1.667  29.773  0.00  0.00    +0.080 C 
ATOM      4  C   UNL A   1     -24.195   2.890  30.451  0.00  0.00    +0.021 C 
ATOM      5  C   UNL A   1     -23.321   1.342  28.773  0.00  0.00    -0.011 C 
ATOM      6  C   UNL A   1     -22.631   0.219  28.861  0.00  0.00    -0.004 C 
ATOM      7  C   UNL A   1     -24.616  -0.747  28.638  0.00  0.00    -0.006 C 
ATOM      8  C   UNL A   1     -23.325  -0.760  28.483  0.00  0.00    -0.003 C 
ATOM      9  C   UNL A   1     -26.163   1.182  31.187  0.00  0.00    +0.073 C 
ATOM     10  C   UNL A   1     -26.176   2.497  31.718  0.00  0.00    +0.017 C 
ATOM     11  C   UNL A   1     -24.987   3.253  31.547  0.00  0.00    +0.003 C 
ENDROOT
BRANCH   1  13
ATOM     12  C   UNL A   1     -28.016  -0.814  28.878  0.00  0.00    +0.001 A 
ATOM     13  C   UNL A   1     -27.064  -0.119  28.608  0.00  0.00    -0.003 A 
ATOM     14  C   UNL A   1     -27.001   0.691  27.491  0.00  0.00    +0.001 A 
ATOM     15  C   UNL A   1     -28.137   0.736  26.635  0.00  0.00    +0.042 A 
ATOM     16  C   UNL A   1     -29.236   0.076  27.069  0.00  0.00    +0.196 A 
ATOM     17  C   UNL A   1     -29.218  -0.643  28.175  0.00  0.00    +0.042 A 
ATOM     18  O   UNL A   1     -30.342   0.162  26.279  0.00  0.00    -0.287 OA
ENDBRANCH   1  13
TORSDOF 1
