MODEL 4773
MODEL 1
REMARK VINA RESULT:    -7.024      0.000      0.000
REMARK INTER + INTRA:          -7.806
REMARK INTER:                  -7.435
REMARK INTRA:                  -0.371
REMARK UNBOUND:                -0.371
REMARK  Name = No_4773-gen_results/8p0m/2024-11-26-14-13-15/
REMARK  1 active torsions:
REMARK  status: ('A' for Active; 'I' for Inactive)
REMARK    1  A    between atoms: C_2  and  C_8
REMARK                            x       y       z     vdW  Elec       q    Type
REMARK                         _______ _______ _______ _____ _____    ______ ____
ROOT
ATOM      1  C   UNL A   1     -23.506  -0.382  29.871  0.00  0.00    +0.103 C 
ATOM      2  N   UNL A   1     -24.210  -1.523  29.847  0.00  0.00    -0.265 NA
ATOM      3  C   UNL A   1     -25.343  -1.798  30.412  0.00  0.00    +0.080 C 
ATOM      4  C   UNL A   1     -25.993  -2.992  30.066  0.00  0.00    +0.021 C 
ATOM      5  C   UNL A   1     -25.989  -0.903  31.336  0.00  0.00    -0.011 C 
ATOM      6  C   UNL A   1     -25.367  -0.523  32.437  0.00  0.00    -0.004 C 
ATOM      7  C   UNL A   1     -23.921   0.395  31.027  0.00  0.00    -0.006 C 
ATOM      8  C   UNL A   1     -24.517   0.369  32.183  0.00  0.00    -0.003 C 
ATOM      9  C   UNL A   1     -23.512  -2.545  29.078  0.00  0.00    +0.073 C 
ATOM     10  C   UNL A   1     -24.255  -3.640  28.569  0.00  0.00    +0.017 C 
ATOM     11  C   UNL A   1     -25.408  -4.013  29.309  0.00  0.00    +0.003 C 
ENDROOT
BRANCH   1  13
ATOM     12  C   UNL A   1     -24.274   0.383  27.703  0.00  0.00    +0.001 A 
ATOM     13  C   UNL A   1     -23.413   0.433  28.552  0.00  0.00    -0.003 A 
ATOM     14  C   UNL A   1     -22.204   1.077  28.377  0.00  0.00    +0.001 A 
ATOM     15  C   UNL A   1     -21.978   1.749  27.143  0.00  0.00    +0.042 A 
ATOM     16  C   UNL A   1     -23.033   1.808  26.296  0.00  0.00    +0.196 A 
ATOM     17  C   UNL A   1     -24.170   1.196  26.565  0.00  0.00    +0.042 A 
ATOM     18  O   UNL A   1     -22.837   2.497  25.138  0.00  0.00    -0.287 OA
ENDBRANCH   1  13
TORSDOF 1
ENDMDL
ENDMDL
