MODEL 4774
MODEL 1
REMARK VINA RESULT:    -7.132      0.000      0.000
REMARK INTER + INTRA:          -8.905
REMARK INTER:                  -8.382
REMARK INTRA:                  -0.523
REMARK UNBOUND:                -0.523
REMARK  Name = No_4774-gen_results/8p0m/2024-11-26-14-13-15/
REMARK  3 active torsions:
REMARK  status: ('A' for Active; 'I' for Inactive)
REMARK    1  A    between atoms: C_3  and  C_7
REMARK    2  A    between atoms: C_6  and  C_13
REMARK    3  A    between atoms: N_14  and  C_16
REMARK                            x       y       z     vdW  Elec       q    Type
REMARK                         _______ _______ _______ _____ _____    ______ ____
ROOT
ATOM      1  C   UNL A   1     -10.769   1.374  36.879  0.00  0.00    +0.005 A 
ATOM      2  C   UNL A   1     -11.797   1.885  37.259  0.00  0.00    +0.000 A 
ATOM      3  C   UNL A   1     -12.810   2.312  36.401  0.00  0.00    +0.000 A 
ATOM      4  C   UNL A   1     -12.616   2.199  34.969  0.00  0.00    +0.000 A 
ATOM      5  C   UNL A   1     -11.410   1.623  34.574  0.00  0.00    +0.005 A 
ATOM      6  C   UNL A   1     -10.499   1.256  35.455  0.00  0.00    +0.055 A 
ENDROOT
BRANCH   3   7
ATOM      7  C   UNL A   1     -14.104   2.941  36.795  0.00  0.00    +0.003 A 
ATOM      8  C   UNL A   1     -14.509   2.972  38.030  0.00  0.00    +0.042 A 
ATOM      9  C   UNL A   1     -15.783   3.437  38.365  0.00  0.00    +0.196 A 
ATOM     10  C   UNL A   1     -16.713   3.855  37.447  0.00  0.00    +0.042 A 
ATOM     11  C   UNL A   1     -15.064   3.329  35.757  0.00  0.00    +0.000 A 
ATOM     12  C   UNL A   1     -16.359   3.800  36.118  0.00  0.00    +0.003 A 
ATOM     13  O   UNL A   1     -16.119   3.529  39.703  0.00  0.00    -0.287 OA
ENDBRANCH   3   7
BRANCH   6  14
ATOM     14  C   UNL A   1      -9.209   0.695  34.945  0.00  0.00    +0.269 C 
ATOM     15  N   UNL A   1      -8.541  -0.074  35.612  0.00  0.00    -0.175 NA
ATOM     16  O   UNL A   1      -8.774   1.097  33.807  0.00  0.00    -0.268 OA
BRANCH  15  17
ATOM     17  C   UNL A   1      -7.270  -0.689  35.166  0.00  0.00    +0.074 A 
ATOM     18  C   UNL A   1      -7.075  -1.556  34.599  0.00  0.00    +0.017 A 
ATOM     19  C   UNL A   1      -6.167   0.233  35.681  0.00  0.00    +0.017 A 
ATOM     20  C   UNL A   1      -5.714  -2.043  34.233  0.00  0.00    +0.001 A 
ATOM     21  C   UNL A   1      -4.874  -0.221  35.368  0.00  0.00    +0.001 A 
ATOM     22  C   UNL A   1      -4.685  -1.314  34.617  0.00  0.00    +0.000 A 
ENDBRANCH  15  17
ENDBRANCH   6  14
TORSDOF 3
ENDMDL
ENDMDL
