REMARK  Name = No_4774-gen_results/8p0m/2024-11-26-14-13-15/
REMARK  3 active torsions:
REMARK  status: ('A' for Active; 'I' for Inactive)
REMARK    1  A    between atoms: C_3  and  C_7
REMARK    2  A    between atoms: C_6  and  C_13
REMARK    3  A    between atoms: N_14  and  C_16
REMARK                            x       y       z     vdW  Elec       q    Type
REMARK                         _______ _______ _______ _____ _____    ______ ____
ROOT
ATOM      1  C   UNL A   1     -28.016  -0.814  28.878  0.00  0.00    +0.005 A 
ATOM      2  C   UNL A   1     -27.064  -0.119  28.608  0.00  0.00    +0.000 A 
ATOM      3  C   UNL A   1     -25.765  -0.390  29.036  0.00  0.00    +0.000 A 
ATOM      4  C   UNL A   1     -25.530  -1.530  29.901  0.00  0.00    +0.000 A 
ATOM      5  C   UNL A   1     -26.658  -2.292  30.203  0.00  0.00    +0.005 A 
ATOM      6  C   UNL A   1     -27.855  -1.956  29.763  0.00  0.00    +0.055 A 
ENDROOT
BRANCH   3   7
ATOM      7  C   UNL A   1     -24.544   0.413  28.738  0.00  0.00    +0.003 A 
ATOM      8  C   UNL A   1     -24.473   1.206  27.711  0.00  0.00    +0.042 A 
ATOM      9  C   UNL A   1     -23.278   1.842  27.366  0.00  0.00    +0.196 A 
ATOM     10  C   UNL A   1     -22.093   1.664  28.034  0.00  0.00    +0.042 A 
ATOM     11  C   UNL A   1     -23.303   0.139  29.470  0.00  0.00    +0.000 A 
ATOM     12  C   UNL A   1     -22.094   0.797  29.103  0.00  0.00    +0.003 A 
ATOM     13  O   UNL A   1     -23.291   2.743  26.316  0.00  0.00    -0.287 OA
ENDBRANCH   3   7
BRANCH   6  14
ATOM     14  C   UNL A   1     -29.021  -2.798  30.178  0.00  0.00    +0.269 C 
ATOM     15  N   UNL A   1     -30.157  -2.357  30.178  0.00  0.00    -0.175 NA
ATOM     16  O   UNL A   1     -28.797  -3.985  30.608  0.00  0.00    -0.268 OA
BRANCH  15  17
ATOM     17  C   UNL A   1     -31.361  -3.135  30.550  0.00  0.00    +0.074 A 
ATOM     18  C   UNL A   1     -31.479  -3.996  31.146  0.00  0.00    +0.017 A 
ATOM     19  C   UNL A   1     -32.534  -2.410  29.895  0.00  0.00    +0.017 A 
ATOM     20  C   UNL A   1     -32.782  -4.665  31.423  0.00  0.00    +0.001 A 
ATOM     21  C   UNL A   1     -33.771  -3.038  30.123  0.00  0.00    +0.001 A 
ATOM     22  C   UNL A   1     -33.867  -4.114  30.915  0.00  0.00    +0.000 A 
ENDBRANCH  15  17
ENDBRANCH   6  14
TORSDOF 3
