MODEL 4775
MODEL 1
REMARK VINA RESULT:    -6.768      0.000      0.000
REMARK INTER + INTRA:          -7.498
REMARK INTER:                  -7.164
REMARK INTRA:                  -0.334
REMARK UNBOUND:                -0.334
REMARK  Name = No_4775-gen_results/8p0m/2024-11-26-14-13-15/
REMARK  1 active torsions:
REMARK  status: ('A' for Active; 'I' for Inactive)
REMARK    1  A    between atoms: C_2  and  C_7
REMARK                            x       y       z     vdW  Elec       q    Type
REMARK                         _______ _______ _______ _____ _____    ______ ____
ROOT
ATOM      1  C   UNL A   1     -24.252  -0.368  27.861  0.00  0.00    +0.011 A 
ATOM      2  C   UNL A   1     -23.870  -1.228  28.620  0.00  0.00    +0.001 A 
ATOM      3  C   UNL A   1     -22.623  -1.144  29.231  0.00  0.00    +0.000 A 
ATOM      4  C   UNL A   1     -21.728  -0.053  28.943  0.00  0.00    +0.001 A 
ATOM      5  C   UNL A   1     -22.241   0.883  28.035  0.00  0.00    +0.011 A 
ATOM      6  C   UNL A   1     -23.420   0.749  27.472  0.00  0.00    +0.058 A 
ATOM      7 CL   UNL A   1     -23.876   1.930  26.329  0.00  0.00    -0.082 Cl
ENDROOT
BRANCH   2   8
ATOM      8  C   UNL A   1     -24.646  -2.435  29.012  0.00  0.00    +0.000 A 
ATOM      9  C   UNL A   1     -25.734  -2.525  29.559  0.00  0.00    +0.000 A 
ATOM     10  C   UNL A   1     -23.983  -3.693  28.631  0.00  0.00    +0.000 A 
ATOM     11  C   UNL A   1     -26.525  -3.599  29.849  0.00  0.00    +0.000 A 
ATOM     12  C   UNL A   1     -24.649  -4.907  28.930  0.00  0.00    +0.000 A 
ATOM     13  C   UNL A   1     -25.940  -4.858  29.560  0.00  0.00    +0.000 A 
ENDBRANCH   2   8
TORSDOF 1
ENDMDL
ENDMDL
