MODEL 4776
MODEL 1
REMARK VINA RESULT:    -5.316      0.000      0.000
REMARK INTER + INTRA:          -6.221
REMARK INTER:                  -5.937
REMARK INTRA:                  -0.284
REMARK UNBOUND:                -0.284
REMARK  Name = No_4776-gen_results/8p0m/2024-11-26-14-13-15/
REMARK  2 active torsions:
REMARK  status: ('A' for Active; 'I' for Inactive)
REMARK    1  A    between atoms: C_4  and  C_5
REMARK    2  A    between atoms: C_5  and  C_8
REMARK                            x       y       z     vdW  Elec       q    Type
REMARK                         _______ _______ _______ _____ _____    ______ ____
ROOT
ATOM      1  C   UNL A   1     -26.414  -4.036  29.637  0.00  0.00    -0.000 A 
ATOM      2  C   UNL A   1     -25.864  -4.931  29.714  0.00  0.00    -0.000 A 
ATOM      3  C   UNL A   1     -25.595  -2.831  29.771  0.00  0.00    -0.004 A 
ATOM      4  C   UNL A   1     -24.781  -2.524  28.901  0.00  0.00    -0.018 A 
ATOM      5  C   UNL A   1     -24.634  -5.117  28.762  0.00  0.00    -0.000 A 
ATOM      6  C   UNL A   1     -23.957  -3.822  28.622  0.00  0.00    -0.004 A 
ENDROOT
BRANCH   4   7
ATOM      7  C   UNL A   1     -24.088  -1.274  28.819  0.00  0.00    +0.052 C 
BRANCH   7   8
ATOM      8  C   UNL A   1     -22.795  -1.282  29.148  0.00  0.00    -0.026 C 
ATOM      9  C   UNL A   1     -21.900  -0.175  28.859  0.00  0.00    -0.030 C 
ATOM     10  C   UNL A   1     -22.356   0.833  27.992  0.00  0.00    +0.030 C 
ENDBRANCH   7   8
ENDBRANCH   4   7
TORSDOF 2
ENDMDL
ENDMDL
