REMARK  Name = No_4776-gen_results/8p0m/2024-11-26-14-13-15/
REMARK  2 active torsions:
REMARK  status: ('A' for Active; 'I' for Inactive)
REMARK    1  A    between atoms: C_4  and  C_5
REMARK    2  A    between atoms: C_5  and  C_8
REMARK                            x       y       z     vdW  Elec       q    Type
REMARK                         _______ _______ _______ _____ _____    ______ ____
ROOT
ATOM      1  C   UNL A   1     -28.016  -0.814  28.878  0.00  0.00    -0.000 A 
ATOM      2  C   UNL A   1     -28.469  -0.785  29.829  0.00  0.00    -0.000 A 
ATOM      3  C   UNL A   1     -27.087   0.290  28.638  0.00  0.00    -0.004 A 
ATOM      4  C   UNL A   1     -26.024   0.364  29.253  0.00  0.00    -0.018 A 
ATOM      5  C   UNL A   1     -27.533  -0.705  31.083  0.00  0.00    -0.000 A 
ATOM      6  C   UNL A   1     -26.398   0.168  30.758  0.00  0.00    -0.004 A 
ENDROOT
BRANCH   4   7
ATOM      7  C   UNL A   1     -24.954   1.266  28.953  0.00  0.00    +0.052 C 
BRANCH   7   8
ATOM      8  C   UNL A   1     -23.760   0.975  29.473  0.00  0.00    -0.026 C 
ATOM      9  C   UNL A   1     -22.515   1.480  28.921  0.00  0.00    -0.030 C 
ATOM     10  C   UNL A   1     -22.554   2.097  27.659  0.00  0.00    +0.030 C 
ENDBRANCH   7   8
ENDBRANCH   4   7
TORSDOF 2
