MODEL 4777
MODEL 1
REMARK VINA RESULT:    -4.119      0.000      0.000
REMARK INTER + INTRA:          -4.796
REMARK INTER:                  -4.601
REMARK INTRA:                  -0.195
REMARK UNBOUND:                -0.195
REMARK  Name = No_4777-gen_results/8p0m/2024-11-26-14-13-15/
REMARK  2 active torsions:
REMARK  status: ('A' for Active; 'I' for Inactive)
REMARK    1  A    between atoms: C_1  and  C_2
REMARK    2  A    between atoms: C_3  and  C_4
REMARK                            x       y       z     vdW  Elec       q    Type
REMARK                         _______ _______ _______ _____ _____    ______ ____
ROOT
ATOM      1  C   UNL A   1      -7.718  -8.703  19.483  0.00  0.00    -0.005 C 
ATOM      2  C   UNL A   1      -6.812  -9.060  20.429  0.00  0.00    -0.026 C 
ENDROOT
BRANCH   1   3
ATOM      3  C   UNL A   1      -8.737  -9.314  19.258  0.00  0.00    -0.005 C 
ATOM      4  C   UNL A   1      -9.021  -9.803  17.933  0.00  0.00    -0.026 C 
ATOM      5  C   UNL A   1     -10.312 -10.447  17.684  0.00  0.00    +0.031 C 
ENDBRANCH   1   3
BRANCH   2   6
ATOM      6  C   UNL A   1      -7.068 -10.211  21.198  0.00  0.00    +0.026 C 
ATOM      7  C   UNL A   1      -6.365 -10.404  22.316  0.00  0.00    +0.005 C 
ENDBRANCH   2   6
TORSDOF 2
ENDMDL
ENDMDL
