MODEL 4778
MODEL 1
REMARK VINA RESULT:    -7.475      0.000      0.000
REMARK INTER + INTRA:         -10.577
REMARK INTER:                  -9.660
REMARK INTRA:                  -0.918
REMARK UNBOUND:                -0.918
REMARK  Name = No_4778-gen_results/8p0m/2024-11-26-14-13-15/
REMARK  5 active torsions:
REMARK  status: ('A' for Active; 'I' for Inactive)
REMARK    1  A    between atoms: C_1  and  C_2
REMARK    2  A    between atoms: C_1  and  C_8
REMARK    3  A    between atoms: C_5  and  C_10
REMARK    4  A    between atoms: C_17  and  C_19
REMARK    5  A    between atoms: C_23  and  C_25
REMARK                            x       y       z     vdW  Elec       q    Type
REMARK                         _______ _______ _______ _____ _____    ______ ____
ROOT
ATOM      1  C   UNL A   1     -29.206   0.322  24.742  0.00  0.00    +0.230 C 
ATOM      2  N   UNL A   1     -28.002   0.263  25.278  0.00  0.00    -0.279 N 
ATOM      3  C   UNL A   1     -27.766   0.441  26.558  0.00  0.00    +0.094 C 
ATOM      4  C   UNL A   1     -26.876  -0.124  24.531  0.00  0.00    +0.094 C 
ATOM      5  C   UNL A   1     -25.674   0.227  24.968  0.00  0.00    +0.026 C 
ATOM      6  C   UNL A   1     -26.535   0.899  27.106  0.00  0.00    +0.026 C 
ATOM      7  C   UNL A   1     -25.445   0.554  26.308  0.00  0.00    +0.026 C 
ATOM      8  O   UNL A   1     -30.086  -0.624  25.045  0.00  0.00    -0.275 OA
ENDROOT
BRANCH   7   9
ATOM      9  C   UNL A   1     -24.102   0.856  26.839  0.00  0.00    -0.022 A 
ATOM     10  C   UNL A   1     -23.368   1.487  26.408  0.00  0.00    -0.004 A 
ATOM     11  C   UNL A   1     -22.019   1.877  26.938  0.00  0.00    -0.000 A 
ATOM     12  C   UNL A   1     -21.702   1.178  28.104  0.00  0.00    -0.000 A 
ATOM     13  C   UNL A   1     -22.579   0.338  28.650  0.00  0.00    -0.001 A 
ATOM     14  C   UNL A   1     -23.860   0.104  28.103  0.00  0.00    -0.004 A 
BRANCH  13  15
ATOM     15  C   UNL A   1     -22.258  -0.367  29.921  0.00  0.00    -0.005 C 
ATOM     16  C   UNL A   1     -23.125  -0.412  30.873  0.00  0.00    -0.026 C 
ATOM     17  C   UNL A   1     -22.800  -1.082  32.107  0.00  0.00    +0.031 C 
ENDBRANCH  13  15
ENDBRANCH   7   9
BRANCH   1  18
ATOM     18  C   UNL A   1     -29.411   0.946  23.390  0.00  0.00    +0.112 C 
BRANCH  18  19
ATOM     19  C   UNL A   1     -30.328   1.716  23.219  0.00  0.00    -0.013 A 
ATOM     20  C   UNL A   1     -30.527   2.797  24.070  0.00  0.00    -0.004 A 
ATOM     21  C   UNL A   1     -31.621   3.805  23.972  0.00  0.00    +0.008 A 
ATOM     22  C   UNL A   1     -32.437   3.729  22.805  0.00  0.00    +0.098 A 
ATOM     23  C   UNL A   1     -32.180   2.660  21.924  0.00  0.00    +0.008 A 
ATOM     24  C   UNL A   1     -31.227   1.901  22.172  0.00  0.00    -0.004 A 
BRANCH  22  25
ATOM     25  C   UNL A   1     -33.488   4.741  22.686  0.00  0.00    +0.477 C 
ATOM     26  N   UNL A   1     -33.508   5.736  23.062  0.00  0.00    +0.205 NA
ATOM     27  N   UNL A   1     -34.413   4.409  21.642  0.00  0.00    +0.205 NA
ENDBRANCH  22  25
ENDBRANCH  18  19
ENDBRANCH   1  18
TORSDOF 5
ENDMDL
ENDMDL
