REMARK  Name = No_4778-gen_results/8p0m/2024-11-26-14-13-15/
REMARK  5 active torsions:
REMARK  status: ('A' for Active; 'I' for Inactive)
REMARK    1  A    between atoms: C_1  and  C_2
REMARK    2  A    between atoms: C_1  and  C_8
REMARK    3  A    between atoms: C_5  and  C_10
REMARK    4  A    between atoms: C_17  and  C_19
REMARK    5  A    between atoms: C_23  and  C_25
REMARK                            x       y       z     vdW  Elec       q    Type
REMARK                         _______ _______ _______ _____ _____    ______ ____
ROOT
ATOM      1  C   UNL A   1     -28.093  -1.481  30.223  0.00  0.00    +0.230 C 
ATOM      2  N   UNL A   1     -29.178  -2.138  30.585  0.00  0.00    -0.279 N 
ATOM      3  C   UNL A   1     -29.156  -3.259  31.270  0.00  0.00    +0.094 C 
ATOM      4  C   UNL A   1     -30.466  -1.618  30.370  0.00  0.00    +0.094 C 
ATOM      5  C   UNL A   1     -31.494  -2.456  30.355  0.00  0.00    +0.026 C 
ATOM      6  C   UNL A   1     -30.174  -4.253  31.245  0.00  0.00    +0.026 C 
ATOM      7  C   UNL A   1     -31.428  -3.712  30.966  0.00  0.00    +0.026 C 
ATOM      8  O   UNL A   1     -27.355  -0.903  31.162  0.00  0.00    -0.275 OA
ENDROOT
BRANCH   7   9
ATOM      9  C   UNL A   1     -32.585  -4.624  31.046  0.00  0.00    -0.022 A 
ATOM     10  C   UNL A   1     -32.598  -5.664  30.843  0.00  0.00    -0.004 A 
ATOM     11  C   UNL A   1     -33.727  -6.644  30.972  0.00  0.00    -0.000 A 
ATOM     12  C   UNL A   1     -34.929  -6.006  31.288  0.00  0.00    -0.000 A 
ATOM     13  C   UNL A   1     -34.963  -4.693  31.502  0.00  0.00    -0.001 A 
ATOM     14  C   UNL A   1     -33.815  -3.874  31.428  0.00  0.00    -0.004 A 
BRANCH  13  15
ATOM     15  C   UNL A   1     -36.235  -4.024  31.888  0.00  0.00    -0.005 C 
ATOM     16  C   UNL A   1     -36.831  -4.349  32.983  0.00  0.00    -0.026 C 
ATOM     17  C   UNL A   1     -38.072  -3.709  33.341  0.00  0.00    +0.031 C 
ENDBRANCH  13  15
ENDBRANCH   7   9
BRANCH   1  18
ATOM     18  C   UNL A   1     -28.016  -0.814  28.878  0.00  0.00    +0.112 C 
BRANCH  18  19
ATOM     19  C   UNL A   1     -27.064  -0.119  28.608  0.00  0.00    -0.013 A 
ATOM     20  C   UNL A   1     -25.792  -0.430  29.076  0.00  0.00    -0.004 A 
ATOM     21  C   UNL A   1     -24.546   0.349  28.823  0.00  0.00    +0.008 A 
ATOM     22  C   UNL A   1     -24.659   1.420  27.888  0.00  0.00    +0.098 A 
ATOM     23  C   UNL A   1     -25.947   1.681  27.379  0.00  0.00    +0.008 A 
ATOM     24  C   UNL A   1     -26.881   0.930  27.712  0.00  0.00    -0.004 A 
BRANCH  22  25
ATOM     25  C   UNL A   1     -23.429   2.163  27.607  0.00  0.00    +0.477 C 
ATOM     26  N   UNL A   1     -22.505   1.809  27.215  0.00  0.00    +0.205 NA
ATOM     27  N   UNL A   1     -23.677   3.574  27.548  0.00  0.00    +0.205 NA
ENDBRANCH  22  25
ENDBRANCH  18  19
ENDBRANCH   1  18
TORSDOF 5
