REMARK  Name = No_4779-gen_results/8p0m/2024-11-26-14-13-15/
REMARK  1 active torsions:
REMARK  status: ('A' for Active; 'I' for Inactive)
REMARK    1  A    between atoms: C_5  and  N_7
REMARK                            x       y       z     vdW  Elec       q    Type
REMARK                         _______ _______ _______ _____ _____    ______ ____
ROOT
ATOM      1  C   UNL A   1     -28.016  -0.814  28.878  0.00  0.00    +0.001 A 
ATOM      2  C   UNL A   1     -27.064  -0.119  28.608  0.00  0.00    +0.000 A 
ATOM      3  C   UNL A   1     -26.972   0.714  27.506  0.00  0.00    +0.001 A 
ATOM      4  C   UNL A   1     -28.105   0.774  26.642  0.00  0.00    +0.015 A 
ATOM      5  C   UNL A   1     -29.201   0.104  27.053  0.00  0.00    +0.048 A 
ATOM      6  C   UNL A   1     -29.210  -0.603  28.185  0.00  0.00    +0.015 A 
ENDROOT
BRANCH   5   7
ATOM      7  N   UNL A   1     -30.308   0.222  26.222  0.00  0.00    -0.307 N 
ATOM      8  C   UNL A   1     -31.028   1.086  26.054  0.00  0.00    +0.091 C 
ATOM      9  C   UNL A   1     -32.130   1.055  25.114  0.00  0.00    +0.021 C 
ATOM     10  C   UNL A   1     -30.948  -0.915  25.660  0.00  0.00    +0.091 C 
ATOM     11  C   UNL A   1     -31.893  -1.027  24.846  0.00  0.00    +0.021 C 
ATOM     12  C   UNL A   1     -32.586   0.062  24.579  0.00  0.00    +0.004 C 
ENDBRANCH   5   7
TORSDOF 1
