MODEL 4779
MODEL 1
REMARK VINA RESULT:    -6.113      0.000      0.000
REMARK INTER + INTRA:          -6.740
REMARK INTER:                  -6.470
REMARK INTRA:                  -0.270
REMARK UNBOUND:                -0.270
REMARK  Name = No_4779-gen_results/8p0m/2024-11-26-14-13-15/
REMARK  1 active torsions:
REMARK  status: ('A' for Active; 'I' for Inactive)
REMARK    1  A    between atoms: C_5  and  N_7
REMARK                            x       y       z     vdW  Elec       q    Type
REMARK                         _______ _______ _______ _____ _____    ______ ____
ROOT
ATOM      1  C   UNL A   1     -24.971  -5.096  29.207  0.00  0.00    +0.001 A 
ATOM      2  C   UNL A   1     -26.081  -4.832  29.608  0.00  0.00    +0.000 A 
ATOM      3  C   UNL A   1     -26.536  -3.561  29.915  0.00  0.00    +0.001 A 
ATOM      4  C   UNL A   1     -25.628  -2.480  29.712  0.00  0.00    +0.015 A 
ATOM      5  C   UNL A   1     -24.455  -2.793  29.124  0.00  0.00    +0.048 A 
ATOM      6  C   UNL A   1     -24.150  -4.047  28.787  0.00  0.00    +0.015 A 
ENDROOT
BRANCH   5   7
ATOM      7  N   UNL A   1     -23.611  -1.715  28.888  0.00  0.00    -0.307 N 
ATOM      8  C   UNL A   1     -22.620  -1.423  29.364  0.00  0.00    +0.091 C 
ATOM      9  C   UNL A   1     -21.841  -0.266  28.974  0.00  0.00    +0.021 C 
ATOM     10  C   UNL A   1     -24.052  -0.555  28.197  0.00  0.00    +0.091 C 
ATOM     11  C   UNL A   1     -23.448   0.476  27.822  0.00  0.00    +0.021 C 
ATOM     12  C   UNL A   1     -22.233   0.665  28.295  0.00  0.00    +0.004 C 
ENDBRANCH   5   7
TORSDOF 1
ENDMDL
ENDMDL
