MODEL 477
MODEL 1
REMARK VINA RESULT:    -6.590      0.000      0.000
REMARK INTER + INTRA:          -6.590
REMARK INTER:                  -6.590
REMARK INTRA:                   0.000
REMARK UNBOUND:                 0.000
REMARK  Name = No_477-gen_results/8p0m/2024-11-26-14-13-15/
REMARK  0 active torsions:
REMARK  status: ('A' for Active; 'I' for Inactive)
REMARK                            x       y       z     vdW  Elec       q    Type
REMARK                         _______ _______ _______ _____ _____    ______ ____
ROOT
ATOM      1  C   UNL A   1     -29.688 -11.476  27.954  0.00  0.00    +0.000 A 
ATOM      2  C   UNL A   1     -29.406 -11.174  29.091  0.00  0.00    +0.000 A 
ATOM      3  C   UNL A   1     -28.631 -11.959  29.921  0.00  0.00    +0.000 A 
ATOM      4  C   UNL A   1     -28.329 -11.679  31.312  0.00  0.00    +0.000 A 
ATOM      5  C   UNL A   1     -27.509 -12.444  32.117  0.00  0.00    +0.000 A 
ATOM      6  C   UNL A   1     -30.512 -10.558  27.147  0.00  0.00    +0.000 A 
ATOM      7  C   UNL A   1     -31.149  -9.851  27.639  0.00  0.00    +0.000 A 
ATOM      8  C   UNL A   1     -31.220  -9.459  29.021  0.00  0.00    +0.000 A 
ATOM      9  C   UNL A   1     -30.312 -10.241  29.795  0.00  0.00    +0.000 A 
ATOM     10  C   UNL A   1     -27.220 -11.957  33.419  0.00  0.00    +0.000 A 
ATOM     11  C   UNL A   1     -27.914 -10.876  33.965  0.00  0.00    +0.000 A 
ATOM     12  C   UNL A   1     -28.823 -10.204  33.185  0.00  0.00    +0.000 A 
ATOM     13  C   UNL A   1     -29.064 -10.568  31.879  0.00  0.00    +0.000 A 
ATOM     14  C   UNL A   1     -30.047  -9.963  31.220  0.00  0.00    +0.000 A 
ENDROOT
TORSDOF 0
ENDMDL
ENDMDL
