REMARK  Name = No_478-gen_results/8p0m/2024-11-26-14-13-15/
REMARK  4 active torsions:
REMARK  status: ('A' for Active; 'I' for Inactive)
REMARK    1  A    between atoms: C_2  and  C_20
REMARK    2  A    between atoms: C_3  and  C_4
REMARK    3  A    between atoms: C_4  and  C_8
REMARK    4  A    between atoms: C_12  and  C_13
REMARK                            x       y       z     vdW  Elec       q    Type
REMARK                         _______ _______ _______ _____ _____    ______ ____
ROOT
ATOM      1  C   UNL A   1     -28.016  -0.814  28.878  0.00  0.00    +0.001 A 
ATOM      2  C   UNL A   1     -28.469  -0.785  29.829  0.00  0.00    +0.053 A 
ATOM      3  C   UNL A   1     -26.504  -0.778  28.877  0.00  0.00    -0.018 A 
ATOM      4  C   UNL A   1     -27.918  -0.937  31.182  0.00  0.00    +0.004 A 
ATOM      5  C   UNL A   1     -26.542  -0.940  31.261  0.00  0.00    -0.000 A 
ATOM      6  C   UNL A   1     -25.783  -0.893  30.120  0.00  0.00    -0.004 A 
ENDROOT
BRANCH   2   7
ATOM      7  C   UNL A   1     -30.091  -0.689  29.861  0.00  0.00    +0.249 C 
ATOM      8  O   UNL A   1     -30.702  -1.686  29.877  0.00  0.00    -0.270 OA
ATOM      9  N   UNL A   1     -30.634   0.565  29.743  0.00  0.00    -0.276 N 
ATOM     10  C   UNL A   1     -29.957   1.838  29.760  0.00  0.00    +0.094 C 
ATOM     11  C   UNL A   1     -30.757   2.921  29.361  0.00  0.00    +0.022 C 
ATOM     12  C   UNL A   1     -32.009   2.710  28.977  0.00  0.00    +0.004 C 
ATOM     13  C   UNL A   1     -32.608   1.499  28.925  0.00  0.00    +0.022 C 
ATOM     14  C   UNL A   1     -31.888   0.431  29.235  0.00  0.00    +0.094 C 
ENDBRANCH   2   7
BRANCH   3  15
ATOM     15  C   UNL A   1     -25.654  -0.660  27.719  0.00  0.00    +0.053 C 
BRANCH  15  16
ATOM     16  C   UNL A   1     -25.213   0.692  27.383  0.00  0.00    -0.018 A 
ATOM     17  C   UNL A   1     -23.920   0.921  27.770  0.00  0.00    -0.004 A 
ATOM     18  C   UNL A   1     -23.339   2.219  27.369  0.00  0.00    -0.000 A 
ATOM     19  C   UNL A   1     -24.031   3.076  26.594  0.00  0.00    -0.000 A 
ATOM     20  C   UNL A   1     -25.872   1.532  26.519  0.00  0.00    -0.004 A 
ATOM     21  C   UNL A   1     -25.314   2.713  26.129  0.00  0.00    -0.000 A 
BRANCH  20  22
ATOM     22  C   UNL A   1     -27.177   1.128  26.099  0.00  0.00    -0.000 A 
ATOM     23  C   UNL A   1     -28.102   2.090  25.888  0.00  0.00    -0.000 A 
ATOM     24  C   UNL A   1     -29.419   1.752  25.413  0.00  0.00    -0.000 A 
ATOM     25  C   UNL A   1     -29.656   0.443  25.116  0.00  0.00    -0.000 A 
ATOM     26  C   UNL A   1     -28.688  -0.520  25.116  0.00  0.00    -0.000 A 
ATOM     27  C   UNL A   1     -27.396  -0.149  25.624  0.00  0.00    -0.000 A 
ENDBRANCH  20  22
ENDBRANCH  15  16
ENDBRANCH   3  15
TORSDOF 4
