MODEL 4780
MODEL 1
REMARK VINA RESULT:    -7.343      0.000      0.000
REMARK INTER + INTRA:         -10.840
REMARK INTER:                  -9.919
REMARK INTRA:                  -0.921
REMARK UNBOUND:                -0.921
REMARK  Name = No_4780-gen_results/8p0m/2024-11-26-14-13-15/
REMARK  6 active torsions:
REMARK  status: ('A' for Active; 'I' for Inactive)
REMARK    1  A    between atoms: C_3  and  C_9
REMARK    2  A    between atoms: C_9  and  C_10
REMARK    3  A    between atoms: C_14  and  C_16
REMARK    4  A    between atoms: C_16  and  C_17
REMARK    5  A    between atoms: C_17  and  C_18
REMARK    6  A    between atoms: C_19  and  C_20
REMARK                            x       y       z     vdW  Elec       q    Type
REMARK                         _______ _______ _______ _____ _____    ______ ____
ROOT
ATOM      1  C   UNL A   1     -23.104  -0.245  28.524  0.00  0.00    -0.018 A 
ATOM      2  C   UNL A   1     -22.049   0.582  28.451  0.00  0.00    -0.004 A 
ATOM      3  C   UNL A   1     -21.948   1.637  27.445  0.00  0.00    -0.001 A 
ATOM      4  C   UNL A   1     -23.037   1.769  26.545  0.00  0.00    -0.004 A 
ATOM      5  C   UNL A   1     -24.137   0.867  26.643  0.00  0.00    -0.022 A 
ATOM      6  C   UNL A   1     -24.231  -0.089  27.654  0.00  0.00    -0.008 A 
ENDROOT
BRANCH   1   7
ATOM      7  C   UNL A   1     -23.213  -1.063  29.676  0.00  0.00    +0.055 C 
BRANCH   7  10
ATOM      8  F   UNL A   1     -25.612  -0.657  30.718  0.00  0.00    -0.204 F 
ATOM      9  C   UNL A   1     -25.548  -1.660  30.319  0.00  0.00    +0.137 A 
ATOM     10  C   UNL A   1     -24.354  -2.004  29.750  0.00  0.00    +0.011 A 
ATOM     11  C   UNL A   1     -24.029  -3.346  29.219  0.00  0.00    +0.010 A 
ATOM     12  C   UNL A   1     -26.598  -2.644  30.325  0.00  0.00    +0.030 A 
ATOM     13  C   UNL A   1     -26.314  -3.958  29.786  0.00  0.00    +0.014 A 
ATOM     14  C   UNL A   1     -25.052  -4.277  29.247  0.00  0.00    +0.058 A 
ATOM     15 CL   UNL A   1     -24.748  -5.818  28.638  0.00  0.00    -0.082 Cl
ENDBRANCH   7  10
ENDBRANCH   1   7
BRANCH   5  16
ATOM     16  C   UNL A   1     -25.276   1.127  25.724  0.00  0.00    +0.031 C 
BRANCH  16  17
ATOM     17  C   UNL A   1     -25.506   0.357  24.727  0.00  0.00    +0.031 C 
BRANCH  17  18
ATOM     18  C   UNL A   1     -26.634  -0.230  24.516  0.00  0.00    -0.024 C 
ATOM     19  C   UNL A   1     -27.858   0.422  24.058  0.00  0.00    +0.018 C 
BRANCH  19  20
ATOM     20  C   UNL A   1     -29.040  -0.290  23.721  0.00  0.00    +0.122 C 
ATOM     21  N   UNL A   1     -29.003  -1.539  23.464  0.00  0.00    -0.146 NA
ENDBRANCH  19  20
ENDBRANCH  17  18
ENDBRANCH  16  17
ENDBRANCH   5  16
TORSDOF 6
ENDMDL
ENDMDL
