REMARK  Name = No_4780-gen_results/8p0m/2024-11-26-14-13-15/
REMARK  6 active torsions:
REMARK  status: ('A' for Active; 'I' for Inactive)
REMARK    1  A    between atoms: C_3  and  C_9
REMARK    2  A    between atoms: C_9  and  C_10
REMARK    3  A    between atoms: C_14  and  C_16
REMARK    4  A    between atoms: C_16  and  C_17
REMARK    5  A    between atoms: C_17  and  C_18
REMARK    6  A    between atoms: C_19  and  C_20
REMARK                            x       y       z     vdW  Elec       q    Type
REMARK                         _______ _______ _______ _____ _____    ______ ____
ROOT
ATOM      1  C   UNL A   1     -24.969  -0.356  29.051  0.00  0.00    -0.018 A 
ATOM      2  C   UNL A   1     -23.705  -0.770  29.234  0.00  0.00    -0.004 A 
ATOM      3  C   UNL A   1     -22.585  -0.232  28.465  0.00  0.00    -0.001 A 
ATOM      4  C   UNL A   1     -22.887   0.776  27.514  0.00  0.00    -0.004 A 
ATOM      5  C   UNL A   1     -24.242   1.185  27.336  0.00  0.00    -0.022 A 
ATOM      6  C   UNL A   1     -25.279   0.696  28.130  0.00  0.00    -0.008 A 
ENDROOT
BRANCH   1   7
ATOM      7  C   UNL A   1     -25.933  -0.760  30.008  0.00  0.00    +0.055 C 
BRANCH   7  10
ATOM      8  F   UNL A   1     -28.073  -1.254  28.532  0.00  0.00    -0.204 F 
ATOM      9  C   UNL A   1     -28.266  -0.421  29.193  0.00  0.00    +0.137 A 
ATOM     10  C   UNL A   1     -27.236  -0.057  30.015  0.00  0.00    +0.011 A 
ATOM     11  C   UNL A   1     -27.261   1.101  30.935  0.00  0.00    +0.010 A 
ATOM     12  C   UNL A   1     -29.497   0.318  29.290  0.00  0.00    +0.030 A 
ATOM     13  C   UNL A   1     -29.557   1.440  30.204  0.00  0.00    +0.014 A 
ATOM     14  C   UNL A   1     -28.453   1.802  31.001  0.00  0.00    +0.058 A 
ATOM     15 CL   UNL A   1     -28.549   3.120  32.046  0.00  0.00    -0.082 Cl
ENDBRANCH   7  10
ENDBRANCH   1   7
BRANCH   5  16
ATOM     16  C   UNL A   1     -24.464   2.307  26.387  0.00  0.00    +0.031 C 
BRANCH  16  17
ATOM     17  C   UNL A   1     -24.983   3.409  26.782  0.00  0.00    +0.031 C 
BRANCH  17  18
ATOM     18  C   UNL A   1     -25.292   3.661  28.007  0.00  0.00    -0.024 C 
ATOM     19  C   UNL A   1     -25.792   4.937  28.513  0.00  0.00    +0.018 C 
BRANCH  19  20
ATOM     20  C   UNL A   1     -26.235   5.125  29.849  0.00  0.00    +0.122 C 
ATOM     21  N   UNL A   1     -26.931   6.144  30.172  0.00  0.00    -0.146 NA
ENDBRANCH  19  20
ENDBRANCH  17  18
ENDBRANCH  16  17
ENDBRANCH   5  16
TORSDOF 6
