MODEL 4781
MODEL 1
REMARK VINA RESULT:    -7.507      0.000      0.000
REMARK INTER + INTRA:          -8.614
REMARK INTER:                  -7.946
REMARK INTRA:                  -0.668
REMARK UNBOUND:                -0.668
REMARK  Name = No_4781-gen_results/8p0m/2024-11-26-14-13-15/
REMARK  1 active torsions:
REMARK  status: ('A' for Active; 'I' for Inactive)
REMARK    1  A    between atoms: C_3  and  C_8
REMARK                            x       y       z     vdW  Elec       q    Type
REMARK                         _______ _______ _______ _____ _____    ______ ____
ROOT
ATOM      1  C   UNL A   1     -24.483  -1.165  29.709  0.00  0.00    +0.038 C 
ATOM      2  C   UNL A   1     -24.522  -2.549  29.702  0.00  0.00    -0.023 A 
ATOM      3  C   UNL A   1     -23.879  -3.214  28.909  0.00  0.00    -0.004 A 
ATOM      4  C   UNL A   1     -24.003  -4.704  28.843  0.00  0.00    -0.000 A 
ATOM      5  C   UNL A   1     -25.282  -5.246  28.898  0.00  0.00    -0.000 A 
ATOM      6  C   UNL A   1     -26.165  -4.467  29.700  0.00  0.00    -0.005 A 
ATOM      7  C   UNL A   1     -26.036  -3.023  29.693  0.00  0.00    -0.026 A 
ATOM      8  C   UNL A   1     -23.222  -0.874  30.691  0.00  0.00    +0.009 C 
ATOM      9  C   UNL A   1     -25.710  -0.579  30.377  0.00  0.00    +0.013 C 
ATOM     10  C   UNL A   1     -26.778  -2.148  30.518  0.00  0.00    +0.027 C 
ENDROOT
BRANCH   1  13
ATOM     11  C   UNL A   1     -22.888   1.076  27.389  0.00  0.00    +0.029 A 
ATOM     12  C   UNL A   1     -23.103   0.382  28.356  0.00  0.00    -0.002 A 
ATOM     13  C   UNL A   1     -24.251  -0.399  28.439  0.00  0.00    -0.019 A 
ATOM     14  C   UNL A   1     -25.243  -0.370  27.395  0.00  0.00    -0.002 A 
ATOM     15  C   UNL A   1     -24.926   0.478  26.326  0.00  0.00    +0.029 A 
ATOM     16  C   UNL A   1     -23.834   1.208  26.303  0.00  0.00    +0.140 A 
ATOM     17  F   UNL A   1     -23.604   1.984  25.261  0.00  0.00    -0.204 F 
ENDBRANCH   1  13
TORSDOF 1
ENDMDL
ENDMDL
