REMARK  Name = No_4781-gen_results/8p0m/2024-11-26-14-13-15/
REMARK  1 active torsions:
REMARK  status: ('A' for Active; 'I' for Inactive)
REMARK    1  A    between atoms: C_3  and  C_8
REMARK                            x       y       z     vdW  Elec       q    Type
REMARK                         _______ _______ _______ _____ _____    ______ ____
ROOT
ATOM      1  C   UNL A   1     -24.681   0.531  28.765  0.00  0.00    +0.038 C 
ATOM      2  C   UNL A   1     -24.669   1.800  29.318  0.00  0.00    -0.023 A 
ATOM      3  C   UNL A   1     -25.150   2.038  30.412  0.00  0.00    -0.004 A 
ATOM      4  C   UNL A   1     -25.222   3.429  30.959  0.00  0.00    -0.000 A 
ATOM      5  C   UNL A   1     -25.634   4.439  30.097  0.00  0.00    -0.000 A 
ATOM      6  C   UNL A   1     -25.236   4.195  28.751  0.00  0.00    -0.005 A 
ATOM      7  C   UNL A   1     -25.229   2.834  28.253  0.00  0.00    -0.026 A 
ATOM      8  C   UNL A   1     -23.308  -0.102  29.358  0.00  0.00    +0.009 C 
ATOM      9  C   UNL A   1     -24.531   0.582  27.258  0.00  0.00    +0.013 C 
ATOM     10  C   UNL A   1     -24.760   2.450  26.976  0.00  0.00    +0.027 C 
ENDROOT
BRANCH   1  13
ATOM     11  C   UNL A   1     -28.016  -0.814  28.878  0.00  0.00    +0.029 A 
ATOM     12  C   UNL A   1     -27.064  -0.119  28.608  0.00  0.00    -0.002 A 
ATOM     13  C   UNL A   1     -25.792  -0.430  29.076  0.00  0.00    -0.019 A 
ATOM     14  C   UNL A   1     -25.576  -1.565  29.936  0.00  0.00    -0.002 A 
ATOM     15  C   UNL A   1     -26.735  -2.300  30.217  0.00  0.00    +0.029 A 
ATOM     16  C   UNL A   1     -27.918  -1.954  29.763  0.00  0.00    +0.140 A 
ATOM     17  F   UNL A   1     -28.965  -2.696  30.072  0.00  0.00    -0.204 F 
ENDBRANCH   1  13
TORSDOF 1
