MODEL 4782
MODEL 1
REMARK VINA RESULT:    -6.377      0.000      0.000
REMARK INTER + INTRA:          -7.671
REMARK INTER:                  -7.122
REMARK INTRA:                  -0.548
REMARK UNBOUND:                -0.548
REMARK  Name = No_4782-gen_results/8p0m/2024-11-26-14-13-15/
REMARK  2 active torsions:
REMARK  status: ('A' for Active; 'I' for Inactive)
REMARK    1  A    between atoms: C_3  and  C_4
REMARK    2  A    between atoms: C_4  and  C_8
REMARK                            x       y       z     vdW  Elec       q    Type
REMARK                         _______ _______ _______ _____ _____    ______ ____
ROOT
ATOM      1  C   UNL A   1     -24.801  -1.060  29.391  0.00  0.00    +0.053 C 
ENDROOT
BRANCH   1   4
ATOM      2  C   UNL A   1     -25.368  -0.329  26.938  0.00  0.00    -0.004 A 
ATOM      3  C   UNL A   1     -24.993   0.222  26.122  0.00  0.00    -0.000 A 
ATOM      4  C   UNL A   1     -24.583  -0.281  28.182  0.00  0.00    -0.018 A 
ATOM      5  C   UNL A   1     -23.907   1.227  26.029  0.00  0.00    -0.000 A 
ATOM      6  C   UNL A   1     -23.121   1.338  27.170  0.00  0.00    -0.000 A 
ATOM      7  C   UNL A   1     -23.429   0.617  28.305  0.00  0.00    -0.004 A 
ENDBRANCH   1   4
BRANCH   1   8
ATOM      8  C   UNL A   1     -25.002  -2.506  29.198  0.00  0.00    -0.018 A 
ATOM      9  C   UNL A   1     -23.910  -3.148  28.713  0.00  0.00    -0.004 A 
ATOM     10  C   UNL A   1     -23.977  -4.590  28.577  0.00  0.00    -0.000 A 
ATOM     11  C   UNL A   1     -25.058  -5.286  29.009  0.00  0.00    -0.000 A 
ATOM     12  C   UNL A   1     -26.084  -3.207  29.702  0.00  0.00    -0.004 A 
ATOM     13  C   UNL A   1     -26.130  -4.567  29.610  0.00  0.00    -0.000 A 
ENDBRANCH   1   8
TORSDOF 2
ENDMDL
ENDMDL
