MODEL 4783
MODEL 1
REMARK VINA RESULT:    -6.336      0.000      0.000
REMARK INTER + INTRA:          -7.688
REMARK INTER:                  -7.077
REMARK INTRA:                  -0.611
REMARK UNBOUND:                -0.611
REMARK  Name = No_4783-gen_results/8p0m/2024-11-26-14-13-15/
REMARK  2 active torsions:
REMARK  status: ('A' for Active; 'I' for Inactive)
REMARK    1  A    between atoms: C_3  and  C_7
REMARK    2  A    between atoms: C_8  and  C_9
REMARK                            x       y       z     vdW  Elec       q    Type
REMARK                         _______ _______ _______ _____ _____    ______ ____
ROOT
ATOM      1  C   UNL A   1     -24.888  -1.141  28.624  0.00  0.00    +0.007 C 
ATOM      2  C   UNL A   1     -24.588  -0.327  29.329  0.00  0.00    +0.035 C 
ATOM      3 BR   UNL A   1     -24.724   1.532  28.791  0.00  0.00    -0.049 Br
ENDROOT
BRANCH   1   6
ATOM      4  C   UNL A   1     -26.129  -3.165  29.597  0.00  0.00    +0.000 A 
ATOM      5  C   UNL A   1     -26.147  -4.209  29.740  0.00  0.00    +0.000 A 
ATOM      6  C   UNL A   1     -25.020  -2.611  28.921  0.00  0.00    +0.001 A 
ATOM      7  C   UNL A   1     -23.976  -3.393  28.466  0.00  0.00    +0.000 A 
ATOM      8  C   UNL A   1     -24.083  -4.756  28.691  0.00  0.00    +0.000 A 
ATOM      9  C   UNL A   1     -25.211  -5.244  29.323  0.00  0.00    +0.000 A 
ENDBRANCH   1   6
BRANCH   2  10
ATOM     10  C   UNL A   1     -24.206  -0.655  30.707  0.00  0.00    +0.006 A 
ATOM     11  C   UNL A   1     -23.150  -0.936  31.000  0.00  0.00    +0.001 A 
ATOM     12  C   UNL A   1     -22.906  -1.327  32.370  0.00  0.00    +0.000 A 
ATOM     13  C   UNL A   1     -23.893  -1.096  33.327  0.00  0.00    +0.000 A 
ATOM     14  C   UNL A   1     -25.268  -0.476  31.722  0.00  0.00    +0.001 A 
ATOM     15  C   UNL A   1     -25.096  -0.702  32.965  0.00  0.00    +0.000 A 
ENDBRANCH   2  10
TORSDOF 2
ENDMDL
ENDMDL
