REMARK  Name = No_4784-gen_results/8p0m/2024-11-26-14-13-15/
REMARK  5 active torsions:
REMARK  status: ('A' for Active; 'I' for Inactive)
REMARK    1  A    between atoms: C_1  and  C_2
REMARK    2  A    between atoms: C_5  and  CA_9
REMARK    3  A    between atoms: N_8  and  C_12
REMARK    4  A    between atoms: CA_9  and  C_11
REMARK    5  A    between atoms: C_12  and  C_14
REMARK                            x       y       z     vdW  Elec       q    Type
REMARK                         _______ _______ _______ _____ _____    ______ ____
ROOT
ATOM      1  C   UNL A   1     -27.064  -0.119  28.608  0.00  0.00    +0.019 A 
ATOM      2  C   UNL A   1     -26.972   0.714  27.506  0.00  0.00    +0.002 A 
ATOM      3  C   UNL A   1     -25.820   1.491  27.116  0.00  0.00    +0.001 A 
ATOM      4  C   UNL A   1     -24.656   1.424  27.918  0.00  0.00    +0.018 A 
ATOM      5  C   UNL A   1     -24.685   0.590  29.066  0.00  0.00    +0.001 A 
ATOM      6  C   UNL A   1     -25.810  -0.127  29.334  0.00  0.00    +0.002 A 
ENDROOT
BRANCH   1   7
ATOM      7  C   UNL A   1     -28.016  -0.814  28.878  0.00  0.00    +0.093 C 
ATOM      8  N   UNL A   1     -27.968  -1.690  30.006  0.00  0.00    -0.264 NA
BRANCH   8   9
ATOM      9  C   UNL A   1     -29.058  -2.416  30.388  0.00  0.00    +0.152 C 
BRANCH   9  10
ATOM     10  C   UNL A   1     -30.229  -2.042  29.910  0.00  0.00    +0.002 A 
ATOM     11  C   UNL A   1     -31.314  -2.860  30.246  0.00  0.00    -0.002 A 
ATOM     12  C   UNL A   1     -32.573  -2.579  29.658  0.00  0.00    -0.000 A 
ATOM     13  C   UNL A   1     -32.656  -1.449  28.804  0.00  0.00    -0.000 A 
ATOM     14  C   UNL A   1     -31.592  -0.688  28.517  0.00  0.00    -0.000 A 
ATOM     15  C   UNL A   1     -30.336  -1.013  29.076  0.00  0.00    -0.002 A 
ENDBRANCH   9  10
ENDBRANCH   8   9
ENDBRANCH   1   7
BRANCH   4  16
ATOM     16  CA  UNL A   1     -23.477   2.191  27.604  0.00  0.00    +0.114 C 
ATOM     17  N   UNL A   1     -23.410   2.747  26.392  0.00  0.00    -0.150 NA
BRANCH  16  18
ATOM     18  C   UNL A   1     -22.205   1.940  28.242  0.00  0.00    +0.229 C 
ATOM     19  O   UNL A   1     -22.186   1.353  29.338  0.00  0.00    -0.213 OA
ENDBRANCH  16  18
ENDBRANCH   4  16
TORSDOF 5
