MODEL 4784
MODEL 1
REMARK VINA RESULT:    -6.336      0.000      0.000
REMARK INTER + INTRA:          -8.579
REMARK INTER:                  -8.188
REMARK INTRA:                  -0.391
REMARK UNBOUND:                -0.391
REMARK  Name = No_4784-gen_results/8p0m/2024-11-26-14-13-15/
REMARK  5 active torsions:
REMARK  status: ('A' for Active; 'I' for Inactive)
REMARK    1  A    between atoms: C_1  and  C_2
REMARK    2  A    between atoms: C_5  and  CA_9
REMARK    3  A    between atoms: N_8  and  C_12
REMARK    4  A    between atoms: CA_9  and  C_11
REMARK    5  A    between atoms: C_12  and  C_14
REMARK                            x       y       z     vdW  Elec       q    Type
REMARK                         _______ _______ _______ _____ _____    ______ ____
ROOT
ATOM      1  C   UNL A   1      -7.269  -0.452  35.262  0.00  0.00    +0.019 A 
ATOM      2  C   UNL A   1      -6.136   0.296  35.532  0.00  0.00    +0.002 A 
ATOM      3  C   UNL A   1      -4.773  -0.084  35.248  0.00  0.00    +0.001 A 
ATOM      4  C   UNL A   1      -4.534  -1.339  34.641  0.00  0.00    +0.018 A 
ATOM      5  C   UNL A   1      -5.653  -2.158  34.340  0.00  0.00    +0.001 A 
ATOM      6  C   UNL A   1      -6.903  -1.698  34.620  0.00  0.00    +0.002 A 
ENDROOT
BRANCH   1   7
ATOM      7  C   UNL A   1      -8.407  -0.085  35.445  0.00  0.00    +0.093 C 
ATOM      8  N   UNL A   1      -9.164  -0.613  36.536  0.00  0.00    -0.264 NA
BRANCH   8   9
ATOM      9  C   UNL A   1     -10.415  -0.150  36.822  0.00  0.00    +0.152 C 
BRANCH   9  10
ATOM     10  C   UNL A   1     -11.081  -0.765  37.779  0.00  0.00    +0.002 A 
ATOM     11  C   UNL A   1     -11.230  -0.053  38.975  0.00  0.00    -0.002 A 
ATOM     12  C   UNL A   1     -11.826  -0.712  40.079  0.00  0.00    -0.000 A 
ATOM     13  C   UNL A   1     -12.280  -2.041  39.877  0.00  0.00    -0.000 A 
ATOM     14  C   UNL A   1     -12.125  -2.682  38.711  0.00  0.00    -0.000 A 
ATOM     15  C   UNL A   1     -11.486  -2.023  37.638  0.00  0.00    -0.002 A 
ENDBRANCH   9  10
ENDBRANCH   8   9
ENDBRANCH   1   7
BRANCH   4  16
ATOM     16  CA  UNL A   1      -3.198  -1.796  34.351  0.00  0.00    +0.114 C 
ATOM     17  N   UNL A   1      -3.043  -2.627  33.317  0.00  0.00    -0.150 NA
BRANCH  16  18
ATOM     18  C   UNL A   1      -2.176  -1.876  35.369  0.00  0.00    +0.229 C 
ATOM     19  O   UNL A   1      -2.385  -2.568  36.380  0.00  0.00    -0.213 OA
ENDBRANCH  16  18
ENDBRANCH   4  16
TORSDOF 5
ENDMDL
ENDMDL
