REMARK  Name = No_4785-gen_results/8p0m/2024-11-26-14-13-15/
REMARK  3 active torsions:
REMARK  status: ('A' for Active; 'I' for Inactive)
REMARK    1  A    between atoms: C_3  and  C_7
REMARK    2  A    between atoms: C_7  and  C_9
REMARK    3  A    between atoms: C_10  and  C_11
REMARK                            x       y       z     vdW  Elec       q    Type
REMARK                         _______ _______ _______ _____ _____    ______ ____
ROOT
ATOM      1  C   UNL A   1     -26.384   0.187  27.358  0.00  0.00    +0.101 C 
ATOM      2 BR   UNL A   1     -24.652   0.056  27.304  0.00  0.00    -0.072 Br
ENDROOT
BRANCH   1   5
ATOM      3  C   UNL A   1     -28.016  -0.814  28.878  0.00  0.00    -0.003 A 
ATOM      4  C   UNL A   1     -28.469  -0.785  29.829  0.00  0.00    -0.000 A 
ATOM      5  C   UNL A   1     -27.087   0.290  28.638  0.00  0.00    -0.008 A 
ATOM      6  C   UNL A   1     -26.832   1.249  29.587  0.00  0.00    -0.003 A 
ATOM      7  C   UNL A   1     -28.391   0.080  31.006  0.00  0.00    -0.000 A 
ATOM      8  C   UNL A   1     -27.494   1.152  30.784  0.00  0.00    -0.000 A 
ENDBRANCH   1   5
BRANCH   1   9
ATOM      9  C   UNL A   1     -27.017   0.455  26.091  0.00  0.00    -0.011 C 
ATOM     10  C   UNL A   1     -27.058   1.472  25.572  0.00  0.00    -0.004 C 
BRANCH  10  11
ATOM     11  C   UNL A   1     -27.835   2.254  25.378  0.00  0.00    -0.005 C 
ATOM     12  C   UNL A   1     -29.219   2.051  25.501  0.00  0.00    -0.026 C 
ATOM     13  C   UNL A   1     -29.514   0.688  25.555  0.00  0.00    +0.031 C 
ENDBRANCH  10  11
ENDBRANCH   1   9
TORSDOF 3
