MODEL 4785
MODEL 1
REMARK VINA RESULT:    -6.303      0.000      0.000
REMARK INTER + INTRA:          -7.899
REMARK INTER:                  -7.409
REMARK INTRA:                  -0.490
REMARK UNBOUND:                -0.490
REMARK  Name = No_4785-gen_results/8p0m/2024-11-26-14-13-15/
REMARK  3 active torsions:
REMARK  status: ('A' for Active; 'I' for Inactive)
REMARK    1  A    between atoms: C_3  and  C_7
REMARK    2  A    between atoms: C_7  and  C_9
REMARK    3  A    between atoms: C_10  and  C_11
REMARK                            x       y       z     vdW  Elec       q    Type
REMARK                         _______ _______ _______ _____ _____    ______ ____
ROOT
ATOM      1  C   UNL A   1     -23.867  -0.675  29.031  0.00  0.00    +0.101 C 
ATOM      2 BR   UNL A   1     -23.277  -0.596  30.664  0.00  0.00    -0.072 Br
ENDROOT
BRANCH   1   5
ATOM      3  C   UNL A   1     -24.378   0.527  26.965  0.00  0.00    -0.003 A 
ATOM      4  C   UNL A   1     -24.076   1.264  26.276  0.00  0.00    -0.000 A 
ATOM      5  C   UNL A   1     -23.397   0.274  28.020  0.00  0.00    -0.008 A 
ATOM      6  C   UNL A   1     -22.210   0.960  28.093  0.00  0.00    -0.003 A 
ATOM      7  C   UNL A   1     -22.913   2.136  26.109  0.00  0.00    -0.000 A 
ATOM      8  C   UNL A   1     -21.957   1.898  27.126  0.00  0.00    -0.000 A 
ENDBRANCH   1   5
BRANCH   1   9
ATOM      9  C   UNL A   1     -24.607  -1.868  28.705  0.00  0.00    -0.011 C 
ATOM     10  C   UNL A   1     -24.435  -2.901  29.162  0.00  0.00    -0.004 C 
BRANCH  10  11
ATOM     11  C   UNL A   1     -23.997  -3.875  28.827  0.00  0.00    -0.005 C 
ATOM     12  C   UNL A   1     -24.686  -5.099  28.820  0.00  0.00    -0.026 C 
ATOM     13  C   UNL A   1     -25.845  -5.016  29.593  0.00  0.00    +0.031 C 
ENDBRANCH  10  11
ENDBRANCH   1   9
TORSDOF 3
ENDMDL
ENDMDL
