REMARK  Name = No_4786-gen_results/8p0m/2024-11-26-14-13-15/
REMARK  2 active torsions:
REMARK  status: ('A' for Active; 'I' for Inactive)
REMARK    1  A    between atoms: C_2  and  C_11
REMARK    2  A    between atoms: C_5  and  C_7
REMARK                            x       y       z     vdW  Elec       q    Type
REMARK                         _______ _______ _______ _____ _____    ______ ____
ROOT
ATOM      1  C   UNL A   1     -28.016  -0.814  28.878  0.00  0.00    +0.002 A 
ATOM      2  C   UNL A   1     -27.064  -0.119  28.608  0.00  0.00    +0.018 A 
ATOM      3  C   UNL A   1     -26.972   0.714  27.506  0.00  0.00    +0.002 A 
ATOM      4  C   UNL A   1     -28.105   0.774  26.642  0.00  0.00    +0.005 A 
ATOM      5  C   UNL A   1     -29.201   0.104  27.053  0.00  0.00    +0.055 A 
ATOM      6  C   UNL A   1     -29.210  -0.603  28.185  0.00  0.00    +0.005 A 
ENDROOT
BRANCH   2   7
ATOM      7  C   UNL A   1     -25.709  -0.222  29.429  0.00  0.00    +0.081 A 
ATOM      8  N   UNL A   1     -24.879  -1.185  29.185  0.00  0.00    -0.244 NA
ATOM      9  C   UNL A   1     -23.708  -1.347  29.406  0.00  0.00    +0.099 A 
ATOM     10  C   UNL A   1     -22.959  -0.188  29.789  0.00  0.00    +0.021 A 
ATOM     11  C   UNL A   1     -23.718   0.956  30.230  0.00  0.00    +0.003 A 
ATOM     12  C   UNL A   1     -25.101   1.009  29.857  0.00  0.00    +0.019 A 
ENDBRANCH   2   7
BRANCH   5  13
ATOM     13  C   UNL A   1     -30.370   0.226  26.160  0.00  0.00    +0.265 C 
ATOM     14  O   UNL A   1     -30.339   0.216  24.966  0.00  0.00    -0.268 OA
ATOM     15  N   UNL A   1     -31.597  -0.285  26.755  0.00  0.00    -0.200 NA
ATOM     16  C   UNL A   1     -32.723  -0.416  25.929  0.00  0.00    +0.139 C 
ENDBRANCH   5  13
TORSDOF 2
