MODEL 4787
MODEL 1
REMARK VINA RESULT:    -8.847      0.000      0.000
REMARK INTER + INTRA:         -14.948
REMARK INTER:                 -12.984
REMARK INTRA:                  -1.963
REMARK UNBOUND:                -1.963
REMARK  Name = No_4787-gen_results/8p0m/2024-11-26-14-13-15/
REMARK  8 active torsions:
REMARK  status: ('A' for Active; 'I' for Inactive)
REMARK    1  A    between atoms: C_1  and  C_2
REMARK    2  A    between atoms: C_1  and  N_8
REMARK    3  A    between atoms: C_5  and  C_17
REMARK    4  A    between atoms: N_8  and  C_9
REMARK    5  A    between atoms: N_8  and  C_16
REMARK    6  A    between atoms: C_13  and  C_26
REMARK    7  A    between atoms: C_26  and  C_34
REMARK    8  A    between atoms: C_27  and  C_28
REMARK                            x       y       z     vdW  Elec       q    Type
REMARK                         _______ _______ _______ _____ _____    ______ ____
ROOT
ATOM      1  N   UNL A   1     -23.771  -1.023  29.419  0.00  0.00    -0.257 N 
ENDROOT
BRANCH   1   2
ATOM      2  C   UNL A   1     -23.937  -0.450  28.474  0.00  0.00    +0.054 A 
ATOM      3  C   UNL A   1     -23.198   0.256  27.936  0.00  0.00    +0.015 A 
ATOM      4  C   UNL A   1     -23.444   1.262  26.934  0.00  0.00    +0.001 A 
ATOM      5  C   UNL A   1     -24.761   1.168  26.378  0.00  0.00    +0.000 A 
ATOM      6  C   UNL A   1     -25.704   0.348  26.874  0.00  0.00    +0.001 A 
ATOM      7  C   UNL A   1     -25.374  -0.413  27.947  0.00  0.00    +0.015 A 
BRANCH   6   8
ATOM      8  C   UNL A   1     -27.055   0.306  26.280  0.00  0.00    +0.000 C 
ATOM      9  C   UNL A   1     -27.166   0.584  24.980  0.00  0.00    +0.000 C 
BRANCH   9  10
ATOM     10  C   UNL A   1     -28.481   0.585  24.311  0.00  0.00    +0.000 A 
ATOM     11  C   UNL A   1     -29.060   1.775  23.764  0.00  0.00    +0.000 A 
ATOM     12  C   UNL A   1     -30.291   1.760  23.122  0.00  0.00    +0.000 A 
ATOM     13  C   UNL A   1     -30.966   0.514  22.987  0.00  0.00    +0.000 A 
ATOM     14  C   UNL A   1     -30.386  -0.610  23.496  0.00  0.00    +0.000 A 
ATOM     15  C   UNL A   1     -29.186  -0.606  24.097  0.00  0.00    +0.000 A 
ENDBRANCH   9  10
BRANCH   8  16
ATOM     16  C   UNL A   1     -28.109   1.122  27.033  0.00  0.00    +0.000 C 
ATOM     17  C   UNL A   1     -28.807   0.756  27.871  0.00  0.00    +0.000 C 
ENDBRANCH   8  16
ENDBRANCH   6   8
ENDBRANCH   1   2
BRANCH   1  18
ATOM     18  C   UNL A   1     -24.438  -2.427  29.484  0.00  0.00    +0.054 A 
ATOM     19  C   UNL A   1     -25.584  -2.515  30.040  0.00  0.00    +0.015 A 
ATOM     20  C   UNL A   1     -26.217  -3.623  29.845  0.00  0.00    +0.001 A 
ATOM     21  C   UNL A   1     -23.761  -3.436  28.893  0.00  0.00    +0.015 A 
ATOM     22  C   UNL A   1     -24.296  -4.635  28.767  0.00  0.00    +0.001 A 
ATOM     23  C   UNL A   1     -25.611  -4.785  29.280  0.00  0.00    +0.000 A 
ENDBRANCH   1  18
BRANCH   1  24
ATOM     24  C   UNL A   1     -23.013  -0.704  30.510  0.00  0.00    +0.264 C 
ATOM     25  F   UNL A   1     -21.790  -0.565  30.387  0.00  0.00    -0.209 F 
BRANCH  24  26
ATOM     26  C   UNL A   1     -23.609  -0.562  31.553  0.00  0.00    +0.030 A 
ATOM     27  C   UNL A   1     -23.394  -1.347  32.669  0.00  0.00    +0.000 A 
ATOM     28  C   UNL A   1     -24.133  -1.267  33.915  0.00  0.00    +0.004 A 
ATOM     29  C   UNL A   1     -25.162  -0.306  34.034  0.00  0.00    +0.071 A 
ATOM     30  C   UNL A   1     -25.406   0.510  32.872  0.00  0.00    +0.004 A 
ATOM     31  C   UNL A   1     -24.716   0.391  31.688  0.00  0.00    +0.000 A 
BRANCH  29  32
ATOM     32  C   UNL A   1     -25.980  -0.212  35.190  0.00  0.00    +0.419 C 
ATOM     33  F   UNL A   1     -26.432   0.842  35.472  0.00  0.00    -0.166 F 
ATOM     34  F   UNL A   1     -27.017  -1.098  35.171  0.00  0.00    -0.166 F 
ATOM     35  F   UNL A   1     -25.240  -0.686  36.295  0.00  0.00    -0.166 F 
ENDBRANCH  29  32
ENDBRANCH  24  26
ENDBRANCH   1  24
TORSDOF 8
ENDMDL
ENDMDL
