REMARK  Name = No_4788-gen_results/8p0m/2024-11-26-14-13-15/
REMARK  1 active torsions:
REMARK  status: ('A' for Active; 'I' for Inactive)
REMARK    1  A    between atoms: C_3  and  C_7
REMARK                            x       y       z     vdW  Elec       q    Type
REMARK                         _______ _______ _______ _____ _____    ______ ____
ROOT
ATOM      1  C   UNL A   1     -26.399   0.295  27.228  0.00  0.00    +0.038 A 
ATOM      2  C   UNL A   1     -26.902   0.728  26.213  0.00  0.00    +0.141 A 
ATOM      3  C   UNL A   1     -26.175   0.636  24.926  0.00  0.00    +0.030 A 
ATOM      4  C   UNL A   1     -25.077  -0.207  27.239  0.00  0.00    +0.060 A 
ATOM      5  C   UNL A   1     -24.265  -0.122  26.150  0.00  0.00    +0.011 A 
ATOM      6  C   UNL A   1     -24.875   0.282  24.927  0.00  0.00    +0.003 A 
ATOM      7 CL   UNL A   1     -24.292  -0.712  28.705  0.00  0.00    -0.082 Cl
ATOM      8  F   UNL A   1     -28.186   1.056  26.048  0.00  0.00    -0.204 F 
ENDROOT
BRANCH   1  11
ATOM      9  C   UNL A   1     -28.016  -0.814  28.878  0.00  0.00    +0.011 A 
ATOM     10  C   UNL A   1     -28.469  -0.785  29.829  0.00  0.00    +0.058 A 
ATOM     11  C   UNL A   1     -27.136   0.236  28.535  0.00  0.00    +0.004 A 
ATOM     12  C   UNL A   1     -26.875   1.282  29.398  0.00  0.00    +0.000 A 
ATOM     13  C   UNL A   1     -28.361   0.199  30.924  0.00  0.00    +0.011 A 
ATOM     14  C   UNL A   1     -27.528   1.223  30.636  0.00  0.00    +0.001 A 
ATOM     15 CL   UNL A   1     -29.587  -2.127  30.319  0.00  0.00    -0.082 Cl
ENDBRANCH   1  11
TORSDOF 1
