MODEL 4788
MODEL 1
REMARK VINA RESULT:    -6.665      0.000      0.000
REMARK INTER + INTRA:          -7.646
REMARK INTER:                  -7.055
REMARK INTRA:                  -0.592
REMARK UNBOUND:                -0.592
REMARK  Name = No_4788-gen_results/8p0m/2024-11-26-14-13-15/
REMARK  1 active torsions:
REMARK  status: ('A' for Active; 'I' for Inactive)
REMARK    1  A    between atoms: C_3  and  C_7
REMARK                            x       y       z     vdW  Elec       q    Type
REMARK                         _______ _______ _______ _____ _____    ______ ____
ROOT
ATOM      1  C   UNL A   1     -24.346  -1.135  28.798  0.00  0.00    +0.038 A 
ATOM      2  C   UNL A   1     -24.630  -0.515  27.795  0.00  0.00    +0.141 A 
ATOM      3  C   UNL A   1     -24.071   0.839  27.576  0.00  0.00    +0.030 A 
ATOM      4  C   UNL A   1     -23.570  -0.555  29.828  0.00  0.00    +0.060 A 
ATOM      5  C   UNL A   1     -23.205   0.756  29.804  0.00  0.00    +0.011 A 
ATOM      6  C   UNL A   1     -23.437   1.463  28.588  0.00  0.00    +0.003 A 
ATOM      7 CL   UNL A   1     -23.259  -1.378  31.326  0.00  0.00    -0.082 Cl
ATOM      8  F   UNL A   1     -25.197  -1.014  26.694  0.00  0.00    -0.204 F 
ENDROOT
BRANCH   1  11
ATOM      9  C   UNL A   1     -26.009  -2.916  29.592  0.00  0.00    +0.011 A 
ATOM     10  C   UNL A   1     -26.232  -3.942  29.682  0.00  0.00    +0.058 A 
ATOM     11  C   UNL A   1     -24.770  -2.559  29.016  0.00  0.00    +0.004 A 
ATOM     12  C   UNL A   1     -23.862  -3.508  28.589  0.00  0.00    +0.000 A 
ATOM     13  C   UNL A   1     -25.453  -5.139  29.309  0.00  0.00    +0.011 A 
ATOM     14  C   UNL A   1     -24.258  -4.842  28.753  0.00  0.00    +0.001 A 
ATOM     15 CL   UNL A   1     -27.823  -4.443  30.394  0.00  0.00    -0.082 Cl
ENDBRANCH   1  11
TORSDOF 1
ENDMDL
ENDMDL
