REMARK  Name = No_4789-gen_results/8p0m/2024-11-26-14-13-15/
REMARK  5 active torsions:
REMARK  status: ('A' for Active; 'I' for Inactive)
REMARK    1  A    between atoms: C_2  and  C_15
REMARK    2  A    between atoms: C_4  and  C_7
REMARK    3  A    between atoms: C_15  and  O_17
REMARK    4  A    between atoms: O_17  and  C_18
REMARK    5  A    between atoms: C_19  and  C_20
REMARK                            x       y       z     vdW  Elec       q    Type
REMARK                         _______ _______ _______ _____ _____    ______ ____
ROOT
ATOM      1  C   UNL A   1     -28.016  -0.814  28.878  0.00  0.00    +0.018 A 
ATOM      2  C   UNL A   1     -28.469  -0.785  29.829  0.00  0.00    +0.077 A 
ATOM      3  C   UNL A   1     -26.504  -0.778  28.877  0.00  0.00    +0.054 A 
ATOM      4  C   UNL A   1     -25.810  -0.853  30.103  0.00  0.00    -0.012 A 
ATOM      5  C   UNL A   1     -27.991  -0.892  31.226  0.00  0.00    +0.006 A 
ATOM      6  C   UNL A   1     -26.604  -0.868  31.265  0.00  0.00    -0.003 A 
ATOM      7 CL   UNL A   1     -25.606  -0.721  27.437  0.00  0.00    -0.083 Cl
ENDROOT
BRANCH   4   8
ATOM      8  C   UNL A   1     -24.389  -0.805  30.164  0.00  0.00    +0.020 C 
ATOM      9  C   UNL A   1     -23.817   0.476  29.912  0.00  0.00    +0.004 C 
ATOM     10  C   UNL A   1     -22.501   0.545  29.410  0.00  0.00    +0.000 C 
ATOM     11  C   UNL A   1     -21.770  -0.652  29.213  0.00  0.00    +0.000 C 
ATOM     12  C   UNL A   1     -23.694  -1.821  29.252  0.00  0.00    +0.004 C 
ATOM     13  C   UNL A   1     -22.582  -1.569  28.709  0.00  0.00    +0.000 C 
ATOM     14  C   UNL A   1     -23.866  -1.215  31.672  0.00  0.00    +0.004 C 
ENDBRANCH   4   8
BRANCH   2  15
ATOM     15  C   UNL A   1     -30.077  -0.832  29.819  0.00  0.00    +0.346 C 
ATOM     16  O   UNL A   1     -30.764  -1.637  30.284  0.00  0.00    -0.244 OA
BRANCH  15  17
ATOM     17  O   UNL A   1     -30.597   0.333  29.478  0.00  0.00    -0.415 OA
BRANCH  17  18
ATOM     18  C   UNL A   1     -31.745   0.422  28.761  0.00  0.00    +0.212 C 
ATOM     19  C   UNL A   1     -31.628   0.407  27.449  0.00  0.00    +0.178 C 
ATOM     20  F   UNL A   1     -31.733  -0.953  27.024  0.00  0.00    -0.201 F 
BRANCH  19  21
ATOM     21  C   UNL A   1     -30.579   1.042  26.844  0.00  0.00    +0.031 A 
ATOM     22  C   UNL A   1     -30.236   0.820  25.423  0.00  0.00    +0.002 A 
ATOM     23  C   UNL A   1     -29.057   1.366  24.875  0.00  0.00    +0.000 A 
ATOM     24  C   UNL A   1     -28.202   1.786  25.571  0.00  0.00    +0.000 A 
ATOM     25  C   UNL A   1     -28.363   2.103  26.986  0.00  0.00    +0.000 A 
ATOM     26  C   UNL A   1     -29.510   1.580  27.561  0.00  0.00    +0.002 A 
ENDBRANCH  19  21
ENDBRANCH  17  18
ENDBRANCH  15  17
ENDBRANCH   2  15
TORSDOF 5
