MODEL 4789
MODEL 1
REMARK VINA RESULT:    -7.639      0.000      0.000
REMARK INTER + INTRA:         -10.902
REMARK INTER:                  -9.872
REMARK INTRA:                  -1.030
REMARK UNBOUND:                -1.030
REMARK  Name = No_4789-gen_results/8p0m/2024-11-26-14-13-15/
REMARK  5 active torsions:
REMARK  status: ('A' for Active; 'I' for Inactive)
REMARK    1  A    between atoms: C_2  and  C_15
REMARK    2  A    between atoms: C_4  and  C_7
REMARK    3  A    between atoms: C_15  and  O_17
REMARK    4  A    between atoms: O_17  and  C_18
REMARK    5  A    between atoms: C_19  and  C_20
REMARK                            x       y       z     vdW  Elec       q    Type
REMARK                         _______ _______ _______ _____ _____    ______ ____
ROOT
ATOM      1  C   UNL A   1     -25.641   2.349  26.405  0.00  0.00    +0.018 A 
ATOM      2  C   UNL A   1     -24.891   1.617  26.292  0.00  0.00    +0.077 A 
ATOM      3  C   UNL A   1     -26.958   2.039  25.731  0.00  0.00    +0.054 A 
ATOM      4  C   UNL A   1     -27.150   0.774  25.137  0.00  0.00    -0.012 A 
ATOM      5  C   UNL A   1     -24.842   0.234  25.767  0.00  0.00    +0.006 A 
ATOM      6  C   UNL A   1     -26.039  -0.089  25.144  0.00  0.00    -0.003 A 
ATOM      7 CL   UNL A   1     -28.248   3.144  25.725  0.00  0.00    -0.083 Cl
ENDROOT
BRANCH   4   8
ATOM      8  C   UNL A   1     -28.362   0.434  24.473  0.00  0.00    +0.020 C 
ATOM      9  C   UNL A   1     -29.503   0.321  25.319  0.00  0.00    +0.004 C 
ATOM     10  C   UNL A   1     -30.569  -0.509  24.914  0.00  0.00    +0.000 C 
ATOM     11  C   UNL A   1     -30.498  -1.169  23.663  0.00  0.00    +0.000 C 
ATOM     12  C   UNL A   1     -28.270  -0.841  23.629  0.00  0.00    +0.004 C 
ATOM     13  C   UNL A   1     -29.262  -1.610  23.484  0.00  0.00    +0.000 C 
ATOM     14  C   UNL A   1     -28.760   1.598  23.376  0.00  0.00    +0.004 C 
ENDBRANCH   4   8
BRANCH   2  15
ATOM     15  C   UNL A   1     -23.496   1.953  27.021  0.00  0.00    +0.346 C 
ATOM     16  O   UNL A   1     -23.136   2.975  27.422  0.00  0.00    -0.244 OA
BRANCH  15  17
ATOM     17  O   UNL A   1     -22.876   0.856  27.416  0.00  0.00    -0.415 OA
BRANCH  17  18
ATOM     18  C   UNL A   1     -22.361   0.736  28.664  0.00  0.00    +0.212 C 
ATOM     19  C   UNL A   1     -22.473  -0.443  29.242  0.00  0.00    +0.178 C 
ATOM     20  F   UNL A   1     -21.296  -1.189  28.928  0.00  0.00    -0.201 F 
BRANCH  19  21
ATOM     21  C   UNL A   1     -23.604  -1.191  29.065  0.00  0.00    +0.031 A 
ATOM     22  C   UNL A   1     -24.944  -0.698  29.448  0.00  0.00    +0.002 A 
ATOM     23  C   UNL A   1     -26.065  -1.553  29.400  0.00  0.00    +0.000 A 
ATOM     24  C   UNL A   1     -25.933  -2.721  29.304  0.00  0.00    +0.000 A 
ATOM     25  C   UNL A   1     -24.700  -3.389  28.901  0.00  0.00    +0.000 A 
ATOM     26  C   UNL A   1     -23.575  -2.580  28.939  0.00  0.00    +0.002 A 
ENDBRANCH  19  21
ENDBRANCH  17  18
ENDBRANCH  15  17
ENDBRANCH   2  15
TORSDOF 5
ENDMDL
ENDMDL
