MODEL 478
MODEL 1
REMARK VINA RESULT:    -8.361      0.000      0.000
REMARK INTER + INTRA:         -12.317
REMARK INTER:                 -10.317
REMARK INTRA:                  -2.000
REMARK UNBOUND:                -2.000
REMARK  Name = No_478-gen_results/8p0m/2024-11-26-14-13-15/
REMARK  4 active torsions:
REMARK  status: ('A' for Active; 'I' for Inactive)
REMARK    1  A    between atoms: C_2  and  C_20
REMARK    2  A    between atoms: C_3  and  C_4
REMARK    3  A    between atoms: C_4  and  C_8
REMARK    4  A    between atoms: C_12  and  C_13
REMARK                            x       y       z     vdW  Elec       q    Type
REMARK                         _______ _______ _______ _____ _____    ______ ____
ROOT
ATOM      1  C   UNL A   1     -23.531   0.907  28.598  0.00  0.00    +0.001 A 
ATOM      2  C   UNL A   1     -23.136   1.472  27.801  0.00  0.00    +0.053 A 
ATOM      3  C   UNL A   1     -22.579  -0.088  29.224  0.00  0.00    -0.018 A 
ATOM      4  C   UNL A   1     -21.763   1.647  27.310  0.00  0.00    +0.004 A 
ATOM      5  C   UNL A   1     -20.829   0.792  27.855  0.00  0.00    -0.000 A 
ATOM      6  C   UNL A   1     -21.187  -0.082  28.848  0.00  0.00    -0.004 A 
ENDROOT
BRANCH   2   7
ATOM      7  C   UNL A   1     -24.170   2.454  27.021  0.00  0.00    +0.249 C 
ATOM      8  O   UNL A   1     -24.262   3.561  27.388  0.00  0.00    -0.270 OA
ATOM      9  N   UNL A   1     -24.956   1.876  26.057  0.00  0.00    -0.276 N 
ATOM     10  C   UNL A   1     -24.876   0.540  25.521  0.00  0.00    +0.094 C 
ATOM     11  C   UNL A   1     -25.979   0.169  24.735  0.00  0.00    +0.022 C 
ATOM     12  C   UNL A   1     -26.990   1.013  24.575  0.00  0.00    +0.004 C 
ATOM     13  C   UNL A   1     -27.062   2.245  25.127  0.00  0.00    +0.022 C 
ATOM     14  C   UNL A   1     -26.079   2.632  25.926  0.00  0.00    +0.094 C 
ENDBRANCH   2   7
BRANCH   3  15
ATOM     15  C   UNL A   1     -22.910  -1.075  30.220  0.00  0.00    +0.053 C 
BRANCH  15  16
ATOM     16  C   UNL A   1     -24.090  -1.892  29.945  0.00  0.00    -0.018 A 
ATOM     17  C   UNL A   1     -23.789  -2.987  29.180  0.00  0.00    -0.004 A 
ATOM     18  C   UNL A   1     -24.892  -3.942  28.946  0.00  0.00    -0.000 A 
ATOM     19  C   UNL A   1     -26.092  -3.769  29.532  0.00  0.00    -0.000 A 
ATOM     20  C   UNL A   1     -25.287  -1.777  30.609  0.00  0.00    -0.004 A 
ATOM     21  C   UNL A   1     -26.287  -2.681  30.411  0.00  0.00    -0.000 A 
BRANCH  20  22
ATOM     22  C   UNL A   1     -25.439  -0.644  31.467  0.00  0.00    -0.000 A 
ATOM     23  C   UNL A   1     -26.148   0.410  31.006  0.00  0.00    -0.000 A 
ATOM     24  C   UNL A   1     -26.383   1.560  31.842  0.00  0.00    -0.000 A 
ATOM     25  C   UNL A   1     -25.930   1.498  33.126  0.00  0.00    -0.000 A 
ATOM     26  C   UNL A   1     -25.399   0.373  33.688  0.00  0.00    -0.000 A 
ATOM     27  C   UNL A   1     -25.154  -0.741  32.814  0.00  0.00    -0.000 A 
ENDBRANCH  20  22
ENDBRANCH  15  16
ENDBRANCH   3  15
TORSDOF 4
ENDMDL
ENDMDL
