REMARK  Name = No_479-gen_results/8p0m/2024-11-26-14-13-15/
REMARK  2 active torsions:
REMARK  status: ('A' for Active; 'I' for Inactive)
REMARK    1  A    between atoms: C_3  and  C_7
REMARK    2  A    between atoms: C_6  and  C_12
REMARK                            x       y       z     vdW  Elec       q    Type
REMARK                         _______ _______ _______ _____ _____    ______ ____
ROOT
ATOM      1  C   UNL A   1     -28.016  -0.814  28.878  0.00  0.00    +0.015 A 
ATOM      2  C   UNL A   1     -28.469  -0.785  29.829  0.00  0.00    +0.058 A 
ATOM      3  C   UNL A   1     -27.087   0.290  28.638  0.00  0.00    +0.072 A 
ATOM      4  C   UNL A   1     -26.768   1.027  29.472  0.00  0.00    +0.008 A 
ATOM      5  C   UNL A   1     -28.276   0.027  31.015  0.00  0.00    +0.015 A 
ATOM      6  C   UNL A   1     -27.329   1.054  30.753  0.00  0.00    +0.072 A 
ATOM      7 CL   UNL A   1     -29.663  -2.111  30.390  0.00  0.00    -0.082 Cl
ENDROOT
BRANCH   3   8
ATOM      8  C   UNL A   1     -26.386   0.301  27.266  0.00  0.00    +0.419 C 
ATOM      9  F   UNL A   1     -25.322  -0.304  27.286  0.00  0.00    -0.166 F 
ATOM     10  F   UNL A   1     -27.190  -0.240  26.291  0.00  0.00    -0.166 F 
ATOM     11  F   UNL A   1     -26.083   1.589  26.845  0.00  0.00    -0.166 F 
ENDBRANCH   3   8
BRANCH   6  12
ATOM     12  C   UNL A   1     -26.989   2.079  31.767  0.00  0.00    +0.419 C 
ATOM     13  F   UNL A   1     -26.022   1.952  32.335  0.00  0.00    -0.166 F 
ATOM     14  F   UNL A   1     -27.995   2.095  32.654  0.00  0.00    -0.166 F 
ATOM     15  F   UNL A   1     -27.073   3.293  31.108  0.00  0.00    -0.166 F 
ENDBRANCH   6  12
TORSDOF 2
