MODEL 4790
MODEL 1
REMARK VINA RESULT:    -5.383      0.000      0.000
REMARK INTER + INTRA:          -7.348
REMARK INTER:                  -6.956
REMARK INTRA:                  -0.392
REMARK UNBOUND:                -0.392
REMARK  Name = No_4790-gen_results/8p0m/2024-11-26-14-13-15/
REMARK  5 active torsions:
REMARK  status: ('A' for Active; 'I' for Inactive)
REMARK    1  A    between atoms: C_2  and  C_10
REMARK    2  A    between atoms: C_5  and  C_7
REMARK    3  A    between atoms: C_10  and  N_11
REMARK    4  A    between atoms: N_11  and  C_12
REMARK    5  A    between atoms: C_12  and  C_14
REMARK                            x       y       z     vdW  Elec       q    Type
REMARK                         _______ _______ _______ _____ _____    ______ ____
ROOT
ATOM      1  C   UNL A   1     -29.711 -10.050  31.620  0.00  0.00    -0.003 A 
ATOM      2  C   UNL A   1     -29.645 -10.745  30.633  0.00  0.00    -0.005 A 
ATOM      3  C   UNL A   1     -28.745 -11.780  30.446  0.00  0.00    -0.003 A 
ATOM      4  C   UNL A   1     -27.847 -12.060  31.518  0.00  0.00    +0.006 A 
ATOM      5  C   UNL A   1     -28.048 -11.367  32.657  0.00  0.00    +0.080 A 
ATOM      6  C   UNL A   1     -29.008 -10.446  32.760  0.00  0.00    +0.006 A 
ENDROOT
BRANCH   5   7
ATOM      7  C   UNL A   1     -27.133 -11.716  33.761  0.00  0.00    +0.388 C 
ATOM      8  O   UNL A   1     -26.751 -12.751  33.821  0.00  0.00    -0.241 OA
ATOM      9  O   UNL A   1     -26.852 -10.848  34.726  0.00  0.00    -0.241 OA
ENDBRANCH   5   7
BRANCH   2  10
ATOM     10  C   UNL A   1     -30.649 -10.308  29.509  0.00  0.00    +0.115 C 
BRANCH  10  11
ATOM     11  N   UNL A   1     -30.978 -10.902  28.515  0.00  0.00    -0.213 NA
BRANCH  11  12
ATOM     12  C   UNL A   1     -30.724 -10.571  27.402  0.00  0.00    +0.092 C 
ATOM     13  C   UNL A   1     -31.109  -9.234  26.957  0.00  0.00    +0.020 C 
BRANCH  12  14
ATOM     14  C   UNL A   1     -30.038 -11.377  26.402  0.00  0.00    +0.127 C 
ATOM     15  N   UNL A   1     -28.970 -12.018  26.792  0.00  0.00    -0.130 NA
ENDBRANCH  12  14
ENDBRANCH  11  12
ENDBRANCH  10  11
ENDBRANCH   2  10
TORSDOF 5
ENDMDL
ENDMDL
