REMARK  Name = No_4790-gen_results/8p0m/2024-11-26-14-13-15/
REMARK  5 active torsions:
REMARK  status: ('A' for Active; 'I' for Inactive)
REMARK    1  A    between atoms: C_2  and  C_10
REMARK    2  A    between atoms: C_5  and  C_7
REMARK    3  A    between atoms: C_10  and  N_11
REMARK    4  A    between atoms: N_11  and  C_12
REMARK    5  A    between atoms: C_12  and  C_14
REMARK                            x       y       z     vdW  Elec       q    Type
REMARK                         _______ _______ _______ _____ _____    ______ ____
ROOT
ATOM      1  C   UNL A   1     -28.016  -0.814  28.878  0.00  0.00    -0.003 A 
ATOM      2  C   UNL A   1     -27.064  -0.119  28.608  0.00  0.00    -0.005 A 
ATOM      3  C   UNL A   1     -26.972   0.714  27.506  0.00  0.00    -0.003 A 
ATOM      4  C   UNL A   1     -28.105   0.774  26.642  0.00  0.00    +0.006 A 
ATOM      5  C   UNL A   1     -29.201   0.104  27.053  0.00  0.00    +0.080 A 
ATOM      6  C   UNL A   1     -29.210  -0.603  28.185  0.00  0.00    +0.006 A 
ENDROOT
BRANCH   5   7
ATOM      7  C   UNL A   1     -30.370   0.226  26.160  0.00  0.00    +0.388 C 
ATOM      8  O   UNL A   1     -31.221  -0.463  26.310  0.00  0.00    -0.241 OA
ATOM      9  O   UNL A   1     -30.369   1.065  25.132  0.00  0.00    -0.241 OA
ENDBRANCH   5   7
BRANCH   2  10
ATOM     10  C   UNL A   1     -25.867  -0.308  29.604  0.00  0.00    +0.115 C 
BRANCH  10  11
ATOM     11  N   UNL A   1     -25.447  -1.321  30.100  0.00  0.00    -0.213 NA
BRANCH  11  12
ATOM     12  C   UNL A   1     -24.657  -2.055  29.599  0.00  0.00    +0.092 C 
ATOM     13  C   UNL A   1     -23.302  -1.571  29.351  0.00  0.00    +0.020 C 
BRANCH  12  14
ATOM     14  C   UNL A   1     -24.899  -3.434  29.201  0.00  0.00    +0.127 C 
ATOM     15  N   UNL A   1     -26.068  -3.936  29.494  0.00  0.00    -0.130 NA
ENDBRANCH  12  14
ENDBRANCH  11  12
ENDBRANCH  10  11
ENDBRANCH   2  10
TORSDOF 5
