REMARK  Name = No_4791-gen_results/8p0m/2024-11-26-14-13-15/
REMARK  2 active torsions:
REMARK  status: ('A' for Active; 'I' for Inactive)
REMARK    1  A    between atoms: C_2  and  C_3
REMARK    2  A    between atoms: C_4  and  C_5
REMARK                            x       y       z     vdW  Elec       q    Type
REMARK                         _______ _______ _______ _____ _____    ______ ____
ROOT
ATOM      1  C   UNL A   1     -26.775   0.558  27.414  0.00  0.00    +0.050 C 
ATOM      2  C   UNL A   1     -25.578   1.238  27.089  0.00  0.00    +0.009 C 
ENDROOT
BRANCH   1   4
ATOM      3  C   UNL A   1     -28.016  -0.814  28.878  0.00  0.00    -0.009 C 
ATOM      4  C   UNL A   1     -27.064  -0.119  28.608  0.00  0.00    -0.051 C 
ENDBRANCH   1   4
BRANCH   2   5
ATOM      5  C   UNL A   1     -24.521   1.242  28.047  0.00  0.00    +0.001 C 
ATOM      6  C   UNL A   1     -24.744   0.566  29.265  0.00  0.00    +0.000 C 
ENDBRANCH   2   5
TORSDOF 2
