MODEL 4791
MODEL 1
REMARK VINA RESULT:    -3.479      0.000      0.000
REMARK INTER + INTRA:          -4.016
REMARK INTER:                  -3.885
REMARK INTRA:                  -0.131
REMARK UNBOUND:                -0.131
REMARK  Name = No_4791-gen_results/8p0m/2024-11-26-14-13-15/
REMARK  2 active torsions:
REMARK  status: ('A' for Active; 'I' for Inactive)
REMARK    1  A    between atoms: C_2  and  C_3
REMARK    2  A    between atoms: C_4  and  C_5
REMARK                            x       y       z     vdW  Elec       q    Type
REMARK                         _______ _______ _______ _____ _____    ______ ____
ROOT
ATOM      1  C   UNL A   1     -12.227  -2.659  38.782  0.00  0.00    +0.050 C 
ATOM      2  C   UNL A   1     -11.546  -2.394  37.571  0.00  0.00    +0.009 C 
ENDROOT
BRANCH   1   4
ATOM      3  C   UNL A   1     -11.361  -2.280  40.944  0.00  0.00    -0.009 C 
ATOM      4  C   UNL A   1     -12.066  -1.991  40.005  0.00  0.00    -0.051 C 
ENDBRANCH   1   4
BRANCH   2   5
ATOM      5  C   UNL A   1     -10.570  -1.354  37.557  0.00  0.00    +0.001 C 
ATOM      6  C   UNL A   1     -10.941  -0.121  36.979  0.00  0.00    +0.000 C 
ENDBRANCH   2   5
TORSDOF 2
ENDMDL
ENDMDL
