MODEL 4792
MODEL 1
REMARK VINA RESULT:    -4.333      0.000      0.000
REMARK INTER + INTRA:          -5.310
REMARK INTER:                  -5.093
REMARK INTRA:                  -0.217
REMARK UNBOUND:                -0.217
REMARK  Name = No_4792-gen_results/8p0m/2024-11-26-14-13-15/
REMARK  3 active torsions:
REMARK  status: ('A' for Active; 'I' for Inactive)
REMARK    1  A    between atoms: P_1  and  O_2
REMARK    2  A    between atoms: P_1  and  O_5
REMARK    3  A    between atoms: O_5  and  C_7
REMARK                            x       y       z     vdW  Elec       q    Type
REMARK                         _______ _______ _______ _____ _____    ______ ____
ROOT
ATOM      1  P   UNL A   1     -27.337 -11.900  33.702  0.00  0.00    +0.528 P 
ATOM      2  O   UNL A   1     -28.025 -12.713  34.917  0.00  0.00    -0.115 OA
ATOM      3  O   UNL A   1     -27.127 -10.810  34.476  0.00  0.00    -0.115 OA
ENDROOT
BRANCH   1   4
ATOM      4  O   UNL A   1     -26.779 -12.692  33.108  0.00  0.00    -0.082 OA
ATOM      5  F   UNL A   1     -26.351 -12.663  31.951  0.00  0.00    -0.037 F 
ENDBRANCH   1   4
BRANCH   1   6
ATOM      6  O   UNL A   1     -28.803 -11.616  32.997  0.00  0.00    -0.400 OA
BRANCH   6   7
ATOM      7  C   UNL A   1     -28.889 -10.692  32.041  0.00  0.00    +0.255 C 
ATOM      8  C   UNL A   1     -29.270 -11.180  30.762  0.00  0.00    +0.371 C 
ATOM      9  O   UNL A   1     -30.082 -10.234  30.001  0.00  0.00    -0.251 OA
ATOM     10  F   UNL A   1     -28.228 -11.580  29.940  0.00  0.00    -0.155 F 
ENDBRANCH   6   7
ENDBRANCH   1   6
TORSDOF 3
ENDMDL
ENDMDL
