REMARK  Name = No_4792-gen_results/8p0m/2024-11-26-14-13-15/
REMARK  3 active torsions:
REMARK  status: ('A' for Active; 'I' for Inactive)
REMARK    1  A    between atoms: P_1  and  O_2
REMARK    2  A    between atoms: P_1  and  O_5
REMARK    3  A    between atoms: O_5  and  C_7
REMARK                            x       y       z     vdW  Elec       q    Type
REMARK                         _______ _______ _______ _____ _____    ______ ____
ROOT
ATOM      1  P   UNL A   1     -27.951  -0.579  29.040  0.00  0.00    +0.528 P 
ATOM      2  O   UNL A   1     -27.931   0.086  30.513  0.00  0.00    -0.115 OA
ATOM      3  O   UNL A   1     -29.260  -0.908  29.146  0.00  0.00    -0.115 OA
ENDROOT
BRANCH   1   4
ATOM      4  O   UNL A   1     -27.240   0.061  28.428  0.00  0.00    -0.082 OA
ATOM      5  F   UNL A   1     -26.007   0.115  28.442  0.00  0.00    -0.037 F 
ENDBRANCH   1   4
BRANCH   1   6
ATOM      6  O   UNL A   1     -27.155  -1.921  29.582  0.00  0.00    -0.400 OA
BRANCH   6   7
ATOM      7  C   UNL A   1     -25.823  -1.913  29.606  0.00  0.00    +0.255 C 
ATOM      8  C   UNL A   1     -25.209  -0.971  28.738  0.00  0.00    +0.371 C 
ATOM      9  O   UNL A   1     -23.967  -0.417  29.271  0.00  0.00    -0.251 OA
ATOM     10  F   UNL A   1     -24.938  -1.427  27.457  0.00  0.00    -0.155 F 
ENDBRANCH   6   7
ENDBRANCH   1   6
TORSDOF 3
