MODEL 4793
MODEL 1
REMARK VINA RESULT:    -7.373      0.000      0.000
REMARK INTER + INTRA:          -9.879
REMARK INTER:                  -9.097
REMARK INTRA:                  -0.781
REMARK UNBOUND:                -0.781
REMARK  Name = No_4793-gen_results/8p0m/2024-11-26-14-13-15/
REMARK  4 active torsions:
REMARK  status: ('A' for Active; 'I' for Inactive)
REMARK    1  A    between atoms: C_1  and  C_2
REMARK    2  A    between atoms: C_1  and  N_8
REMARK    3  A    between atoms: C_3  and  C_18
REMARK    4  A    between atoms: C_5  and  C_14
REMARK                            x       y       z     vdW  Elec       q    Type
REMARK                         _______ _______ _______ _____ _____    ______ ____
ROOT
ATOM      1  C   UNL A   1     -25.342  -0.143  29.337  0.00  0.00    -0.006 A 
ATOM      2  C   UNL A   1     -25.251  -1.237  30.174  0.00  0.00    -0.003 A 
ATOM      3  C   UNL A   1     -25.345  -1.204  31.622  0.00  0.00    +0.004 A 
ATOM      4  C   UNL A   1     -25.534   0.040  32.263  0.00  0.00    +0.071 A 
ATOM      5  C   UNL A   1     -25.645   1.188  31.399  0.00  0.00    +0.004 A 
ATOM      6  C   UNL A   1     -25.590   1.128  30.027  0.00  0.00    -0.003 A 
ENDROOT
BRANCH   2   7
ATOM      7  C   UNL A   1     -24.982  -2.567  29.656  0.00  0.00    -0.000 A 
ATOM      8  C   UNL A   1     -24.103  -2.956  29.146  0.00  0.00    -0.000 A 
ATOM      9  C   UNL A   1     -23.882  -4.350  28.640  0.00  0.00    -0.000 A 
ATOM     10  C   UNL A   1     -24.887  -5.247  28.825  0.00  0.00    -0.000 A 
ATOM     11  C   UNL A   1     -26.033  -4.803  29.491  0.00  0.00    -0.000 A 
ATOM     12  C   UNL A   1     -26.165  -3.498  29.897  0.00  0.00    -0.000 A 
ENDBRANCH   2   7
BRANCH   4  13
ATOM     13  C   UNL A   1     -25.692   0.176  33.679  0.00  0.00    +0.419 C 
ATOM     14  F   UNL A   1     -24.749  -0.229  34.341  0.00  0.00    -0.166 F 
ATOM     15  F   UNL A   1     -26.831  -0.440  34.131  0.00  0.00    -0.166 F 
ATOM     16  F   UNL A   1     -25.844   1.538  34.043  0.00  0.00    -0.166 F 
ENDBRANCH   4  13
BRANCH   1  17
ATOM     17  C   UNL A   1     -25.324  -0.220  28.130  0.00  0.00    +0.099 C 
BRANCH  17  18
ATOM     18  N   UNL A   1     -24.431   0.556  27.406  0.00  0.00    -0.269 NA
ATOM     19  C   UNL A   1     -24.686   1.155  26.208  0.00  0.00    +0.072 C 
ATOM     20  C   UNL A   1     -23.677   1.915  25.620  0.00  0.00    +0.017 C 
ATOM     21  C   UNL A   1     -23.106   0.829  27.857  0.00  0.00    +0.072 C 
ATOM     22  C   UNL A   1     -22.173   1.531  27.292  0.00  0.00    +0.017 C 
ATOM     23  C   UNL A   1     -22.444   2.114  26.129  0.00  0.00    +0.003 C 
ENDBRANCH  17  18
ENDBRANCH   1  17
TORSDOF 4
ENDMDL
ENDMDL
