MODEL 4794
MODEL 1
REMARK VINA RESULT:    -5.178      0.000      0.000
REMARK INTER + INTRA:          -5.701
REMARK INTER:                  -5.481
REMARK INTRA:                  -0.220
REMARK UNBOUND:                -0.220
REMARK  Name = No_4794-gen_results/8p0m/2024-11-26-14-13-15/
REMARK  1 active torsions:
REMARK  status: ('A' for Active; 'I' for Inactive)
REMARK    1  A    between atoms: C_3  and  C_4
REMARK                            x       y       z     vdW  Elec       q    Type
REMARK                         _______ _______ _______ _____ _____    ______ ____
ROOT
ATOM      1  C   UNL A   1     -25.765  -2.616  29.834  0.00  0.00    +0.004 A 
ATOM      2  C   UNL A   1     -26.309  -3.515  29.914  0.00  0.00    -0.000 A 
ATOM      3  C   UNL A   1     -24.484  -2.671  29.241  0.00  0.00    +0.071 A 
ATOM      4  C   UNL A   1     -25.971  -4.894  29.518  0.00  0.00    -0.000 A 
ATOM      5  C   UNL A   1     -24.715  -5.025  28.925  0.00  0.00    -0.000 A 
ATOM      6  C   UNL A   1     -23.957  -3.916  28.727  0.00  0.00    +0.004 A 
ENDROOT
BRANCH   3   7
ATOM      7  C   UNL A   1     -23.636  -1.484  28.955  0.00  0.00    +0.419 C 
ATOM      8  F   UNL A   1     -22.533  -1.859  28.861  0.00  0.00    -0.166 F 
ATOM      9  F   UNL A   1     -23.681  -0.689  30.056  0.00  0.00    -0.166 F 
ATOM     10  F   UNL A   1     -24.062  -0.783  27.876  0.00  0.00    -0.166 F 
ENDBRANCH   3   7
TORSDOF 1
ENDMDL
ENDMDL
