REMARK  Name = No_4795-gen_results/8p0m/2024-11-26-14-13-15/
REMARK  4 active torsions:
REMARK  status: ('A' for Active; 'I' for Inactive)
REMARK    1  A    between atoms: C_2  and  C_11
REMARK    2  A    between atoms: C_3  and  C_7
REMARK    3  A    between atoms: C_6  and  C_14
REMARK    4  A    between atoms: C_14  and  C_16
REMARK                            x       y       z     vdW  Elec       q    Type
REMARK                         _______ _______ _______ _____ _____    ______ ____
ROOT
ATOM      1  C   UNL A   1     -28.016  -0.814  28.878  0.00  0.00    +0.010 A 
ATOM      2  C   UNL A   1     -28.469  -0.785  29.829  0.00  0.00    +0.080 A 
ATOM      3  C   UNL A   1     -27.136   0.236  28.535  0.00  0.00    +0.071 A 
ATOM      4  C   UNL A   1     -26.875   1.282  29.398  0.00  0.00    +0.001 A 
ATOM      5  C   UNL A   1     -28.361   0.199  30.924  0.00  0.00    +0.004 A 
ATOM      6  C   UNL A   1     -27.528   1.223  30.636  0.00  0.00    -0.003 A 
ENDROOT
BRANCH   3   7
ATOM      7  C   UNL A   1     -26.388   0.291  27.233  0.00  0.00    +0.419 C 
ATOM      8  F   UNL A   1     -25.779  -0.523  27.034  0.00  0.00    -0.166 F 
ATOM      9  F   UNL A   1     -25.603   1.460  27.104  0.00  0.00    -0.166 F 
ATOM     10  F   UNL A   1     -27.376   0.523  26.201  0.00  0.00    -0.166 F 
ENDBRANCH   3   7
BRANCH   2  11
ATOM     11  C   UNL A   1     -29.396  -2.022  30.320  0.00  0.00    +0.388 C 
ATOM     12  O   UNL A   1     -28.973  -3.097  30.387  0.00  0.00    -0.241 OA
ATOM     13  O   UNL A   1     -30.521  -1.765  30.707  0.00  0.00    -0.241 OA
ENDBRANCH   2  11
BRANCH   6  14
ATOM     14  C   UNL A   1     -27.288   2.335  31.607  0.00  0.00    +0.124 C 
ATOM     15 CL   UNL A   1     -26.297   3.256  31.743  0.00  0.00    -0.105 Cl
BRANCH  14  16
ATOM     16  C   UNL A   1     -28.475   2.557  32.538  0.00  0.00    -0.010 C 
ATOM     17  C   UNL A   1     -28.386   3.337  33.333  0.00  0.00    -0.029 C 
ATOM     18  C   UNL A   1     -27.466   4.330  33.543  0.00  0.00    +0.030 C 
ENDBRANCH  14  16
ENDBRANCH   6  14
TORSDOF 4
