REMARK  Name = No_4796-gen_results/8p0m/2024-11-26-14-13-15/
REMARK  7 active torsions:
REMARK  status: ('A' for Active; 'I' for Inactive)
REMARK    1  A    between atoms: C_1  and  C_2
REMARK    2  A    between atoms: C_1  and  C_8
REMARK    3  A    between atoms: C_3  and  N_18
REMARK    4  A    between atoms: C_5  and  C_10
REMARK    5  A    between atoms: N_18  and  C_19
REMARK    6  A    between atoms: C_20  and  C_21
REMARK    7  A    between atoms: C_22  and  C_23
REMARK                            x       y       z     vdW  Elec       q    Type
REMARK                         _______ _______ _______ _____ _____    ______ ____
ROOT
ATOM      1  C   UNL A   1     -27.064  -0.119  28.608  0.00  0.00    -0.003 A 
ATOM      2  C   UNL A   1     -26.972   0.714  27.506  0.00  0.00    +0.067 A 
ATOM      3  C   UNL A   1     -25.820   1.491  27.116  0.00  0.00    +0.020 A 
ATOM      4  C   UNL A   1     -24.656   1.424  27.918  0.00  0.00    +0.073 A 
ATOM      5  C   UNL A   1     -24.685   0.590  29.066  0.00  0.00    +0.004 A 
ATOM      6  C   UNL A   1     -25.810  -0.127  29.334  0.00  0.00    -0.003 A 
ENDROOT
BRANCH   4   7
ATOM      7  C   UNL A   1     -23.452   2.189  27.608  0.00  0.00    +0.419 C 
ATOM      8  F   UNL A   1     -22.607   1.663  27.118  0.00  0.00    -0.166 F 
ATOM      9  F   UNL A   1     -23.020   2.860  28.744  0.00  0.00    -0.166 F 
ATOM     10  F   UNL A   1     -23.854   3.299  26.851  0.00  0.00    -0.166 F 
ENDBRANCH   4   7
BRANCH   1  11
ATOM     11  C   UNL A   1     -28.016  -0.814  28.878  0.00  0.00    +0.054 C 
BRANCH  11  12
ATOM     12  C   UNL A   1     -28.694  -0.473  30.159  0.00  0.00    -0.018 A 
ATOM     13  C   UNL A   1     -29.787  -1.325  30.637  0.00  0.00    -0.004 A 
ATOM     14  C   UNL A   1     -28.356   0.626  30.946  0.00  0.00    -0.004 A 
ATOM     15  C   UNL A   1     -28.965   0.901  32.090  0.00  0.00    -0.000 A 
ATOM     16  C   UNL A   1     -30.423  -0.997  31.873  0.00  0.00    -0.000 A 
ATOM     17  C   UNL A   1     -30.004   0.118  32.604  0.00  0.00    -0.000 A 
ENDBRANCH  11  12
ENDBRANCH   1  11
BRANCH   2  18
ATOM     18  N   UNL A   1     -28.060   0.898  26.686  0.00  0.00    -0.211 NA
BRANCH  18  19
ATOM     19  C   UNL A   1     -28.122   1.111  25.403  0.00  0.00    +0.086 C 
ATOM     20  C   UNL A   1     -28.906   1.002  24.707  0.00  0.00    +0.018 C 
BRANCH  20  21
ATOM     21  C   UNL A   1     -29.734   0.173  24.924  0.00  0.00    +0.001 C 
ATOM     22  C   UNL A   1     -30.757   0.099  25.208  0.00  0.00    -0.000 C 
BRANCH  22  23
ATOM     23  C   UNL A   1     -31.422   1.357  25.540  0.00  0.00    -0.005 C 
ATOM     24  C   UNL A   1     -31.101   2.478  24.782  0.00  0.00    -0.026 C 
ATOM     25  C   UNL A   1     -29.928   2.880  24.239  0.00  0.00    +0.031 C 
ENDBRANCH  22  23
ENDBRANCH  20  21
ENDBRANCH  18  19
ENDBRANCH   2  18
TORSDOF 7
