MODEL 4796
MODEL 1
REMARK VINA RESULT:    -7.802      0.000      0.000
REMARK INTER + INTRA:         -12.406
REMARK INTER:                 -10.994
REMARK INTRA:                  -1.412
REMARK UNBOUND:                -1.412
REMARK  Name = No_4796-gen_results/8p0m/2024-11-26-14-13-15/
REMARK  7 active torsions:
REMARK  status: ('A' for Active; 'I' for Inactive)
REMARK    1  A    between atoms: C_1  and  C_2
REMARK    2  A    between atoms: C_1  and  C_8
REMARK    3  A    between atoms: C_3  and  N_18
REMARK    4  A    between atoms: C_5  and  C_10
REMARK    5  A    between atoms: N_18  and  C_19
REMARK    6  A    between atoms: C_20  and  C_21
REMARK    7  A    between atoms: C_22  and  C_23
REMARK                            x       y       z     vdW  Elec       q    Type
REMARK                         _______ _______ _______ _____ _____    ______ ____
ROOT
ATOM      1  C   UNL A   1     -25.099  -0.403  28.254  0.00  0.00    -0.003 A 
ATOM      2  C   UNL A   1     -24.057   0.417  28.655  0.00  0.00    +0.067 A 
ATOM      3  C   UNL A   1     -23.268   1.273  27.803  0.00  0.00    +0.020 A 
ATOM      4  C   UNL A   1     -23.554   1.299  26.418  0.00  0.00    +0.073 A 
ATOM      5  C   UNL A   1     -24.609   0.479  25.940  0.00  0.00    +0.004 A 
ATOM      6  C   UNL A   1     -25.315  -0.273  26.827  0.00  0.00    -0.003 A 
ENDROOT
BRANCH   4   7
ATOM      7  C   UNL A   1     -22.795   2.123  25.481  0.00  0.00    +0.419 C 
ATOM      8  F   UNL A   1     -21.708   2.256  25.660  0.00  0.00    -0.166 F 
ATOM      9  F   UNL A   1     -23.421   3.353  25.328  0.00  0.00    -0.166 F 
ATOM     10  F   UNL A   1     -23.030   1.609  24.198  0.00  0.00    -0.166 F 
ENDBRANCH   4   7
BRANCH   1  11
ATOM     11  C   UNL A   1     -25.792  -1.061  28.994  0.00  0.00    +0.054 C 
BRANCH  11  12
ATOM     12  C   UNL A   1     -25.457  -2.511  29.038  0.00  0.00    -0.018 A 
ATOM     13  C   UNL A   1     -26.406  -3.444  29.652  0.00  0.00    -0.004 A 
ATOM     14  C   UNL A   1     -24.277  -3.049  28.529  0.00  0.00    -0.004 A 
ATOM     15  C   UNL A   1     -24.008  -4.346  28.567  0.00  0.00    -0.000 A 
ATOM     16  C   UNL A   1     -26.082  -4.835  29.678  0.00  0.00    -0.000 A 
ATOM     17  C   UNL A   1     -24.879  -5.286  29.127  0.00  0.00    -0.000 A 
ENDBRANCH  11  12
ENDBRANCH   1  11
BRANCH   2  18
ATOM     18  N   UNL A   1     -23.657   0.431  29.970  0.00  0.00    -0.211 NA
BRANCH  18  19
ATOM     19  C   UNL A   1     -23.792   1.350  30.882  0.00  0.00    +0.086 C 
ATOM     20  C   UNL A   1     -24.218   1.330  31.846  0.00  0.00    +0.018 C 
BRANCH  20  21
ATOM     21  C   UNL A   1     -25.103   0.559  32.049  0.00  0.00    +0.001 C 
ATOM     22  C   UNL A   1     -25.318  -0.295  32.646  0.00  0.00    -0.000 C 
BRANCH  22  23
ATOM     23  C   UNL A   1     -24.208  -0.814  33.444  0.00  0.00    -0.005 C 
ATOM     24  C   UNL A   1     -24.474  -1.185  34.758  0.00  0.00    -0.026 C 
ATOM     25  C   UNL A   1     -25.299  -0.646  35.686  0.00  0.00    +0.031 C 
ENDBRANCH  22  23
ENDBRANCH  20  21
ENDBRANCH  18  19
ENDBRANCH   2  18
TORSDOF 7
ENDMDL
ENDMDL
