MODEL 4797
MODEL 1
REMARK VINA RESULT:    -6.551      0.000      0.000
REMARK INTER + INTRA:          -7.696
REMARK INTER:                  -7.317
REMARK INTRA:                  -0.380
REMARK UNBOUND:                -0.380
REMARK  Name = No_4797-gen_results/8p0m/2024-11-26-14-13-15/
REMARK  2 active torsions:
REMARK  status: ('A' for Active; 'I' for Inactive)
REMARK    1  A    between atoms: C_5  and  C_11
REMARK    2  A    between atoms: C_7  and  C_14
REMARK                            x       y       z     vdW  Elec       q    Type
REMARK                         _______ _______ _______ _____ _____    ______ ____
ROOT
ATOM      1  C   UNL A   1     -30.921  -9.292  30.184  0.00  0.00    +0.016 A 
ATOM      2  C   UNL A   1     -30.088  -9.924  30.791  0.00  0.00    -0.019 A 
ATOM      3  C   UNL A   1     -29.915  -9.844  32.172  0.00  0.00    -0.006 A 
ATOM      4  C   UNL A   1     -28.920 -10.565  32.990  0.00  0.00    +0.039 C 
ATOM      5  C   UNL A   1     -28.198 -11.599  32.320  0.00  0.00    +0.108 C 
ATOM      6  C   UNL A   1     -28.375 -11.745  30.940  0.00  0.00    +0.020 C 
ATOM      7  C   UNL A   1     -29.244 -10.999  30.222  0.00  0.00    +0.044 C 
ATOM      8  C   UNL A   1     -31.357  -7.975  30.739  0.00  0.00    +0.099 A 
ATOM      9  N   UNL A   1     -31.472  -7.913  32.113  0.00  0.00    -0.243 NA
ATOM     10  C   UNL A   1     -30.991  -8.858  32.786  0.00  0.00    +0.094 A 
ENDROOT
BRANCH   5  11
ATOM     11  C   UNL A   1     -27.206 -12.318  33.145  0.00  0.00    +0.365 C 
ATOM     12  O   UNL A   1     -26.388 -13.016  32.556  0.00  0.00    -0.246 OA
ATOM     13  O   UNL A   1     -27.225 -12.351  34.421  0.00  0.00    -0.246 OA
ENDBRANCH   5  11
BRANCH   7  14
ATOM     14  C   UNL A   1     -29.445 -11.310  28.801  0.00  0.00    -0.027 C 
ATOM     15  C   UNL A   1     -29.080 -11.988  28.106  0.00  0.00    -0.030 C 
ATOM     16  C   UNL A   1     -29.365 -12.211  26.729  0.00  0.00    +0.030 C 
ENDBRANCH   7  14
TORSDOF 2
ENDMDL
ENDMDL
