REMARK  Name = No_4797-gen_results/8p0m/2024-11-26-14-13-15/
REMARK  2 active torsions:
REMARK  status: ('A' for Active; 'I' for Inactive)
REMARK    1  A    between atoms: C_5  and  C_11
REMARK    2  A    between atoms: C_7  and  C_14
REMARK                            x       y       z     vdW  Elec       q    Type
REMARK                         _______ _______ _______ _____ _____    ______ ____
ROOT
ATOM      1  C   UNL A   1     -28.016  -0.814  28.878  0.00  0.00    +0.016 A 
ATOM      2  C   UNL A   1     -27.064  -0.119  28.608  0.00  0.00    -0.019 A 
ATOM      3  C   UNL A   1     -25.765  -0.390  29.036  0.00  0.00    -0.006 A 
ATOM      4  C   UNL A   1     -24.552   0.406  28.765  0.00  0.00    +0.039 C 
ATOM      5  C   UNL A   1     -24.696   1.448  27.799  0.00  0.00    +0.108 C 
ATOM      6  C   UNL A   1     -25.976   1.725  27.308  0.00  0.00    +0.020 C 
ATOM      7  C   UNL A   1     -27.072   1.013  27.654  0.00  0.00    +0.044 C 
ATOM      8  C   UNL A   1     -27.985  -1.595  30.152  0.00  0.00    +0.099 A 
ATOM      9  N   UNL A   1     -26.761  -2.132  30.495  0.00  0.00    -0.243 NA
ATOM     10  C   UNL A   1     -25.749  -1.740  29.863  0.00  0.00    +0.094 A 
ENDROOT
BRANCH   5  11
ATOM     11  C   UNL A   1     -23.478   2.239  27.532  0.00  0.00    +0.365 C 
ATOM     12  O   UNL A   1     -23.589   3.202  26.782  0.00  0.00    -0.246 OA
ATOM     13  O   UNL A   1     -22.310   1.913  27.933  0.00  0.00    -0.246 OA
ENDBRANCH   5  11
BRANCH   7  14
ATOM     14  C   UNL A   1     -28.350   1.305  26.991  0.00  0.00    -0.027 C 
ATOM     15  C   UNL A   1     -29.007   0.824  26.348  0.00  0.00    -0.030 C 
ATOM     16  C   UNL A   1     -30.250   1.208  25.770  0.00  0.00    +0.030 C 
ENDBRANCH   7  14
TORSDOF 2
