REMARK  Name = No_4798-gen_results/8p0m/2024-11-26-14-13-15/
REMARK  3 active torsions:
REMARK  status: ('A' for Active; 'I' for Inactive)
REMARK    1  A    between atoms: C_3  and  C_4
REMARK    2  A    between atoms: C_6  and  C_13
REMARK    3  A    between atoms: N_15  and  C_16
REMARK                            x       y       z     vdW  Elec       q    Type
REMARK                         _______ _______ _______ _____ _____    ______ ____
ROOT
ATOM      1  C   UNL A   1     -28.016  -0.814  28.878  0.00  0.00    +0.005 A 
ATOM      2  C   UNL A   1     -27.064  -0.119  28.608  0.00  0.00    +0.000 A 
ATOM      3  C   UNL A   1     -25.792  -0.430  29.076  0.00  0.00    +0.000 A 
ATOM      4  C   UNL A   1     -27.882  -1.899  29.863  0.00  0.00    +0.055 A 
ATOM      5  C   UNL A   1     -26.671  -2.327  30.321  0.00  0.00    +0.005 A 
ATOM      6  C   UNL A   1     -25.543  -1.585  29.932  0.00  0.00    +0.000 A 
ENDROOT
BRANCH   3   7
ATOM      7  C   UNL A   1     -24.546   0.349  28.823  0.00  0.00    +0.003 A 
ATOM      8  C   UNL A   1     -23.241   0.022  29.332  0.00  0.00    +0.000 A 
ATOM      9  C   UNL A   1     -22.192   0.830  29.000  0.00  0.00    +0.003 A 
ATOM     10  C   UNL A   1     -22.147   1.778  28.029  0.00  0.00    +0.042 A 
ATOM     11  C   UNL A   1     -24.317   1.138  27.617  0.00  0.00    +0.042 A 
ATOM     12  C   UNL A   1     -23.281   1.925  27.347  0.00  0.00    +0.196 A 
ATOM     13  O   UNL A   1     -23.377   2.803  26.309  0.00  0.00    -0.287 OA
ENDBRANCH   3   7
BRANCH   4  14
ATOM     14  C   UNL A   1     -29.071  -2.715  30.301  0.00  0.00    +0.265 C 
ATOM     15  O   UNL A   1     -30.133  -2.321  30.175  0.00  0.00    -0.268 OA
ATOM     16  N   UNL A   1     -28.777  -3.919  30.904  0.00  0.00    -0.200 NA
BRANCH  16  17
ATOM     17  C   UNL A   1     -29.839  -4.830  31.279  0.00  0.00    +0.137 C 
ATOM     18  C   UNL A   1     -29.578  -5.455  32.435  0.00  0.00    +0.221 C 
ATOM     19  C   UNL A   1     -30.383  -6.723  32.470  0.00  0.00    +0.145 C 
ATOM     20  C   UNL A   1     -30.910  -7.110  31.258  0.00  0.00    +0.004 C 
ATOM     21  C   UNL A   1     -29.990  -5.968  30.246  0.00  0.00    +0.053 C 
ATOM     22  O   UNL A   1     -29.820  -4.727  33.597  0.00  0.00    -0.214 OA
ATOM     23  F   UNL A   1     -29.677  -7.840  33.027  0.00  0.00    -0.206 F 
ENDBRANCH  16  17
ENDBRANCH   4  14
TORSDOF 3
