MODEL 4798
MODEL 1
REMARK VINA RESULT:    -7.167      0.000      0.000
REMARK INTER + INTRA:          -9.125
REMARK INTER:                  -8.423
REMARK INTRA:                  -0.702
REMARK UNBOUND:                -0.702
REMARK  Name = No_4798-gen_results/8p0m/2024-11-26-14-13-15/
REMARK  3 active torsions:
REMARK  status: ('A' for Active; 'I' for Inactive)
REMARK    1  A    between atoms: C_3  and  C_4
REMARK    2  A    between atoms: C_6  and  C_13
REMARK    3  A    between atoms: N_15  and  C_16
REMARK                            x       y       z     vdW  Elec       q    Type
REMARK                         _______ _______ _______ _____ _____    ______ ____
ROOT
ATOM      1  C   UNL A   1     -29.311 -12.239  27.365  0.00  0.00    +0.005 A 
ATOM      2  C   UNL A   1     -28.964 -11.669  28.373  0.00  0.00    +0.000 A 
ATOM      3  C   UNL A   1     -29.132 -12.254  29.623  0.00  0.00    +0.000 A 
ATOM      4  C   UNL A   1     -30.092 -13.483  27.453  0.00  0.00    +0.055 A 
ATOM      5  C   UNL A   1     -30.245 -14.171  28.620  0.00  0.00    +0.005 A 
ATOM      6  C   UNL A   1     -29.755 -13.562  29.788  0.00  0.00    +0.000 A 
ENDROOT
BRANCH   3   7
ATOM      7  C   UNL A   1     -28.756 -11.651  30.935  0.00  0.00    +0.003 A 
ATOM      8  C   UNL A   1     -29.473 -10.600  31.605  0.00  0.00    +0.000 A 
ATOM      9  C   UNL A   1     -29.009 -10.162  32.811  0.00  0.00    +0.003 A 
ATOM     10  C   UNL A   1     -28.092 -10.759  33.616  0.00  0.00    +0.042 A 
ATOM     11  C   UNL A   1     -28.040 -12.374  31.980  0.00  0.00    +0.042 A 
ATOM     12  C   UNL A   1     -27.593 -11.896  33.137  0.00  0.00    +0.196 A 
ATOM     13  O   UNL A   1     -26.699 -12.636  33.851  0.00  0.00    -0.287 OA
ENDBRANCH   3   7
BRANCH   4  14
ATOM     14  C   UNL A   1     -30.631 -14.162  26.220  0.00  0.00    +0.265 C 
ATOM     15  O   UNL A   1     -31.315 -15.071  26.300  0.00  0.00    -0.268 OA
ATOM     16  N   UNL A   1     -30.196 -13.646  25.018  0.00  0.00    -0.200 NA
BRANCH  16  17
ATOM     17  C   UNL A   1     -30.722 -14.156  23.768  0.00  0.00    +0.137 C 
ATOM     18  C   UNL A   1     -29.759 -14.674  22.993  0.00  0.00    +0.221 C 
ATOM     19  C   UNL A   1     -30.246 -14.656  21.572  0.00  0.00    +0.145 C 
ATOM     20  C   UNL A   1     -31.348 -13.861  21.346  0.00  0.00    +0.004 C 
ATOM     21  C   UNL A   1     -31.339 -13.024  22.918  0.00  0.00    +0.053 C 
ATOM     22  O   UNL A   1     -29.335 -15.960  23.316  0.00  0.00    -0.214 OA
ATOM     23  F   UNL A   1     -29.235 -14.299  20.620  0.00  0.00    -0.206 F 
ENDBRANCH  16  17
ENDBRANCH   4  14
TORSDOF 3
ENDMDL
ENDMDL
