MODEL 4799
MODEL 1
REMARK VINA RESULT:    -5.126      0.000      0.000
REMARK INTER + INTRA:          -5.980
REMARK INTER:                  -5.725
REMARK INTRA:                  -0.255
REMARK UNBOUND:                -0.255
REMARK  Name = No_4799-gen_results/8p0m/2024-11-26-14-13-15/
REMARK  2 active torsions:
REMARK  status: ('A' for Active; 'I' for Inactive)
REMARK    1  A    between atoms: C_2  and  C_3
REMARK    2  A    between atoms: C_8  and  O_10
REMARK                            x       y       z     vdW  Elec       q    Type
REMARK                         _______ _______ _______ _____ _____    ______ ____
ROOT
ATOM      1  C   UNL A   1     -22.666   0.474  28.160  0.00  0.00    +0.126 A 
ATOM      2  C   UNL A   1     -22.055   1.464  27.331  0.00  0.00    +0.148 A 
ATOM      3  C   UNL A   1     -22.870   2.122  26.334  0.00  0.00    +0.033 A 
ATOM      4  C   UNL A   1     -24.111   1.618  25.987  0.00  0.00    +0.042 A 
ATOM      5  C   UNL A   1     -24.597   0.508  26.666  0.00  0.00    +0.166 A 
ATOM      6  C   UNL A   1     -23.926  -0.069  27.696  0.00  0.00    +0.181 A 
ATOM      7  F   UNL A   1     -21.029   2.083  27.780  0.00  0.00    -0.204 F 
ATOM      8  F   UNL A   1     -24.513  -1.034  28.371  0.00  0.00    -0.201 F 
ENDROOT
BRANCH   1  10
ATOM      9  O   UNL A   1     -21.036  -0.874  28.812  0.00  0.00    -0.254 OA
ATOM     10  C   UNL A   1     -21.926  -0.204  29.108  0.00  0.00    +0.338 C 
ATOM     11  F   UNL A   1     -22.185   0.039  30.448  0.00  0.00    -0.158 F 
ENDBRANCH   1  10
BRANCH   5  12
ATOM     12  O   UNL A   1     -25.794  -0.021  26.251  0.00  0.00    -0.469 OA
ATOM     13  C   UNL A   1     -26.137  -0.103  24.869  0.00  0.00    +0.253 C 
ENDBRANCH   5  12
TORSDOF 2
ENDMDL
ENDMDL
