REMARK  Name = No_4799-gen_results/8p0m/2024-11-26-14-13-15/
REMARK  2 active torsions:
REMARK  status: ('A' for Active; 'I' for Inactive)
REMARK    1  A    between atoms: C_2  and  C_3
REMARK    2  A    between atoms: C_8  and  O_10
REMARK                            x       y       z     vdW  Elec       q    Type
REMARK                         _______ _______ _______ _____ _____    ______ ____
ROOT
ATOM      1  C   UNL A   1     -26.380  -0.087  27.939  0.00  0.00    +0.126 A 
ATOM      2  C   UNL A   1     -26.506   0.776  26.808  0.00  0.00    +0.148 A 
ATOM      3  C   UNL A   1     -25.315   1.099  26.054  0.00  0.00    +0.033 A 
ATOM      4  C   UNL A   1     -24.058   0.829  26.565  0.00  0.00    +0.042 A 
ATOM      5  C   UNL A   1     -23.957   0.174  27.786  0.00  0.00    +0.166 A 
ATOM      6  C   UNL A   1     -25.045  -0.262  28.472  0.00  0.00    +0.181 A 
ATOM      7  F   UNL A   1     -27.636   0.832  26.209  0.00  0.00    -0.204 F 
ATOM      8  F   UNL A   1     -24.860  -0.988  29.554  0.00  0.00    -0.201 F 
ENDROOT
BRANCH   1  10
ATOM      9  O   UNL A   1     -28.123  -1.335  28.487  0.00  0.00    -0.254 OA
ATOM     10  C   UNL A   1     -27.481  -0.404  28.709  0.00  0.00    +0.338 C 
ATOM     11  F   UNL A   1     -27.731   0.345  29.848  0.00  0.00    -0.158 F 
ENDBRANCH   1  10
BRANCH   5  12
ATOM     12  O   UNL A   1     -22.701  -0.012  28.309  0.00  0.00    -0.469 OA
ATOM     13  C   UNL A   1     -22.275   0.665  29.490  0.00  0.00    +0.253 C 
ENDBRANCH   5  12
TORSDOF 2
