MODEL 479
MODEL 1
REMARK VINA RESULT:    -5.926      0.000      0.000
REMARK INTER + INTRA:          -6.961
REMARK INTER:                  -6.619
REMARK INTRA:                  -0.342
REMARK UNBOUND:                -0.342
REMARK  Name = No_479-gen_results/8p0m/2024-11-26-14-13-15/
REMARK  2 active torsions:
REMARK  status: ('A' for Active; 'I' for Inactive)
REMARK    1  A    between atoms: C_3  and  C_7
REMARK    2  A    between atoms: C_6  and  C_12
REMARK                            x       y       z     vdW  Elec       q    Type
REMARK                         _______ _______ _______ _____ _____    ______ ____
ROOT
ATOM      1  C   UNL A   1     -23.889   1.124  29.512  0.00  0.00    +0.015 A 
ATOM      2  C   UNL A   1     -24.425   1.906  29.051  0.00  0.00    +0.058 A 
ATOM      3  C   UNL A   1     -22.921   0.477  28.627  0.00  0.00    +0.072 A 
ATOM      4  C   UNL A   1     -22.664   0.891  27.577  0.00  0.00    +0.008 A 
ATOM      5  C   UNL A   1     -24.323   2.583  27.773  0.00  0.00    +0.015 A 
ATOM      6  C   UNL A   1     -23.337   1.954  26.966  0.00  0.00    +0.072 A 
ATOM      7 CL   UNL A   1     -25.690   2.916  29.988  0.00  0.00    -0.082 Cl
ENDROOT
BRANCH   3   8
ATOM      8  C   UNL A   1     -22.100  -0.672  29.244  0.00  0.00    +0.419 C 
ATOM      9  F   UNL A   1     -21.965  -0.545  30.454  0.00  0.00    -0.166 F 
ATOM     10  F   UNL A   1     -22.676  -1.893  28.984  0.00  0.00    -0.166 F 
ATOM     11  F   UNL A   1     -20.815  -0.733  28.723  0.00  0.00    -0.166 F 
ENDBRANCH   3   8
BRANCH   6  12
ATOM     12  C   UNL A   1     -23.069   2.393  25.577  0.00  0.00    +0.419 C 
ATOM     13  F   UNL A   1     -23.432   3.418  25.273  0.00  0.00    -0.166 F 
ATOM     14  F   UNL A   1     -23.642   1.490  24.768  0.00  0.00    -0.166 F 
ATOM     15  F   UNL A   1     -21.707   2.227  25.392  0.00  0.00    -0.166 F 
ENDBRANCH   6  12
TORSDOF 2
ENDMDL
ENDMDL
