MODEL 47
MODEL 1
REMARK VINA RESULT:    -5.178      0.000      0.000
REMARK INTER + INTRA:          -5.591
REMARK INTER:                  -5.480
REMARK INTRA:                  -0.111
REMARK UNBOUND:                -0.111
REMARK  Name = No_47-gen_results/8p0m/2024-11-26-14-13-15/
REMARK  1 active torsions:
REMARK  status: ('A' for Active; 'I' for Inactive)
REMARK    1  A    between atoms: C_2  and  N_7
REMARK                            x       y       z     vdW  Elec       q    Type
REMARK                         _______ _______ _______ _____ _____    ______ ____
ROOT
ATOM      1  C   UNL A   1     -25.258  -2.598  29.571  0.00  0.00    +0.019 A 
ATOM      2  C   UNL A   1     -24.186  -2.943  29.132  0.00  0.00    +0.081 A 
ATOM      3  C   UNL A   1     -23.943  -4.269  28.791  0.00  0.00    +0.019 A 
ATOM      4  C   UNL A   1     -24.947  -5.282  28.994  0.00  0.00    +0.002 A 
ATOM      5  C   UNL A   1     -26.148  -4.799  29.529  0.00  0.00    +0.000 A 
ATOM      6  C   UNL A   1     -26.321  -3.538  29.850  0.00  0.00    +0.002 A 
ENDROOT
BRANCH   2   7
ATOM      7  N   UNL A   1     -23.096  -2.097  28.908  0.00  0.00    -0.248 NA
ATOM      8  C   UNL A   1     -22.724  -1.248  29.327  0.00  0.00    +0.073 C 
ATOM      9  C   UNL A   1     -21.573  -0.398  28.818  0.00  0.00    +0.053 C 
ENDBRANCH   2   7
TORSDOF 1
ENDMDL
ENDMDL
