REMARK  Name = No_480-gen_results/8p0m/2024-11-26-14-13-15/
REMARK  3 active torsions:
REMARK  status: ('A' for Active; 'I' for Inactive)
REMARK    1  A    between atoms: C_3  and  C_7
REMARK    2  A    between atoms: C_8  and  C_9
REMARK    3  A    between atoms: C_10  and  C_11
REMARK                            x       y       z     vdW  Elec       q    Type
REMARK                         _______ _______ _______ _____ _____    ______ ____
ROOT
ATOM      1  C   UNL A   1     -28.016  -0.814  28.878  0.00  0.00    +0.008 A 
ATOM      2  C   UNL A   1     -28.469  -0.785  29.829  0.00  0.00    +0.001 A 
ATOM      3  C   UNL A   1     -27.087   0.290  28.638  0.00  0.00    +0.042 A 
ATOM      4  C   UNL A   1     -26.832   1.249  29.587  0.00  0.00    +0.008 A 
ATOM      5  C   UNL A   1     -28.329  -0.040  30.836  0.00  0.00    +0.000 A 
ATOM      6  C   UNL A   1     -27.494   1.062  30.793  0.00  0.00    +0.001 A 
ENDROOT
BRANCH   3   7
ATOM      7  C   UNL A   1     -26.327   0.437  27.345  0.00  0.00    -0.060 C 
ATOM      8  C   UNL A   1     -25.430   0.826  26.903  0.00  0.00    -0.059 C 
BRANCH   8   9
ATOM      9  C   UNL A   1     -24.299   1.335  27.713  0.00  0.00    +0.050 C 
ATOM     10  C   UNL A   1     -23.479   2.055  27.581  0.00  0.00    +0.009 C 
BRANCH  10  11
ATOM     11  C   UNL A   1     -23.208   2.366  26.138  0.00  0.00    +0.001 C 
ATOM     12  C   UNL A   1     -24.105   1.935  25.198  0.00  0.00    +0.000 C 
ENDBRANCH  10  11
ENDBRANCH   8   9
ENDBRANCH   3   7
TORSDOF 3
