REMARK  Name = No_4800-gen_results/8p0m/2024-11-26-14-13-15/
REMARK  5 active torsions:
REMARK  status: ('A' for Active; 'I' for Inactive)
REMARK    1  A    between atoms: C_5  and  O_14
REMARK    2  A    between atoms: C_9  and  C_10
REMARK    3  A    between atoms: C_11  and  C_16
REMARK    4  A    between atoms: O_14  and  C_15
REMARK    5  A    between atoms: C_16  and  C_17
REMARK                            x       y       z     vdW  Elec       q    Type
REMARK                         _______ _______ _______ _____ _____    ______ ____
ROOT
ATOM      1  C   UNL A   1     -28.016  -0.814  28.878  0.00  0.00    +0.057 A 
ATOM      2  C   UNL A   1     -27.064  -0.119  28.608  0.00  0.00    +0.084 A 
ATOM      3  C   UNL A   1     -26.929   1.171  29.008  0.00  0.00    +0.015 A 
ATOM      4  C   UNL A   1     -27.956   1.741  29.784  0.00  0.00    +0.004 A 
ATOM      5  C   UNL A   1     -29.057  -0.327  29.747  0.00  0.00    +0.147 A 
ATOM      6  C   UNL A   1     -28.983   0.972  30.152  0.00  0.00    +0.038 A 
ATOM      7  N   UNL A   1     -25.974  -0.594  27.838  0.00  0.00    -0.243 NA
ATOM      8  C   UNL A   1     -24.643  -0.105  28.001  0.00  0.00    +0.105 A 
ATOM      9  C   UNL A   1     -24.509   1.206  27.929  0.00  0.00    +0.096 A 
ATOM     10  C   UNL A   1     -25.677   2.034  28.564  0.00  0.00    -0.002 A 
ENDROOT
BRANCH   9  11
ATOM     11  C   UNL A   1     -23.233   1.865  27.884  0.00  0.00    +0.389 C 
ATOM     12  O   UNL A   1     -23.007   2.808  27.168  0.00  0.00    -0.240 OA
ATOM     13  O   UNL A   1     -22.185   1.341  28.562  0.00  0.00    -0.240 OA
ENDBRANCH   9  11
BRANCH   5  14
ATOM     14  O   UNL A   1     -30.069  -1.169  30.080  0.00  0.00    -0.452 OA
BRANCH  14  15
ATOM     15  C   UNL A   1     -29.873  -2.311  30.750  0.00  0.00    +0.165 A 
ATOM     16  C   UNL A   1     -28.821  -2.572  31.357  0.00  0.00    +0.136 A 
ATOM     17  C   UNL A   1     -30.970  -3.301  30.609  0.00  0.00    +0.052 A 
ATOM     18  N   UNL A   1     -28.676  -3.925  31.849  0.00  0.00    -0.238 NA
ATOM     19  C   UNL A   1     -30.782  -4.584  31.129  0.00  0.00    +0.080 A 
ATOM     20  C   UNL A   1     -29.568  -4.855  31.810  0.00  0.00    +0.110 A 
ATOM     21 CL   UNL A   1     -31.996  -5.761  31.022  0.00  0.00    -0.081 Cl
ENDBRANCH  14  15
ENDBRANCH   5  14
BRANCH  10  22
ATOM     22  C   UNL A   1     -25.490   3.365  28.969  0.00  0.00    +0.141 C 
BRANCH  22  23
ATOM     23  C   UNL A   1     -26.173   4.319  28.222  0.00  0.00    +0.369 C 
ATOM     24  O   UNL A   1     -27.186   4.628  28.535  0.00  0.00    -0.245 OA
ATOM     25  O   UNL A   1     -25.469   4.879  27.234  0.00  0.00    -0.245 OA
ENDBRANCH  22  23
ENDBRANCH  10  22
TORSDOF 5
