MODEL 4800
MODEL 1
REMARK VINA RESULT:    -6.361      0.000      0.000
REMARK INTER + INTRA:          -8.879
REMARK INTER:                  -8.221
REMARK INTRA:                  -0.658
REMARK UNBOUND:                -0.658
REMARK  Name = No_4800-gen_results/8p0m/2024-11-26-14-13-15/
REMARK  5 active torsions:
REMARK  status: ('A' for Active; 'I' for Inactive)
REMARK    1  A    between atoms: C_5  and  O_14
REMARK    2  A    between atoms: C_9  and  C_10
REMARK    3  A    between atoms: C_11  and  C_16
REMARK    4  A    between atoms: O_14  and  C_15
REMARK    5  A    between atoms: C_16  and  C_17
REMARK                            x       y       z     vdW  Elec       q    Type
REMARK                         _______ _______ _______ _____ _____    ______ ____
ROOT
ATOM      1  C   UNL A   1      -9.374   3.634   8.268  0.00  0.00    +0.057 A 
ATOM      2  C   UNL A   1      -8.708   2.743   8.741  0.00  0.00    +0.084 A 
ATOM      3  C   UNL A   1      -8.851   2.281  10.010  0.00  0.00    +0.015 A 
ATOM      4  C   UNL A   1      -9.832   2.871  10.829  0.00  0.00    +0.004 A 
ATOM      5  C   UNL A   1     -10.459   4.216   9.016  0.00  0.00    +0.147 A 
ATOM      6  C   UNL A   1     -10.625   3.808  10.306  0.00  0.00    +0.038 A 
ATOM      7  N   UNL A   1      -7.698   2.078   8.003  0.00  0.00    -0.243 NA
ATOM      8  C   UNL A   1      -7.340   0.716   8.239  0.00  0.00    +0.105 A 
ATOM      9  C   UNL A   1      -7.040   0.418   9.489  0.00  0.00    +0.096 A 
ATOM     10  C   UNL A   1      -7.899   1.148  10.576  0.00  0.00    -0.002 A 
ENDROOT
BRANCH   9  11
ATOM     11  C   UNL A   1      -6.482  -0.846   9.883  0.00  0.00    +0.389 C 
ATOM     12  O   UNL A   1      -5.296  -1.031  10.001  0.00  0.00    -0.240 OA
ATOM     13  O   UNL A   1      -7.289  -1.926  10.002  0.00  0.00    -0.240 OA
ENDBRANCH   9  11
BRANCH   5  14
ATOM     14  O   UNL A   1     -11.225   5.163   8.415  0.00  0.00    -0.452 OA
BRANCH  14  15
ATOM     15  C   UNL A   1     -10.820   6.429   8.253  0.00  0.00    +0.165 A 
ATOM     16  C   UNL A   1     -10.888   7.031   7.168  0.00  0.00    +0.136 A 
ATOM     17  C   UNL A   1     -10.167   7.022   9.446  0.00  0.00    +0.052 A 
ATOM     18  N   UNL A   1     -10.219   8.311   7.095  0.00  0.00    -0.238 NA
ATOM     19  C   UNL A   1      -9.561   8.275   9.321  0.00  0.00    +0.080 A 
ATOM     20  C   UNL A   1      -9.648   8.935   8.069  0.00  0.00    +0.110 A 
ATOM     21 CL   UNL A   1      -8.812   9.023  10.644  0.00  0.00    -0.081 Cl
ENDBRANCH  14  15
ENDBRANCH   5  14
BRANCH  10  22
ATOM     22  C   UNL A   1      -8.023   0.630  11.875  0.00  0.00    +0.141 C 
BRANCH  22  23
ATOM     23  C   UNL A   1      -7.181   1.194  12.827  0.00  0.00    +0.369 C 
ATOM     24  O   UNL A   1      -7.542   2.042  13.435  0.00  0.00    -0.245 OA
ATOM     25  O   UNL A   1      -6.019   0.559  13.006  0.00  0.00    -0.245 OA
ENDBRANCH  22  23
ENDBRANCH  10  22
TORSDOF 5
ENDMDL
ENDMDL
