MODEL 4801
MODEL 1
REMARK VINA RESULT:    -6.961      0.000      0.000
REMARK INTER + INTRA:          -8.839
REMARK INTER:                  -8.182
REMARK INTRA:                  -0.657
REMARK UNBOUND:                -0.657
REMARK  Name = No_4801-gen_results/8p0m/2024-11-26-14-13-15/
REMARK  3 active torsions:
REMARK  status: ('A' for Active; 'I' for Inactive)
REMARK    1  A    between atoms: C_2  and  C_14
REMARK    2  A    between atoms: C_3  and  C_4
REMARK    3  A    between atoms: C_4  and  C_8
REMARK                            x       y       z     vdW  Elec       q    Type
REMARK                         _______ _______ _______ _____ _____    ______ ____
ROOT
ATOM      1  C   UNL A   1     -24.535  -0.227  27.444  0.00  0.00    +0.002 A 
ATOM      2  C   UNL A   1     -24.272   0.484  26.712  0.00  0.00    +0.068 A 
ATOM      3  C   UNL A   1     -23.566  -0.359  28.598  0.00  0.00    -0.018 A 
ATOM      4  C   UNL A   1     -23.253   1.541  26.694  0.00  0.00    +0.005 A 
ATOM      5  C   UNL A   1     -22.347   1.504  27.731  0.00  0.00    -0.000 A 
ATOM      6  C   UNL A   1     -22.482   0.581  28.736  0.00  0.00    -0.004 A 
ENDROOT
BRANCH   2   7
ATOM      7  C   UNL A   1     -25.183   0.786  25.447  0.00  0.00    +0.333 C 
ATOM      8  O   UNL A   1     -25.883   1.691  25.556  0.00  0.00    -0.254 OA
ATOM      9  F   UNL A   1     -25.115   0.155  24.344  0.00  0.00    -0.159 F 
ENDBRANCH   2   7
BRANCH   3  10
ATOM     10  C   UNL A   1     -23.615  -1.350  29.644  0.00  0.00    +0.053 C 
BRANCH  10  11
ATOM     11  C   UNL A   1     -24.525  -2.458  29.417  0.00  0.00    -0.018 A 
ATOM     12  C   UNL A   1     -23.860  -3.571  28.931  0.00  0.00    -0.004 A 
ATOM     13  C   UNL A   1     -24.610  -4.832  28.912  0.00  0.00    -0.000 A 
ATOM     14  C   UNL A   1     -25.889  -4.877  29.356  0.00  0.00    -0.000 A 
ATOM     15  C   UNL A   1     -25.778  -2.538  30.002  0.00  0.00    -0.004 A 
ATOM     16  C   UNL A   1     -26.451  -3.733  29.960  0.00  0.00    -0.000 A 
ENDBRANCH  10  11
ENDBRANCH   3  10
TORSDOF 3
ENDMDL
ENDMDL
