REMARK  Name = No_4801-gen_results/8p0m/2024-11-26-14-13-15/
REMARK  3 active torsions:
REMARK  status: ('A' for Active; 'I' for Inactive)
REMARK    1  A    between atoms: C_2  and  C_14
REMARK    2  A    between atoms: C_3  and  C_4
REMARK    3  A    between atoms: C_4  and  C_8
REMARK                            x       y       z     vdW  Elec       q    Type
REMARK                         _______ _______ _______ _____ _____    ______ ____
ROOT
ATOM      1  C   UNL A   1     -28.016  -0.814  28.878  0.00  0.00    +0.002 A 
ATOM      2  C   UNL A   1     -28.469  -0.785  29.829  0.00  0.00    +0.068 A 
ATOM      3  C   UNL A   1     -26.504  -0.778  28.877  0.00  0.00    -0.018 A 
ATOM      4  C   UNL A   1     -27.918  -0.937  31.182  0.00  0.00    +0.005 A 
ATOM      5  C   UNL A   1     -26.542  -0.940  31.261  0.00  0.00    -0.000 A 
ATOM      6  C   UNL A   1     -25.783  -0.893  30.120  0.00  0.00    -0.004 A 
ENDROOT
BRANCH   2   7
ATOM      7  C   UNL A   1     -30.043  -0.849  30.030  0.00  0.00    +0.333 C 
ATOM      8  O   UNL A   1     -30.653  -0.200  29.303  0.00  0.00    -0.254 OA
ATOM      9  F   UNL A   1     -30.632  -1.612  30.860  0.00  0.00    -0.159 F 
ENDBRANCH   2   7
BRANCH   3  10
ATOM     10  C   UNL A   1     -25.654  -0.660  27.719  0.00  0.00    +0.053 C 
BRANCH  10  11
ATOM     11  C   UNL A   1     -25.220   0.687  27.394  0.00  0.00    -0.018 A 
ATOM     12  C   UNL A   1     -23.901   0.898  27.760  0.00  0.00    -0.004 A 
ATOM     13  C   UNL A   1     -23.262   2.117  27.251  0.00  0.00    -0.000 A 
ATOM     14  C   UNL A   1     -23.951   2.975  26.462  0.00  0.00    -0.000 A 
ATOM     15  C   UNL A   1     -25.872   1.489  26.473  0.00  0.00    -0.004 A 
ATOM     16  C   UNL A   1     -25.245   2.624  26.024  0.00  0.00    -0.000 A 
ENDBRANCH  10  11
ENDBRANCH   3  10
TORSDOF 3
