REMARK  Name = No_4802-gen_results/8p0m/2024-11-26-14-13-15/
REMARK  3 active torsions:
REMARK  status: ('A' for Active; 'I' for Inactive)
REMARK    1  A    between atoms: C_1  and  C_2
REMARK    2  A    between atoms: C_1  and  C_8
REMARK    3  A    between atoms: C_7  and  C_16
REMARK                            x       y       z     vdW  Elec       q    Type
REMARK                         _______ _______ _______ _____ _____    ______ ____
ROOT
ATOM      1  C   UNL A   1     -27.064  -0.119  28.608  0.00  0.00    -0.011 A 
ATOM      2  C   UNL A   1     -25.792  -0.430  29.076  0.00  0.00    -0.008 A 
ATOM      3  C   UNL A   1     -24.546   0.349  28.823  0.00  0.00    -0.016 A 
ATOM      4  C   UNL A   1     -24.659   1.420  27.888  0.00  0.00    +0.051 A 
ATOM      5  C   UNL A   1     -25.947   1.681  27.379  0.00  0.00    +0.004 A 
ATOM      6  C   UNL A   1     -27.044   0.974  27.687  0.00  0.00    -0.003 A 
ATOM      7  C   UNL A   1     -23.448   2.144  27.588  0.00  0.00    +0.265 C 
ATOM      8  N   UNL A   1     -22.263   1.746  28.091  0.00  0.00    -0.201 NA
ATOM      9  O   UNL A   1     -23.488   3.011  26.663  0.00  0.00    -0.268 OA
ATOM     10  C   UNL A   1     -22.028   0.818  29.007  0.00  0.00    +0.120 C 
ATOM     11  C   UNL A   1     -23.182  -0.036  29.385  0.00  0.00    +0.050 C 
ENDROOT
BRANCH   6  12
ATOM     12  C   UNL A   1     -28.331   1.352  27.044  0.00  0.00    -0.000 A 
ATOM     13  C   UNL A   1     -28.265   1.928  25.806  0.00  0.00    -0.000 A 
ATOM     14  C   UNL A   1     -29.550   1.167  27.645  0.00  0.00    -0.000 A 
ATOM     15  C   UNL A   1     -30.737   1.513  26.917  0.00  0.00    -0.000 A 
ATOM     16  C   UNL A   1     -29.410   2.277  25.080  0.00  0.00    -0.000 A 
ATOM     17  C   UNL A   1     -30.631   2.118  25.676  0.00  0.00    -0.000 A 
ENDBRANCH   6  12
BRANCH   1  18
ATOM     18  C   UNL A   1     -28.016  -0.814  28.878  0.00  0.00    +0.140 C 
BRANCH  18  19
ATOM     19  C   UNL A   1     -28.660  -0.460  30.201  0.00  0.00    +0.369 C 
ATOM     20  O   UNL A   1     -29.639  -1.252  30.645  0.00  0.00    -0.245 OA
ATOM     21  O   UNL A   1     -28.478   0.577  30.828  0.00  0.00    -0.245 OA
ENDBRANCH  18  19
ENDBRANCH   1  18
TORSDOF 3
