MODEL 4802
MODEL 1
REMARK VINA RESULT:    -7.436      0.000      0.000
REMARK INTER + INTRA:          -9.459
REMARK INTER:                  -8.741
REMARK INTRA:                  -0.718
REMARK UNBOUND:                -0.718
REMARK  Name = No_4802-gen_results/8p0m/2024-11-26-14-13-15/
REMARK  3 active torsions:
REMARK  status: ('A' for Active; 'I' for Inactive)
REMARK    1  A    between atoms: C_1  and  C_2
REMARK    2  A    between atoms: C_1  and  C_8
REMARK    3  A    between atoms: C_7  and  C_16
REMARK                            x       y       z     vdW  Elec       q    Type
REMARK                         _______ _______ _______ _____ _____    ______ ____
ROOT
ATOM      1  C   UNL A   1     -23.305  -0.870  29.227  0.00  0.00    -0.011 A 
ATOM      2  C   UNL A   1     -22.860   0.338  28.702  0.00  0.00    -0.008 A 
ATOM      3  C   UNL A   1     -23.470   1.080  27.561  0.00  0.00    -0.016 A 
ATOM      4  C   UNL A   1     -24.508   0.399  26.858  0.00  0.00    +0.051 A 
ATOM      5  C   UNL A   1     -24.904  -0.852  27.372  0.00  0.00    +0.004 A 
ATOM      6  C   UNL A   1     -24.349  -1.446  28.439  0.00  0.00    -0.003 A 
ATOM      7  C   UNL A   1     -25.065   1.080  25.715  0.00  0.00    +0.265 C 
ATOM      8  N   UNL A   1     -24.546   2.247  25.285  0.00  0.00    -0.201 NA
ATOM      9  O   UNL A   1     -25.893   0.447  24.992  0.00  0.00    -0.268 OA
ATOM     10  C   UNL A   1     -23.634   3.007  25.872  0.00  0.00    +0.120 C 
ATOM     11  C   UNL A   1     -22.944   2.415  27.045  0.00  0.00    +0.050 C 
ENDROOT
BRANCH   6  12
ATOM     12  C   UNL A   1     -24.856  -2.784  28.844  0.00  0.00    -0.000 A 
ATOM     13  C   UNL A   1     -26.043  -2.824  29.519  0.00  0.00    -0.000 A 
ATOM     14  C   UNL A   1     -24.178  -3.949  28.589  0.00  0.00    -0.000 A 
ATOM     15  C   UNL A   1     -24.779  -5.194  28.971  0.00  0.00    -0.000 A 
ATOM     16  C   UNL A   1     -26.646  -4.028  29.905  0.00  0.00    -0.000 A 
ATOM     17  C   UNL A   1     -25.971  -5.195  29.676  0.00  0.00    -0.000 A 
ENDBRANCH   6  12
BRANCH   1  18
ATOM     18  C   UNL A   1     -22.743  -1.388  30.164  0.00  0.00    +0.140 C 
BRANCH  18  19
ATOM     19  C   UNL A   1     -23.194  -0.850  31.505  0.00  0.00    +0.369 C 
ATOM     20  O   UNL A   1     -22.416  -1.092  32.563  0.00  0.00    -0.245 OA
ATOM     21  O   UNL A   1     -24.287  -0.350  31.742  0.00  0.00    -0.245 OA
ENDBRANCH  18  19
ENDBRANCH   1  18
TORSDOF 3
ENDMDL
ENDMDL
