MODEL 4803
MODEL 1
REMARK VINA RESULT:    -6.950      0.000      0.000
REMARK INTER + INTRA:          -7.629
REMARK INTER:                  -7.356
REMARK INTRA:                  -0.273
REMARK UNBOUND:                -0.273
REMARK  Name = No_4803-gen_results/8p0m/2024-11-26-14-13-15/
REMARK  1 active torsions:
REMARK  status: ('A' for Active; 'I' for Inactive)
REMARK    1  A    between atoms: C_3  and  C_4
REMARK                            x       y       z     vdW  Elec       q    Type
REMARK                         _______ _______ _______ _____ _____    ______ ____
ROOT
ATOM      1  C   UNL A   1     -23.645   0.634  27.503  0.00  0.00    +0.068 A 
ATOM      2  C   UNL A   1     -24.339  -0.314  27.788  0.00  0.00    +0.012 A 
ATOM      3  C   UNL A   1     -23.904  -1.277  28.691  0.00  0.00    +0.001 A 
ATOM      4  C   UNL A   1     -22.238   0.703  27.943  0.00  0.00    +0.068 A 
ATOM      5  C   UNL A   1     -21.761  -0.160  28.891  0.00  0.00    +0.012 A 
ATOM      6  C   UNL A   1     -22.569  -1.263  29.300  0.00  0.00    +0.001 A 
ATOM      7 CL   UNL A   1     -21.212   1.987  27.478  0.00  0.00    -0.081 Cl
ATOM      8 CL   UNL A   1     -24.124   1.799  26.329  0.00  0.00    -0.081 Cl
ENDROOT
BRANCH   3   9
ATOM      9  C   UNL A   1     -24.658  -2.492  29.115  0.00  0.00    +0.000 A 
ATOM     10  C   UNL A   1     -26.010  -2.504  29.605  0.00  0.00    +0.000 A 
ATOM     11  C   UNL A   1     -26.646  -3.678  29.925  0.00  0.00    +0.000 A 
ATOM     12  C   UNL A   1     -26.155  -4.928  29.615  0.00  0.00    +0.000 A 
ATOM     13  C   UNL A   1     -24.124  -3.816  28.798  0.00  0.00    +0.000 A 
ATOM     14  C   UNL A   1     -24.888  -4.976  29.080  0.00  0.00    +0.000 A 
ENDBRANCH   3   9
TORSDOF 1
ENDMDL
ENDMDL
