MODEL 4804
MODEL 1
REMARK VINA RESULT:    -4.958      0.000      0.000
REMARK INTER + INTRA:          -5.285
REMARK INTER:                  -5.248
REMARK INTRA:                  -0.037
REMARK UNBOUND:                -0.037
REMARK  Name = No_4804-gen_results/8p0m/2024-11-26-14-13-15/
REMARK  1 active torsions:
REMARK  status: ('A' for Active; 'I' for Inactive)
REMARK    1  A    between atoms: C_2  and  C_7
REMARK                            x       y       z     vdW  Elec       q    Type
REMARK                         _______ _______ _______ _____ _____    ______ ____
ROOT
ATOM      1  C   UNL A   1     -28.909 -10.449  32.790  0.00  0.00    +0.007 A 
ATOM      2  C   UNL A   1     -28.176 -11.177  32.585  0.00  0.00    +0.080 A 
ATOM      3  C   UNL A   1     -29.779 -10.055  31.617  0.00  0.00    +0.000 A 
ATOM      4  C   UNL A   1     -29.662 -10.762  30.402  0.00  0.00    +0.000 A 
ATOM      5  C   UNL A   1     -27.871 -12.074  31.447  0.00  0.00    +0.007 A 
ATOM      6  C   UNL A   1     -28.656 -11.745  30.351  0.00  0.00    +0.000 A 
ENDROOT
BRANCH   2   7
ATOM      7  C   UNL A   1     -27.246 -11.625  33.816  0.00  0.00    +0.388 C 
ATOM      8  O   UNL A   1     -27.087 -10.795  34.783  0.00  0.00    -0.241 OA
ATOM      9  O   UNL A   1     -26.801 -12.787  33.785  0.00  0.00    -0.241 OA
ENDBRANCH   2   7
TORSDOF 1
ENDMDL
ENDMDL
