REMARK  Name = No_4805-gen_results/8p0m/2024-11-26-14-13-15/
REMARK  4 active torsions:
REMARK  status: ('A' for Active; 'I' for Inactive)
REMARK    1  A    between atoms: C_2  and  N_7
REMARK    2  A    between atoms: N_7  and  C_8
REMARK    3  A    between atoms: N_7  and  C_9
REMARK    4  A    between atoms: C_9  and  C_10
REMARK                            x       y       z     vdW  Elec       q    Type
REMARK                         _______ _______ _______ _____ _____    ______ ____
ROOT
ATOM      1  N   UNL A   1     -25.966  -0.592  27.845  0.00  0.00    -0.282 N 
ENDROOT
BRANCH   1   3
ATOM      2  C   UNL A   1     -28.016  -0.814  28.878  0.00  0.00    +0.015 A 
ATOM      3  C   UNL A   1     -27.064  -0.119  28.608  0.00  0.00    +0.052 A 
ATOM      4  C   UNL A   1     -26.929   1.171  29.008  0.00  0.00    +0.015 A 
ATOM      5  C   UNL A   1     -27.956   1.741  29.784  0.00  0.00    +0.001 A 
ATOM      6  C   UNL A   1     -29.057  -0.327  29.747  0.00  0.00    +0.001 A 
ATOM      7  C   UNL A   1     -28.983   0.972  30.152  0.00  0.00    +0.000 A 
ENDBRANCH   1   3
BRANCH   1   8
ATOM      8  C   UNL A   1     -25.329   0.081  26.867  0.00  0.00    +0.061 C 
ATOM      9  C   UNL A   1     -24.593   1.238  27.097  0.00  0.00    -0.010 C 
ATOM     10  C   UNL A   1     -23.981   1.967  26.023  0.00  0.00    +0.032 C 
ENDBRANCH   1   8
BRANCH   1  11
ATOM     11  C   UNL A   1     -25.177  -1.728  28.292  0.00  0.00    +0.122 C 
BRANCH  11  12
ATOM     12  C   UNL A   1     -24.494  -1.640  29.553  0.00  0.00    -0.002 A 
ATOM     13  C   UNL A   1     -23.553  -0.809  29.668  0.00  0.00    -0.003 A 
ATOM     14  C   UNL A   1     -22.803  -0.651  30.910  0.00  0.00    -0.000 A 
ATOM     15  C   UNL A   1     -23.405  -1.271  32.023  0.00  0.00    -0.000 A 
ATOM     16  C   UNL A   1     -24.604  -1.904  31.958  0.00  0.00    -0.000 A 
ATOM     17  C   UNL A   1     -25.148  -2.148  30.675  0.00  0.00    -0.003 A 
ENDBRANCH  11  12
ENDBRANCH   1  11
TORSDOF 4
