REMARK  Name = No_4806-gen_results/8p0m/2024-11-26-14-13-15/
REMARK  0 active torsions:
REMARK  status: ('A' for Active; 'I' for Inactive)
REMARK                            x       y       z     vdW  Elec       q    Type
REMARK                         _______ _______ _______ _____ _____    ______ ____
ROOT
ATOM      1  P   UNL A   1     -27.951  -0.579  29.040  0.00  0.00    +0.559 P 
ATOM      2  O   UNL A   1     -27.240   0.061  28.428  0.00  0.00    -0.220 OA
ATOM      3  O   UNL A   1     -27.282  -1.968  29.279  0.00  0.00    -0.113 OA
ATOM      4  O   UNL A   1     -28.139  -0.044  30.544  0.00  0.00    -0.113 OA
ATOM      5  O   UNL A   1     -29.402  -0.839  28.631  0.00  0.00    -0.113 OA
ENDROOT
TORSDOF 0
