MODEL 4807
MODEL 1
REMARK VINA RESULT:    -6.161      0.000      0.000
REMARK INTER + INTRA:          -7.480
REMARK INTER:                  -7.241
REMARK INTRA:                  -0.239
REMARK UNBOUND:                -0.239
REMARK  Name = No_4807-gen_results/8p0m/2024-11-26-14-13-15/
REMARK  3 active torsions:
REMARK  status: ('A' for Active; 'I' for Inactive)
REMARK    1  A    between atoms: C_2  and  C_14
REMARK    2  A    between atoms: C_9  and  C_10
REMARK    3  A    between atoms: C_11  and  C_17
REMARK                            x       y       z     vdW  Elec       q    Type
REMARK                         _______ _______ _______ _____ _____    ______ ____
ROOT
ATOM      1  C   UNL A   1     -10.317   3.822  10.302  0.00  0.00    +0.007 A 
ATOM      2  C   UNL A   1     -10.212   4.235   9.338  0.00  0.00    +0.080 A 
ATOM      3  C   UNL A   1      -9.342   2.718  10.646  0.00  0.00    +0.000 A 
ATOM      4  C   UNL A   1      -9.366   1.897  11.831  0.00  0.00    +0.000 A 
ATOM      5  C   UNL A   1      -9.157   4.102   8.325  0.00  0.00    +0.007 A 
ATOM      6  C   UNL A   1      -8.212   3.131   8.581  0.00  0.00    +0.000 A 
ATOM      7  C   UNL A   1      -8.246   2.426   9.757  0.00  0.00    +0.007 A 
ATOM      8  C   UNL A   1      -8.639   0.705  11.889  0.00  0.00    +0.007 A 
ATOM      9  C   UNL A   1      -8.118   0.224  10.950  0.00  0.00    +0.086 A 
ATOM     10  C   UNL A   1      -7.691   1.077   9.663  0.00  0.00    +0.086 A 
ENDROOT
BRANCH   9  11
ATOM     11  C   UNL A   1      -7.368  -1.094  10.945  0.00  0.00    +0.388 C 
ATOM     12  O   UNL A   1      -7.625  -2.040  10.304  0.00  0.00    -0.240 OA
ATOM     13  O   UNL A   1      -6.226  -1.002  11.702  0.00  0.00    -0.240 OA
ENDBRANCH   9  11
BRANCH   2  14
ATOM     14  C   UNL A   1     -11.127   5.513   9.012  0.00  0.00    +0.388 C 
ATOM     15  O   UNL A   1     -11.422   6.284   9.990  0.00  0.00    -0.241 OA
ATOM     16  O   UNL A   1     -11.388   5.805   7.870  0.00  0.00    -0.241 OA
ENDBRANCH   2  14
BRANCH  10  17
ATOM     17  C   UNL A   1      -6.745   0.622   8.715  0.00  0.00    +0.388 C 
ATOM     18  O   UNL A   1      -7.136   0.013   7.711  0.00  0.00    -0.240 OA
ATOM     19  O   UNL A   1      -5.508   1.022   8.852  0.00  0.00    -0.240 OA
ENDBRANCH  10  17
TORSDOF 3
ENDMDL
ENDMDL
