REMARK  Name = No_4807-gen_results/8p0m/2024-11-26-14-13-15/
REMARK  3 active torsions:
REMARK  status: ('A' for Active; 'I' for Inactive)
REMARK    1  A    between atoms: C_2  and  C_14
REMARK    2  A    between atoms: C_9  and  C_10
REMARK    3  A    between atoms: C_11  and  C_17
REMARK                            x       y       z     vdW  Elec       q    Type
REMARK                         _______ _______ _______ _____ _____    ______ ____
ROOT
ATOM      1  C   UNL A   1     -28.016  -0.814  28.878  0.00  0.00    +0.007 A 
ATOM      2  C   UNL A   1     -28.469  -0.785  29.829  0.00  0.00    +0.080 A 
ATOM      3  C   UNL A   1     -26.504  -0.778  28.877  0.00  0.00    +0.000 A 
ATOM      4  C   UNL A   1     -25.654  -0.660  27.719  0.00  0.00    +0.000 A 
ATOM      5  C   UNL A   1     -27.918  -0.937  31.182  0.00  0.00    +0.007 A 
ATOM      6  C   UNL A   1     -26.542  -0.940  31.261  0.00  0.00    +0.000 A 
ATOM      7  C   UNL A   1     -25.783  -0.893  30.120  0.00  0.00    +0.007 A 
ATOM      8  C   UNL A   1     -24.310  -0.301  27.853  0.00  0.00    +0.007 A 
ATOM      9  C   UNL A   1     -23.845   0.083  28.863  0.00  0.00    +0.086 A 
ATOM     10  C   UNL A   1     -24.476  -0.261  30.294  0.00  0.00    +0.086 A 
ENDROOT
BRANCH   9  11
ATOM     11  C   UNL A   1     -22.411   0.541  29.048  0.00  0.00    +0.388 C 
ATOM     12  O   UNL A   1     -21.539  -0.075  29.528  0.00  0.00    -0.240 OA
ATOM     13  O   UNL A   1     -22.210   1.754  28.436  0.00  0.00    -0.240 OA
ENDBRANCH   9  11
BRANCH   2  14
ATOM     14  C   UNL A   1     -30.062  -0.985  29.860  0.00  0.00    +0.388 C 
ATOM     15  O   UNL A   1     -30.736  -0.185  30.596  0.00  0.00    -0.241 OA
ATOM     16  O   UNL A   1     -30.597  -1.757  29.101  0.00  0.00    -0.241 OA
ENDBRANCH   2  14
BRANCH  10  17
ATOM     17  C   UNL A   1     -23.752  -0.149  31.504  0.00  0.00    +0.388 C 
ATOM     18  O   UNL A   1     -23.693   0.945  32.078  0.00  0.00    -0.240 OA
ATOM     19  O   UNL A   1     -23.324  -1.253  32.059  0.00  0.00    -0.240 OA
ENDBRANCH  10  17
TORSDOF 3
