REMARK  Name = No_4808-gen_results/8p0m/2024-11-26-14-13-15/
REMARK  1 active torsions:
REMARK  status: ('A' for Active; 'I' for Inactive)
REMARK    1  A    between atoms: C_5  and  C_6
REMARK                            x       y       z     vdW  Elec       q    Type
REMARK                         _______ _______ _______ _____ _____    ______ ____
ROOT
ATOM      1  C   UNL A   1     -30.349   0.257  26.220  0.00  0.00    +0.253 C 
ATOM      2  O   UNL A   1     -30.328  -0.055  25.016  0.00  0.00    -0.270 OA
ATOM      3  N   UNL A   1     -31.592   0.493  26.762  0.00  0.00    -0.254 N 
ATOM      4  C   UNL A   1     -31.762   0.834  28.150  0.00  0.00    +0.063 C 
ATOM      5  C   UNL A   1     -33.106   0.882  28.443  0.00  0.00    -0.008 C 
ATOM      6  C   UNL A   1     -32.764   0.394  25.975  0.00  0.00    +0.103 C 
ATOM      7  C   UNL A   1     -33.769   0.727  27.199  0.00  0.00    +0.049 C 
ENDROOT
BRANCH   1  12
ATOM      8  C   UNL A   1     -28.016  -0.814  28.878  0.00  0.00    +0.000 A 
ATOM      9  C   UNL A   1     -27.064  -0.119  28.608  0.00  0.00    +0.000 A 
ATOM     10  C   UNL A   1     -26.972   0.714  27.506  0.00  0.00    +0.000 A 
ATOM     11  C   UNL A   1     -28.105   0.774  26.642  0.00  0.00    +0.004 A 
ATOM     12  C   UNL A   1     -29.204   0.118  27.048  0.00  0.00    +0.054 A 
ATOM     13  C   UNL A   1     -29.182  -0.676  28.117  0.00  0.00    +0.004 A 
ENDBRANCH   1  12
TORSDOF 1
