MODEL 4808
MODEL 1
REMARK VINA RESULT:    -6.063      0.000      0.000
REMARK INTER + INTRA:          -6.407
REMARK INTER:                  -6.417
REMARK INTRA:                   0.010
REMARK UNBOUND:                 0.010
REMARK  Name = No_4808-gen_results/8p0m/2024-11-26-14-13-15/
REMARK  1 active torsions:
REMARK  status: ('A' for Active; 'I' for Inactive)
REMARK    1  A    between atoms: C_5  and  C_6
REMARK                            x       y       z     vdW  Elec       q    Type
REMARK                         _______ _______ _______ _____ _____    ______ ____
ROOT
ATOM      1  C   UNL A   1     -23.733  -1.335  29.247  0.00  0.00    +0.253 C 
ATOM      2  O   UNL A   1     -22.760  -1.102  29.986  0.00  0.00    -0.270 OA
ATOM      3  N   UNL A   1     -23.940  -0.443  28.220  0.00  0.00    -0.254 N 
ATOM      4  C   UNL A   1     -25.012  -0.609  27.275  0.00  0.00    +0.063 C 
ATOM      5  C   UNL A   1     -24.900   0.345  26.290  0.00  0.00    -0.008 C 
ATOM      6  C   UNL A   1     -23.091   0.675  28.040  0.00  0.00    +0.103 C 
ATOM      7  C   UNL A   1     -23.851   1.201  26.712  0.00  0.00    +0.049 C 
ENDROOT
BRANCH   1  12
ATOM      8  C   UNL A   1     -24.602  -4.912  28.916  0.00  0.00    +0.000 A 
ATOM      9  C   UNL A   1     -25.731  -4.890  29.349  0.00  0.00    +0.000 A 
ATOM     10  C   UNL A   1     -26.354  -3.780  29.895  0.00  0.00    +0.000 A 
ATOM     11  C   UNL A   1     -25.610  -2.564  29.917  0.00  0.00    +0.004 A 
ATOM     12  C   UNL A   1     -24.423  -2.575  29.289  0.00  0.00    +0.054 A 
ATOM     13  C   UNL A   1     -23.902  -3.705  28.813  0.00  0.00    +0.004 A 
ENDBRANCH   1  12
TORSDOF 1
ENDMDL
ENDMDL
