MODEL 4809
MODEL 1
REMARK VINA RESULT:    -5.392      0.000      0.000
REMARK INTER + INTRA:          -6.633
REMARK INTER:                  -6.337
REMARK INTRA:                  -0.296
REMARK UNBOUND:                -0.296
REMARK  Name = No_4809-gen_results/8p0m/2024-11-26-14-13-15/
REMARK  3 active torsions:
REMARK  status: ('A' for Active; 'I' for Inactive)
REMARK    1  A    between atoms: C_2  and  C_10
REMARK    2  A    between atoms: C_4  and  C_5
REMARK    3  A    between atoms: N_12  and  C_13
REMARK                            x       y       z     vdW  Elec       q    Type
REMARK                         _______ _______ _______ _____ _____    ______ ____
ROOT
ATOM      1  C   UNL A   1      -8.361   0.165  11.686  0.00  0.00    +0.004 A 
ATOM      2  C   UNL A   1      -8.073   0.472  10.720  0.00  0.00    +0.055 A 
ATOM      3  C   UNL A   1      -9.253   1.070  12.427  0.00  0.00    +0.001 A 
ATOM      4  C   UNL A   1      -9.801   2.225  11.796  0.00  0.00    +0.044 A 
ATOM      5  C   UNL A   1      -8.522   1.535   9.797  0.00  0.00    +0.004 A 
ATOM      6  C   UNL A   1      -9.448   2.430  10.430  0.00  0.00    +0.001 A 
ENDROOT
BRANCH   4   7
ATOM      7  C   UNL A   1     -10.678   3.131  12.482  0.00  0.00    +0.341 C 
ATOM      8  F   UNL A   1     -11.141   2.682  13.444  0.00  0.00    -0.193 F 
ATOM      9  F   UNL A   1     -10.644   4.339  12.308  0.00  0.00    -0.193 F 
ENDBRANCH   4   7
BRANCH   2  10
ATOM     10  C   UNL A   1      -7.067  -0.475   9.868  0.00  0.00    +0.269 C 
ATOM     11  O   UNL A   1      -7.166  -1.550  10.142  0.00  0.00    -0.268 OA
ATOM     12  N   UNL A   1      -6.204   0.039   8.971  0.00  0.00    -0.174 NA
BRANCH  12  13
ATOM     13  C   UNL A   1      -5.331  -0.856   8.244  0.00  0.00    +0.084 C 
ATOM     14  C   UNL A   1      -4.307  -1.008   8.213  0.00  0.00    -0.008 C 
ATOM     15  C   UNL A   1      -3.507  -1.937   7.426  0.00  0.00    +0.032 C 
ENDBRANCH  12  13
ENDBRANCH   2  10
TORSDOF 3
ENDMDL
ENDMDL
