REMARK  Name = No_4809-gen_results/8p0m/2024-11-26-14-13-15/
REMARK  3 active torsions:
REMARK  status: ('A' for Active; 'I' for Inactive)
REMARK    1  A    between atoms: C_2  and  C_10
REMARK    2  A    between atoms: C_4  and  C_5
REMARK    3  A    between atoms: N_12  and  C_13
REMARK                            x       y       z     vdW  Elec       q    Type
REMARK                         _______ _______ _______ _____ _____    ______ ____
ROOT
ATOM      1  C   UNL A   1     -28.016  -0.814  28.878  0.00  0.00    +0.004 A 
ATOM      2  C   UNL A   1     -28.469  -0.785  29.829  0.00  0.00    +0.055 A 
ATOM      3  C   UNL A   1     -26.546  -0.876  28.850  0.00  0.00    +0.001 A 
ATOM      4  C   UNL A   1     -25.804  -1.032  30.057  0.00  0.00    +0.044 A 
ATOM      5  C   UNL A   1     -27.990  -1.005  31.209  0.00  0.00    +0.004 A 
ATOM      6  C   UNL A   1     -26.562  -1.137  31.260  0.00  0.00    +0.001 A 
ENDROOT
BRANCH   4   7
ATOM      7  C   UNL A   1     -24.370  -1.100  30.072  0.00  0.00    +0.341 C 
ATOM      8  F   UNL A   1     -23.957  -1.946  30.746  0.00  0.00    -0.193 F 
ATOM      9  F   UNL A   1     -23.678  -0.600  29.199  0.00  0.00    -0.193 F 
ENDBRANCH   4   7
BRANCH   2  10
ATOM     10  C   UNL A   1     -30.087  -0.688  29.919  0.00  0.00    +0.269 C 
ATOM     11  O   UNL A   1     -30.529  -0.177  29.033  0.00  0.00    -0.268 OA
ATOM     12  N   UNL A   1     -30.764  -1.154  30.985  0.00  0.00    -0.174 NA
BRANCH  12  13
ATOM     13  C   UNL A   1     -32.205  -1.038  31.008  0.00  0.00    +0.084 C 
ATOM     14  C   UNL A   1     -32.888  -0.371  30.606  0.00  0.00    -0.008 C 
ATOM     15  C   UNL A   1     -34.341  -0.328  30.696  0.00  0.00    +0.032 C 
ENDBRANCH  12  13
ENDBRANCH   2  10
TORSDOF 3
