MODEL 480
MODEL 1
REMARK VINA RESULT:    -5.649      0.000      0.000
REMARK INTER + INTRA:          -7.419
REMARK INTER:                  -6.640
REMARK INTRA:                  -0.779
REMARK UNBOUND:                -0.779
REMARK  Name = No_480-gen_results/8p0m/2024-11-26-14-13-15/
REMARK  3 active torsions:
REMARK  status: ('A' for Active; 'I' for Inactive)
REMARK    1  A    between atoms: C_3  and  C_7
REMARK    2  A    between atoms: C_8  and  C_9
REMARK    3  A    between atoms: C_10  and  C_11
REMARK                            x       y       z     vdW  Elec       q    Type
REMARK                         _______ _______ _______ _____ _____    ______ ____
ROOT
ATOM      1  C   UNL A   1     -23.913  -3.960  28.450  0.00  0.00    +0.008 A 
ATOM      2  C   UNL A   1     -24.304  -4.906  28.701  0.00  0.00    +0.001 A 
ATOM      3  C   UNL A   1     -24.785  -2.847  28.826  0.00  0.00    +0.042 A 
ATOM      4  C   UNL A   1     -25.984  -3.043  29.465  0.00  0.00    +0.008 A 
ATOM      5  C   UNL A   1     -25.333  -5.283  29.324  0.00  0.00    +0.000 A 
ATOM      6  C   UNL A   1     -26.278  -4.369  29.754  0.00  0.00    +0.001 A 
ENDROOT
BRANCH   3   7
ATOM      7  C   UNL A   1     -24.416  -1.410  28.563  0.00  0.00    -0.060 C 
ATOM      8  C   UNL A   1     -23.823  -0.586  28.912  0.00  0.00    -0.059 C 
BRANCH   8   9
ATOM      9  C   UNL A   1     -22.791  -0.737  29.964  0.00  0.00    +0.050 C 
ATOM     10  C   UNL A   1     -22.759  -0.724  31.063  0.00  0.00    +0.009 C 
BRANCH  10  11
ATOM     11  C   UNL A   1     -23.963  -0.066  31.670  0.00  0.00    +0.001 C 
ATOM     12  C   UNL A   1     -24.667  -0.747  32.626  0.00  0.00    +0.000 C 
ENDBRANCH  10  11
ENDBRANCH   8   9
ENDBRANCH   3   7
TORSDOF 3
ENDMDL
ENDMDL
