REMARK  Name = No_481-gen_results/8p0m/2024-11-26-14-13-15/
REMARK  0 active torsions:
REMARK  status: ('A' for Active; 'I' for Inactive)
REMARK                            x       y       z     vdW  Elec       q    Type
REMARK                         _______ _______ _______ _____ _____    ______ ____
ROOT
ATOM      1  O   UNL A   1     -28.123  -1.335  28.487  0.00  0.00    -0.273 OA
ATOM      2  C   UNL A   1     -27.481  -0.404  28.709  0.00  0.00    +0.246 C 
ATOM      3  N   UNL A   1     -27.241   0.391  29.510  0.00  0.00    -0.200 NA
ATOM      4  C   UNL A   1     -26.407  -0.107  27.450  0.00  0.00    +0.113 C 
ATOM      5  C   UNL A   1     -25.436   0.847  27.634  0.00  0.00    -0.015 A 
ATOM      6  C   UNL A   1     -24.397   1.108  26.681  0.00  0.00    -0.004 A 
ATOM      7  C   UNL A   1     -26.363   1.402  29.798  0.00  0.00    +0.141 C 
ATOM      8  C   UNL A   1     -25.395   1.667  28.847  0.00  0.00    -0.004 A 
ATOM      9  C   UNL A   1     -23.339   2.004  27.041  0.00  0.00    -0.000 A 
ATOM     10  C   UNL A   1     -23.328   2.648  28.263  0.00  0.00    -0.000 A 
ATOM     11  C   UNL A   1     -24.313   2.504  29.114  0.00  0.00    -0.003 A 
ENDROOT
TORSDOF 0
