REMARK  Name = No_4810-gen_results/8p0m/2024-11-26-14-13-15/
REMARK  5 active torsions:
REMARK  status: ('A' for Active; 'I' for Inactive)
REMARK    1  A    between atoms: C_1  and  N_8
REMARK    2  A    between atoms: C_5  and  C_9
REMARK    3  A    between atoms: N_10  and  C_19
REMARK    4  A    between atoms: C_13  and  C_14
REMARK    5  A    between atoms: C_19  and  C_21
REMARK                            x       y       z     vdW  Elec       q    Type
REMARK                         _______ _______ _______ _____ _____    ______ ____
ROOT
ATOM      1  C   UNL A   1     -28.016  -0.814  28.878  0.00  0.00    +0.059 C 
ATOM      2  C   UNL A   1     -27.064  -0.119  28.608  0.00  0.00    -0.029 C 
ATOM      3  C   UNL A   1     -26.876   1.133  28.913  0.00  0.00    +0.024 C 
ATOM      4  C   UNL A   1     -25.688   1.952  28.567  0.00  0.00    +0.013 C 
ATOM      5  C   UNL A   1     -24.639   1.283  27.875  0.00  0.00    +0.079 C 
ATOM      6  C   UNL A   1     -24.807  -0.051  27.604  0.00  0.00    +0.013 C 
ATOM      7  C   UNL A   1     -25.902  -0.767  27.951  0.00  0.00    +0.024 C 
ENDROOT
BRANCH   1   8
ATOM      8  N   UNL A   1     -27.989  -1.585  30.106  0.00  0.00    -0.249 N 
ATOM      9  C   UNL A   1     -26.906  -2.009  30.520  0.00  0.00    +0.120 C 
ATOM     10  C   UNL A   1     -29.180  -1.987  30.804  0.00  0.00    +0.308 C 
ATOM     11  O   UNL A   1     -28.950  -1.628  32.119  0.00  0.00    -0.265 OA
BRANCH  10  12
ATOM     12  C   UNL A   1     -30.094  -2.724  30.414  0.00  0.00    +0.319 C 
ATOM     13  O   UNL A   1     -30.106  -3.194  29.425  0.00  0.00    -0.263 OA
ATOM     14  N   UNL A   1     -31.148  -3.071  31.321  0.00  0.00    -0.196 NA
ATOM     15  C   UNL A   1     -32.254  -3.907  30.926  0.00  0.00    +0.139 C 
ENDBRANCH  10  12
ENDBRANCH   1   8
BRANCH   5  16
ATOM     16  C   UNL A   1     -23.445   1.984  27.470  0.00  0.00    +0.245 C 
ATOM     17  N   UNL A   1     -22.276   1.556  27.502  0.00  0.00    -0.184 NA
ATOM     18  O   UNL A   1     -23.643   3.159  26.933  0.00  0.00    -0.273 OA
BRANCH  17  19
ATOM     19  C   UNL A   1     -21.811   0.534  28.375  0.00  0.00    +0.051 C 
ATOM     20  C   UNL A   1     -20.460   0.145  28.300  0.00  0.00    +0.013 C 
BRANCH  19  21
ATOM     21  C   UNL A   1     -22.618   0.044  29.462  0.00  0.00    +0.045 C 
ATOM     22  C   UNL A   1     -22.125  -1.036  30.245  0.00  0.00    +0.007 C 
ATOM     23  C   UNL A   1     -23.009  -1.396  31.251  0.00  0.00    +0.008 C 
ATOM     24  C   UNL A   1     -24.163  -0.540  31.613  0.00  0.00    +0.065 C 
ATOM     25  C   UNL A   1     -24.431   0.628  30.966  0.00  0.00    +0.151 C 
ATOM     26  C   UNL A   1     -23.639   0.930  29.927  0.00  0.00    +0.063 C 
ATOM     27  C   UNL A   1     -22.717   1.950  30.998  0.00  0.00    +0.008 C 
ATOM     28  O   UNL A   1     -25.546   1.245  31.330  0.00  0.00    -0.296 OA
ENDBRANCH  19  21
ENDBRANCH  17  19
ENDBRANCH   5  16
TORSDOF 5
