MODEL 4811
MODEL 1
REMARK VINA RESULT:    -4.529      0.000      0.000
REMARK INTER + INTRA:          -4.529
REMARK INTER:                  -4.529
REMARK INTRA:                   0.000
REMARK UNBOUND:                 0.000
REMARK  Name = No_4811-gen_results/8p0m/2024-11-26-14-13-15/
REMARK  0 active torsions:
REMARK  status: ('A' for Active; 'I' for Inactive)
REMARK                            x       y       z     vdW  Elec       q    Type
REMARK                         _______ _______ _______ _____ _____    ______ ____
ROOT
ATOM      1  C   UNL A   1      -9.185  -9.194  20.114  0.00  0.00    +0.030 A 
ATOM      2  C   UNL A   1      -8.312  -9.726  19.859  0.00  0.00    +0.140 A 
ATOM      3  C   UNL A   1     -10.297  -9.253  19.152  0.00  0.00    +0.002 A 
ATOM      4  C   UNL A   1     -10.225 -10.106  18.013  0.00  0.00    +0.000 A 
ATOM      5  C   UNL A   1      -8.004 -10.714  18.789  0.00  0.00    +0.030 A 
ATOM      6  C   UNL A   1      -9.009 -10.789  17.871  0.00  0.00    +0.002 A 
ATOM      7  F   UNL A   1      -7.214  -9.842  20.774  0.00  0.00    -0.204 F 
ENDROOT
TORSDOF 0
ENDMDL
ENDMDL
