MODEL 4812
MODEL 1
REMARK VINA RESULT:    -6.393      0.000      0.000
REMARK INTER + INTRA:          -6.974
REMARK INTER:                  -6.767
REMARK INTRA:                  -0.207
REMARK UNBOUND:                -0.207
REMARK  Name = No_4812-gen_results/8p0m/2024-11-26-14-13-15/
REMARK  1 active torsions:
REMARK  status: ('A' for Active; 'I' for Inactive)
REMARK    1  A    between atoms: C_9  and  C_11
REMARK                            x       y       z     vdW  Elec       q    Type
REMARK                         _______ _______ _______ _____ _____    ______ ____
ROOT
ATOM      1  C   UNL A   1     -26.458  -3.381  30.031  0.00  0.00    -0.000 A 
ATOM      2  C   UNL A   1     -25.539  -2.599  29.942  0.00  0.00    -0.000 A 
ATOM      3  C   UNL A   1     -24.325  -2.979  29.380  0.00  0.00    -0.000 A 
ATOM      4  C   UNL A   1     -24.108  -4.329  28.929  0.00  0.00    -0.000 A 
ATOM      5  C   UNL A   1     -25.214  -5.173  29.091  0.00  0.00    -0.000 A 
ATOM      6  C   UNL A   1     -26.335  -4.769  29.643  0.00  0.00    -0.000 A 
ATOM      7  C   UNL A   1     -25.577  -1.178  30.380  0.00  0.00    -0.000 A 
ATOM      8  C   UNL A   1     -24.901  -0.246  29.806  0.00  0.00    +0.004 A 
ATOM      9  C   UNL A   1     -23.580  -0.632  29.151  0.00  0.00    +0.071 A 
ATOM     10  C   UNL A   1     -23.376  -1.970  28.837  0.00  0.00    +0.004 A 
ENDROOT
BRANCH   9  11
ATOM     11  C   UNL A   1     -22.647   0.446  29.019  0.00  0.00    +0.419 C 
ATOM     12  F   UNL A   1     -22.310   0.881  27.927  0.00  0.00    -0.166 F 
ATOM     13  F   UNL A   1     -22.983   1.534  29.891  0.00  0.00    -0.166 F 
ATOM     14  F   UNL A   1     -21.408   0.048  29.656  0.00  0.00    -0.166 F 
ENDBRANCH   9  11
TORSDOF 1
ENDMDL
ENDMDL
