REMARK  Name = No_4813-gen_results/8p0m/2024-11-26-14-13-15/
REMARK  7 active torsions:
REMARK  status: ('A' for Active; 'I' for Inactive)
REMARK    1  A    between atoms: C_1  and  C_2
REMARK    2  A    between atoms: C_5  and  C_9
REMARK    3  A    between atoms: N_8  and  C_13
REMARK    4  A    between atoms: C_15  and  C_30
REMARK    5  A    between atoms: C_20  and  O_25
REMARK    6  A    between atoms: O_25  and  C_26
REMARK    7  A    between atoms: C_26  and  C_27
REMARK                            x       y       z     vdW  Elec       q    Type
REMARK                         _______ _______ _______ _____ _____    ______ ____
ROOT
ATOM      1  C   UNL A   1     -29.054  -2.497  30.574  0.00  0.00    +0.203 C 
ATOM      2  C   UNL A   1     -29.412  -2.169  31.880  0.00  0.00    +0.091 C 
ATOM      3  C   UNL A   1     -30.242  -3.082  32.471  0.00  0.00    -0.013 A 
ATOM      4  C   UNL A   1     -30.912  -3.042  33.527  0.00  0.00    -0.004 A 
ATOM      5  C   UNL A   1     -31.776  -4.039  33.995  0.00  0.00    +0.003 A 
ATOM      6  C   UNL A   1     -31.889  -5.204  33.223  0.00  0.00    +0.037 A 
ATOM      7  C   UNL A   1     -31.186  -5.344  32.061  0.00  0.00    +0.137 A 
ATOM      8  C   UNL A   1     -30.376  -4.355  31.681  0.00  0.00    +0.038 A 
ATOM      9  C   UNL A   1     -29.659  -4.479  30.424  0.00  0.00    +0.173 C 
ATOM     10  O   UNL A   1     -29.314  -3.366  29.792  0.00  0.00    -0.332 OA
ENDROOT
BRANCH   2  11
ATOM     11  C   UNL A   1     -29.179  -0.877  32.544  0.00  0.00    -0.014 A 
ATOM     12  C   UNL A   1     -30.133   0.116  32.375  0.00  0.00    -0.004 A 
ATOM     13  C   UNL A   1     -29.894   1.355  32.915  0.00  0.00    -0.000 A 
ATOM     14  C   UNL A   1     -28.741   1.601  33.666  0.00  0.00    -0.000 A 
ATOM     15  C   UNL A   1     -27.803   0.553  33.864  0.00  0.00    -0.000 A 
ATOM     16  C   UNL A   1     -28.053  -0.674  33.261  0.00  0.00    -0.004 A 
ENDBRANCH   2  11
BRANCH   1  18
ATOM     17  C   UNL A   1     -28.016  -0.814  28.878  0.00  0.00    +0.251 C 
ATOM     18  N   UNL A   1     -27.982  -1.611  30.103  0.00  0.00    -0.252 N 
ATOM     19  O   UNL A   1     -29.209  -0.607  28.488  0.00  0.00    -0.270 OA
ATOM     20  C   UNL A   1     -26.696  -1.876  30.790  0.00  0.00    +0.117 C 
BRANCH  17  21
ATOM     21  C   UNL A   1     -27.064  -0.119  28.608  0.00  0.00    +0.054 A 
ATOM     22  C   UNL A   1     -26.929   1.171  29.008  0.00  0.00    +0.005 A 
ATOM     23  C   UNL A   1     -25.770   2.034  28.688  0.00  0.00    +0.005 A 
ATOM     24  C   UNL A   1     -24.714   1.443  27.919  0.00  0.00    +0.057 A 
ATOM     25  C   UNL A   1     -24.859   0.078  27.584  0.00  0.00    +0.005 A 
ATOM     26  C   UNL A   1     -25.965  -0.661  27.916  0.00  0.00    +0.005 A 
BRANCH  24  27
ATOM     27  C   UNL A   1     -23.535   2.170  27.555  0.00  0.00    +0.282 C 
ATOM     28  N   UNL A   1     -22.378   2.193  27.832  0.00  0.00    -0.089 NA
ATOM     29  O   UNL A   1     -23.822   2.974  26.440  0.00  0.00    -0.267 OA
ATOM     30  N   UNL A   1     -22.009   1.339  28.844  0.00  0.00    +0.007 NA
ENDBRANCH  24  27
ENDBRANCH  17  21
ENDBRANCH   1  18
BRANCH   7  31
ATOM     31  O   UNL A   1     -31.293  -6.500  31.430  0.00  0.00    -0.464 OA
BRANCH  31  32
ATOM     32  C   UNL A   1     -31.761  -6.619  30.255  0.00  0.00    +0.319 C 
BRANCH  32  33
ATOM     33  C   UNL A   1     -32.963  -7.272  30.180  0.00  0.00    +0.408 C 
ATOM     34  O   UNL A   1     -33.609  -7.230  29.153  0.00  0.00    -0.241 OA
ATOM     35  O   UNL A   1     -33.180  -8.343  30.951  0.00  0.00    -0.241 OA
ENDBRANCH  32  33
ENDBRANCH  31  32
ENDBRANCH   7  31
TORSDOF 7
