MODEL 4814
MODEL 1
REMARK VINA RESULT:    -8.889      0.000      0.000
REMARK INTER + INTRA:         -11.239
REMARK INTER:                 -10.448
REMARK INTRA:                  -0.790
REMARK UNBOUND:                -0.790
REMARK  Name = No_4814-gen_results/8p0m/2024-11-26-14-13-15/
REMARK  3 active torsions:
REMARK  status: ('A' for Active; 'I' for Inactive)
REMARK    1  A    between atoms: C_7  and  C_11
REMARK    2  A    between atoms: C_10  and  C_15
REMARK    3  A    between atoms: C_15  and  C_17
REMARK                            x       y       z     vdW  Elec       q    Type
REMARK                         _______ _______ _______ _____ _____    ______ ____
ROOT
ATOM      1  C   UNL A   1     -23.319   0.740  27.415  0.00  0.00    +0.004 A 
ATOM      2  C   UNL A   1     -22.719   1.295  28.081  0.00  0.00    -0.000 A 
ATOM      3  C   UNL A   1     -24.497   0.140  27.974  0.00  0.00    -0.000 A 
ATOM      4  C   UNL A   1     -25.516  -0.483  27.105  0.00  0.00    -0.000 A 
ATOM      5  C   UNL A   1     -25.691   0.006  25.797  0.00  0.00    -0.000 A 
ATOM      6  C   UNL A   1     -24.767   0.942  25.289  0.00  0.00    +0.004 A 
ATOM      7  C   UNL A   1     -23.745   1.381  26.046  0.00  0.00    +0.071 A 
ATOM      8  C   UNL A   1     -22.417   1.023  29.344  0.00  0.00    -0.000 A 
ATOM      9  C   UNL A   1     -23.390   0.165  29.948  0.00  0.00    -0.000 A 
ATOM     10  C   UNL A   1     -24.448  -0.372  29.242  0.00  0.00    -0.000 A 
ENDROOT
BRANCH   7  11
ATOM     11  C   UNL A   1     -22.784   2.309  25.321  0.00  0.00    +0.419 C 
ATOM     12  F   UNL A   1     -23.272   3.402  25.259  0.00  0.00    -0.166 F 
ATOM     13  F   UNL A   1     -22.620   1.839  24.064  0.00  0.00    -0.166 F 
ATOM     14  F   UNL A   1     -21.551   2.224  25.814  0.00  0.00    -0.166 F 
ENDBRANCH   7  11
BRANCH  10  15
ATOM     15  C   UNL A   1     -25.367  -1.266  29.820  0.00  0.00    -0.000 C 
ATOM     16  C   UNL A   1     -26.377  -0.842  30.424  0.00  0.00    -0.000 C 
BRANCH  15  17
ATOM     17  C   UNL A   1     -25.102  -2.640  29.608  0.00  0.00    -0.000 A 
ATOM     18  C   UNL A   1     -24.016  -3.183  28.984  0.00  0.00    +0.000 A 
ATOM     19  C   UNL A   1     -23.954  -4.509  28.608  0.00  0.00    +0.000 A 
ATOM     20  C   UNL A   1     -24.975  -5.344  28.940  0.00  0.00    +0.000 A 
ATOM     21  C   UNL A   1     -26.161  -3.569  29.854  0.00  0.00    +0.000 A 
ATOM     22  C   UNL A   1     -26.100  -4.912  29.550  0.00  0.00    +0.000 A 
ENDBRANCH  15  17
ENDBRANCH  10  15
TORSDOF 3
ENDMDL
ENDMDL
