MODEL 4815
MODEL 1
REMARK VINA RESULT:    -4.790      0.000      0.000
REMARK INTER + INTRA:          -4.790
REMARK INTER:                  -4.790
REMARK INTRA:                   0.000
REMARK UNBOUND:                 0.000
REMARK  Name = No_4815-gen_results/8p0m/2024-11-26-14-13-15/
REMARK  0 active torsions:
REMARK  status: ('A' for Active; 'I' for Inactive)
REMARK                            x       y       z     vdW  Elec       q    Type
REMARK                         _______ _______ _______ _____ _____    ______ ____
ROOT
ATOM      1  C   UNL A   1      -8.156 -10.392  18.701  0.00  0.00    +0.041 A 
ATOM      2  C   UNL A   1      -9.117 -10.347  17.969  0.00  0.00    +0.141 A 
ATOM      3  C   UNL A   1     -10.273  -9.668  18.342  0.00  0.00    +0.030 A 
ATOM      4  C   UNL A   1     -10.377  -9.037  19.632  0.00  0.00    +0.003 A 
ATOM      5  C   UNL A   1      -9.228  -9.158  20.425  0.00  0.00    +0.011 A 
ATOM      6  C   UNL A   1      -8.167  -9.825  20.032  0.00  0.00    +0.060 A 
ATOM      7  F   UNL A   1      -9.066 -11.089  16.843  0.00  0.00    -0.204 F 
ATOM      8 CL   UNL A   1      -6.845  -9.914  21.120  0.00  0.00    -0.082 Cl
ENDROOT
TORSDOF 0
ENDMDL
ENDMDL
