REMARK  Name = No_4816-gen_results/8p0m/2024-11-26-14-13-15/
REMARK  1 active torsions:
REMARK  status: ('A' for Active; 'I' for Inactive)
REMARK    1  A    between atoms: C_7  and  C_12
REMARK                            x       y       z     vdW  Elec       q    Type
REMARK                         _______ _______ _______ _____ _____    ______ ____
ROOT
ATOM      1  C   UNL A   1     -28.016  -0.814  28.878  0.00  0.00    +0.002 A 
ATOM      2  C   UNL A   1     -28.469  -0.785  29.829  0.00  0.00    +0.000 A 
ATOM      3  C   UNL A   1     -28.196   0.348  28.055  0.00  0.00    +0.028 A 
ATOM      4  C   UNL A   1     -27.442   0.510  26.795  0.00  0.00    +0.140 A 
ATOM      5  C   UNL A   1     -27.843   1.333  25.806  0.00  0.00    +0.030 A 
ATOM      6  C   UNL A   1     -29.472   0.121  30.352  0.00  0.00    +0.000 A 
ATOM      7  C   UNL A   1     -29.707   1.185  29.596  0.00  0.00    +0.002 A 
ATOM      8  C   UNL A   1     -29.036   1.367  28.402  0.00  0.00    +0.002 A 
ATOM      9  C   UNL A   1     -28.808   2.394  26.152  0.00  0.00    +0.002 A 
ATOM     10  C   UNL A   1     -29.345   2.367  27.430  0.00  0.00    +0.000 A 
ATOM     11  F   UNL A   1     -26.553  -0.419  26.434  0.00  0.00    -0.204 F 
ENDROOT
BRANCH   7  12
ATOM     12  C   UNL A   1     -30.683   2.232  30.027  0.00  0.00    +0.028 A 
ATOM     13  C   UNL A   1     -30.201   3.329  30.677  0.00  0.00    +0.140 A 
ATOM     14  C   UNL A   1     -31.105   4.347  31.109  0.00  0.00    +0.030 A 
ATOM     15  C   UNL A   1     -32.452   4.194  30.799  0.00  0.00    +0.002 A 
ATOM     16  C   UNL A   1     -32.018   2.090  29.750  0.00  0.00    +0.002 A 
ATOM     17  C   UNL A   1     -32.904   3.071  30.127  0.00  0.00    +0.000 A 
ATOM     18  F   UNL A   1     -28.954   3.544  30.946  0.00  0.00    -0.204 F 
ENDBRANCH   7  12
TORSDOF 1
