REMARK  Name = No_4817-gen_results/8p0m/2024-11-26-14-13-15/
REMARK  0 active torsions:
REMARK  status: ('A' for Active; 'I' for Inactive)
REMARK                            x       y       z     vdW  Elec       q    Type
REMARK                         _______ _______ _______ _____ _____    ______ ____
ROOT
ATOM      1  O   UNL A   1     -28.123  -1.335  28.487  0.00  0.00    -0.272 OA
ATOM      2  C   UNL A   1     -28.521  -0.436  29.078  0.00  0.00    +0.259 C 
ATOM      3  C   UNL A   1     -29.698   0.051  28.976  0.00  0.00    +0.175 C 
ATOM      4  N   UNL A   1     -27.541   0.176  30.005  0.00  0.00    -0.203 NA
ATOM      5  C   UNL A   1     -27.889   1.266  30.818  0.00  0.00    +0.134 C 
ATOM      6  N   UNL A   1     -30.049   1.113  29.818  0.00  0.00    -0.207 NA
ATOM      7  C   UNL A   1     -29.179   1.714  30.667  0.00  0.00    +0.113 C 
ENDROOT
TORSDOF 0
