MODEL 4817
MODEL 1
REMARK VINA RESULT:    -4.131      0.000      0.000
REMARK INTER + INTRA:          -4.131
REMARK INTER:                  -4.131
REMARK INTRA:                   0.000
REMARK UNBOUND:                 0.000
REMARK  Name = No_4817-gen_results/8p0m/2024-11-26-14-13-15/
REMARK  0 active torsions:
REMARK  status: ('A' for Active; 'I' for Inactive)
REMARK                            x       y       z     vdW  Elec       q    Type
REMARK                         _______ _______ _______ _____ _____    ______ ____
ROOT
ATOM      1  O   UNL A   1      -7.124 -10.063  20.563  0.00  0.00    -0.272 OA
ATOM      2  C   UNL A   1      -8.054  -9.951  19.901  0.00  0.00    +0.259 C 
ATOM      3  C   UNL A   1      -9.024  -9.149  20.120  0.00  0.00    +0.175 C 
ATOM      4  N   UNL A   1      -8.083 -10.848  18.722  0.00  0.00    -0.203 NA
ATOM      5  C   UNL A   1      -9.143 -10.808  17.802  0.00  0.00    +0.134 C 
ATOM      6  N   UNL A   1     -10.058  -9.088  19.177  0.00  0.00    -0.207 NA
ATOM      7  C   UNL A   1     -10.133  -9.902  18.095  0.00  0.00    +0.113 C 
ENDROOT
TORSDOF 0
ENDMDL
ENDMDL
