REMARK  Name = No_4818-gen_results/8p0m/2024-11-26-14-13-15/
REMARK  1 active torsions:
REMARK  status: ('A' for Active; 'I' for Inactive)
REMARK    1  A    between atoms: C_5  and  C_7
REMARK                            x       y       z     vdW  Elec       q    Type
REMARK                         _______ _______ _______ _____ _____    ______ ____
ROOT
ATOM      1  C   UNL A   1     -28.016  -0.814  28.878  0.00  0.00    +0.058 A 
ATOM      2  C   UNL A   1     -27.064  -0.119  28.608  0.00  0.00    +0.011 A 
ATOM      3  C   UNL A   1     -27.001   0.691  27.491  0.00  0.00    +0.001 A 
ATOM      4  C   UNL A   1     -28.137   0.736  26.635  0.00  0.00    +0.005 A 
ATOM      5  C   UNL A   1     -29.236   0.076  27.069  0.00  0.00    +0.056 A 
ATOM      6  C   UNL A   1     -29.218  -0.643  28.175  0.00  0.00    +0.016 A 
ATOM      7 CL   UNL A   1     -28.022  -1.795  30.342  0.00  0.00    -0.082 Cl
ENDROOT
BRANCH   5   8
ATOM      8  C   UNL A   1     -30.415   0.159  26.182  0.00  0.00    +0.265 C 
ATOM      9  N   UNL A   1     -31.023   1.119  26.035  0.00  0.00    -0.200 NA
ATOM     10  O   UNL A   1     -30.824  -0.932  25.627  0.00  0.00    -0.268 OA
ATOM     11  C   UNL A   1     -32.235   1.292  25.168  0.00  0.00    +0.139 C 
ENDBRANCH   5   8
TORSDOF 1
