MODEL 4819
MODEL 1
REMARK VINA RESULT:    -4.641      0.000      0.000
REMARK INTER + INTRA:          -4.942
REMARK INTER:                  -4.912
REMARK INTRA:                  -0.030
REMARK UNBOUND:                -0.030
REMARK  Name = No_4819-gen_results/8p0m/2024-11-26-14-13-15/
REMARK  1 active torsions:
REMARK  status: ('A' for Active; 'I' for Inactive)
REMARK    1  A    between atoms: C_2  and  O_7
REMARK                            x       y       z     vdW  Elec       q    Type
REMARK                         _______ _______ _______ _____ _____    ______ ____
ROOT
ATOM      1  C   UNL A   1     -24.026  -4.255  28.790  0.00  0.00    +0.037 A 
ATOM      2  C   UNL A   1     -24.165  -3.264  29.120  0.00  0.00    +0.139 A 
ATOM      3  C   UNL A   1     -25.165  -5.205  29.089  0.00  0.00    +0.003 A 
ATOM      4  C   UNL A   1     -26.361  -4.699  29.640  0.00  0.00    +0.000 A 
ATOM      5  C   UNL A   1     -25.298  -2.488  29.673  0.00  0.00    +0.037 A 
ATOM      6  C   UNL A   1     -26.366  -3.327  29.956  0.00  0.00    +0.003 A 
ENDROOT
BRANCH   2   7
ATOM      7  O   UNL A   1     -23.061  -2.337  28.832  0.00  0.00    -0.471 OA
ATOM      8  C   UNL A   1     -22.974  -1.125  29.081  0.00  0.00    +0.253 C 
ENDBRANCH   2   7
TORSDOF 1
ENDMDL
ENDMDL
