MODEL 481
MODEL 1
REMARK VINA RESULT:    -5.283      0.000      0.000
REMARK INTER + INTRA:          -5.283
REMARK INTER:                  -5.283
REMARK INTRA:                   0.000
REMARK UNBOUND:                 0.000
REMARK  Name = No_481-gen_results/8p0m/2024-11-26-14-13-15/
REMARK  0 active torsions:
REMARK  status: ('A' for Active; 'I' for Inactive)
REMARK                            x       y       z     vdW  Elec       q    Type
REMARK                         _______ _______ _______ _____ _____    ______ ____
ROOT
ATOM      1  O   UNL A   1     -26.772 -12.390  34.091  0.00  0.00    -0.273 OA
ATOM      2  C   UNL A   1     -27.650 -11.845  33.581  0.00  0.00    +0.246 C 
ATOM      3  N   UNL A   1     -28.447 -11.024  33.729  0.00  0.00    -0.200 NA
ATOM      4  C   UNL A   1     -27.811 -12.340  31.982  0.00  0.00    +0.113 C 
ATOM      5  C   UNL A   1     -28.681 -11.652  31.172  0.00  0.00    -0.015 A 
ATOM      6  C   UNL A   1     -28.819 -11.906  29.768  0.00  0.00    -0.004 A 
ATOM      7  C   UNL A   1     -29.386 -10.296  33.047  0.00  0.00    +0.141 C 
ATOM      8  C   UNL A   1     -29.534 -10.586  31.703  0.00  0.00    -0.004 A 
ATOM      9  C   UNL A   1     -29.630 -11.024  28.983  0.00  0.00    -0.000 A 
ATOM     10  C   UNL A   1     -30.311  -9.970  29.560  0.00  0.00    -0.000 A 
ATOM     11  C   UNL A   1     -30.281  -9.772  30.854  0.00  0.00    -0.003 A 
ENDROOT
TORSDOF 0
ENDMDL
ENDMDL
