MODEL 4820
MODEL 1
REMARK VINA RESULT:    -5.209      0.000      0.000
REMARK INTER + INTRA:          -5.695
REMARK INTER:                  -5.514
REMARK INTRA:                  -0.181
REMARK UNBOUND:                -0.181
REMARK  Name = No_4820-gen_results/8p0m/2024-11-26-14-13-15/
REMARK  1 active torsions:
REMARK  status: ('A' for Active; 'I' for Inactive)
REMARK    1  A    between atoms: C_6  and  C_8
REMARK                            x       y       z     vdW  Elec       q    Type
REMARK                         _______ _______ _______ _____ _____    ______ ____
ROOT
ATOM      1  C   UNL A   1     -21.864   1.311  27.775  0.00  0.00    +0.005 A 
ATOM      2  C   UNL A   1     -22.361   2.158  27.070  0.00  0.00    +0.011 A 
ATOM      3  C   UNL A   1     -23.564   2.179  26.573  0.00  0.00    +0.058 A 
ATOM      4  C   UNL A   1     -24.429   1.080  26.861  0.00  0.00    +0.011 A 
ATOM      5  C   UNL A   1     -23.935   0.153  27.716  0.00  0.00    +0.005 A 
ATOM      6  C   UNL A   1     -22.667   0.247  28.227  0.00  0.00    +0.071 A 
ATOM      7 CL   UNL A   1     -24.035   3.522  25.673  0.00  0.00    -0.082 Cl
ENDROOT
BRANCH   6   8
ATOM      8  C   UNL A   1     -22.061  -0.765  29.152  0.00  0.00    +0.419 C 
ATOM      9  F   UNL A   1     -20.817  -0.968  28.816  0.00  0.00    -0.166 F 
ATOM     10  F   UNL A   1     -22.059  -0.342  30.378  0.00  0.00    -0.166 F 
ATOM     11  F   UNL A   1     -22.706  -1.937  29.083  0.00  0.00    -0.166 F 
ENDBRANCH   6   8
TORSDOF 1
ENDMDL
ENDMDL
