REMARK  Name = No_4820-gen_results/8p0m/2024-11-26-14-13-15/
REMARK  1 active torsions:
REMARK  status: ('A' for Active; 'I' for Inactive)
REMARK    1  A    between atoms: C_6  and  C_8
REMARK                            x       y       z     vdW  Elec       q    Type
REMARK                         _______ _______ _______ _____ _____    ______ ____
ROOT
ATOM      1  C   UNL A   1     -28.016  -0.814  28.878  0.00  0.00    +0.005 A 
ATOM      2  C   UNL A   1     -27.064  -0.119  28.608  0.00  0.00    +0.011 A 
ATOM      3  C   UNL A   1     -26.876   1.133  28.913  0.00  0.00    +0.058 A 
ATOM      4  C   UNL A   1     -27.901   1.807  29.644  0.00  0.00    +0.011 A 
ATOM      5  C   UNL A   1     -28.945   1.039  30.036  0.00  0.00    +0.005 A 
ATOM      6  C   UNL A   1     -29.027  -0.289  29.705  0.00  0.00    +0.071 A 
ATOM      7 CL   UNL A   1     -25.419   1.853  28.475  0.00  0.00    -0.082 Cl
ENDROOT
BRANCH   6   8
ATOM      8  C   UNL A   1     -30.172  -1.177  30.088  0.00  0.00    +0.419 C 
ATOM      9  F   UNL A   1     -30.697  -0.748  31.202  0.00  0.00    -0.166 F 
ATOM     10  F   UNL A   1     -31.109  -1.153  29.192  0.00  0.00    -0.166 F 
ATOM     11  F   UNL A   1     -29.767  -2.440  30.280  0.00  0.00    -0.166 F 
ENDBRANCH   6   8
TORSDOF 1
