REMARK  Name = No_4821-gen_results/8p0m/2024-11-26-14-13-15/
REMARK  2 active torsions:
REMARK  status: ('A' for Active; 'I' for Inactive)
REMARK    1  A    between atoms: C_2  and  C_7
REMARK    2  A    between atoms: N_9  and  C_10
REMARK                            x       y       z     vdW  Elec       q    Type
REMARK                         _______ _______ _______ _____ _____    ______ ____
ROOT
ATOM      1  C   UNL A   1     -30.061  -0.737  29.902  0.00  0.00    +0.269 C 
ATOM      2  O   UNL A   1     -30.552  -0.277  29.011  0.00  0.00    -0.268 OA
ATOM      3  N   UNL A   1     -30.710  -0.934  31.115  0.00  0.00    -0.175 NA
ENDROOT
BRANCH   1   5
ATOM      4  C   UNL A   1     -28.016  -0.814  28.878  0.00  0.00    +0.005 A 
ATOM      5  C   UNL A   1     -28.469  -0.785  29.829  0.00  0.00    +0.055 A 
ATOM      6  C   UNL A   1     -26.546  -0.876  28.850  0.00  0.00    +0.011 A 
ATOM      7  C   UNL A   1     -25.804  -1.032  30.057  0.00  0.00    +0.058 A 
ATOM      8  C   UNL A   1     -27.944  -0.987  31.207  0.00  0.00    +0.005 A 
ATOM      9  C   UNL A   1     -26.582  -1.039  31.223  0.00  0.00    +0.011 A 
ATOM     10 CL   UNL A   1     -24.134  -1.228  30.254  0.00  0.00    -0.082 Cl
ENDBRANCH   1   5
BRANCH   3  11
ATOM     11  C   UNL A   1     -32.141  -0.831  31.140  0.00  0.00    +0.074 A 
ATOM     12  C   UNL A   1     -32.848  -0.257  30.648  0.00  0.00    +0.017 A 
ATOM     13  C   UNL A   1     -33.822   0.124  30.584  0.00  0.00    +0.001 A 
ATOM     14  C   UNL A   1     -32.587  -1.715  32.312  0.00  0.00    +0.017 A 
ATOM     15  C   UNL A   1     -34.017  -1.525  32.511  0.00  0.00    +0.001 A 
ATOM     16  C   UNL A   1     -34.689  -0.606  31.684  0.00  0.00    +0.000 A 
ENDBRANCH   3  11
TORSDOF 2
