MODEL 4821
MODEL 1
REMARK VINA RESULT:    -5.818      0.000      0.000
REMARK INTER + INTRA:          -6.745
REMARK INTER:                  -6.498
REMARK INTRA:                  -0.247
REMARK UNBOUND:                -0.247
REMARK  Name = No_4821-gen_results/8p0m/2024-11-26-14-13-15/
REMARK  2 active torsions:
REMARK  status: ('A' for Active; 'I' for Inactive)
REMARK    1  A    between atoms: C_2  and  C_7
REMARK    2  A    between atoms: N_9  and  C_10
REMARK                            x       y       z     vdW  Elec       q    Type
REMARK                         _______ _______ _______ _____ _____    ______ ____
ROOT
ATOM      1  C   UNL A   1     -26.132   0.410  25.089  0.00  0.00    +0.269 C 
ATOM      2  O   UNL A   1     -25.581  -0.502  24.756  0.00  0.00    -0.268 OA
ATOM      3  N   UNL A   1     -25.779   1.146  26.214  0.00  0.00    -0.175 NA
ENDROOT
BRANCH   1   5
ATOM      4  C   UNL A   1     -28.086  -0.280  24.119  0.00  0.00    +0.005 A 
ATOM      5  C   UNL A   1     -27.576   0.585  24.438  0.00  0.00    +0.055 A 
ATOM      6  C   UNL A   1     -29.408  -0.078  23.506  0.00  0.00    +0.011 A 
ATOM      7  C   UNL A   1     -29.890   1.237  23.239  0.00  0.00    +0.058 A 
ATOM      8  C   UNL A   1     -27.822   2.039  24.232  0.00  0.00    +0.005 A 
ATOM      9  C   UNL A   1     -29.045   2.267  23.675  0.00  0.00    +0.011 A 
ATOM     10 CL   UNL A   1     -31.318   1.701  22.457  0.00  0.00    -0.082 Cl
ENDBRANCH   1   5
BRANCH   3  11
ATOM     11  C   UNL A   1     -24.487   0.917  26.794  0.00  0.00    +0.074 A 
ATOM     12  C   UNL A   1     -24.112   0.306  27.541  0.00  0.00    +0.017 A 
ATOM     13  C   UNL A   1     -23.352   0.069  28.223  0.00  0.00    +0.001 A 
ATOM     14  C   UNL A   1     -23.577   1.993  26.188  0.00  0.00    +0.017 A 
ATOM     15  C   UNL A   1     -22.287   1.934  26.860  0.00  0.00    +0.001 A 
ATOM     16  C   UNL A   1     -22.118   0.999  27.898  0.00  0.00    +0.000 A 
ENDBRANCH   3  11
TORSDOF 2
ENDMDL
ENDMDL
