MODEL 4822
MODEL 1
REMARK VINA RESULT:    -4.351      0.000      0.000
REMARK INTER + INTRA:          -4.351
REMARK INTER:                  -4.351
REMARK INTRA:                   0.000
REMARK UNBOUND:                 0.000
REMARK  Name = No_4822-gen_results/8p0m/2024-11-26-14-13-15/
REMARK  0 active torsions:
REMARK  status: ('A' for Active; 'I' for Inactive)
REMARK                            x       y       z     vdW  Elec       q    Type
REMARK                         _______ _______ _______ _____ _____    ______ ____
ROOT
ATOM      1  C   UNL A   1     -24.943  -5.382  29.026  0.00  0.00    +0.000 A 
ATOM      2  C   UNL A   1     -24.193  -4.717  28.702  0.00  0.00    +0.000 A 
ATOM      3  C   UNL A   1     -26.127  -4.708  29.572  0.00  0.00    +0.000 A 
ATOM      4  C   UNL A   1     -26.161  -3.395  29.803  0.00  0.00    +0.000 A 
ATOM      5  C   UNL A   1     -23.999  -3.296  28.860  0.00  0.00    +0.000 A 
ATOM      6  C   UNL A   1     -25.099  -2.691  29.392  0.00  0.00    +0.000 A 
ENDROOT
TORSDOF 0
ENDMDL
ENDMDL
