MODEL 4823
MODEL 1
REMARK VINA RESULT:    -6.789      0.000      0.000
REMARK INTER + INTRA:         -10.071
REMARK INTER:                  -9.170
REMARK INTRA:                  -0.901
REMARK UNBOUND:                -0.901
REMARK  Name = No_4823-gen_results/8p0m/2024-11-26-14-13-15/
REMARK  6 active torsions:
REMARK  status: ('A' for Active; 'I' for Inactive)
REMARK    1  A    between atoms: C_3  and  C_4
REMARK    2  A    between atoms: C_10  and  C_13
REMARK    3  A    between atoms: C_13  and  N_14
REMARK    4  A    between atoms: N_14  and  C_15
REMARK    5  A    between atoms: C_16  and  C_17
REMARK    6  A    between atoms: C_18  and  C_19
REMARK                            x       y       z     vdW  Elec       q    Type
REMARK                         _______ _______ _______ _____ _____    ______ ____
ROOT
ATOM      1  C   UNL A   1     -29.409 -10.128  32.533  0.00  0.00    -0.003 A 
ATOM      2  C   UNL A   1     -29.783 -10.107  31.383  0.00  0.00    -0.000 A 
ATOM      3  C   UNL A   1     -29.325 -11.042  30.462  0.00  0.00    -0.000 A 
ATOM      4  C   UNL A   1     -28.310 -10.977  32.981  0.00  0.00    -0.001 A 
ATOM      5  C   UNL A   1     -27.868 -12.005  32.172  0.00  0.00    -0.003 A 
ATOM      6  C   UNL A   1     -28.323 -12.027  30.847  0.00  0.00    -0.000 A 
ENDROOT
BRANCH   3   7
ATOM      7  C   UNL A   1     -29.700 -11.115  29.020  0.00  0.00    -0.000 A 
ATOM      8  C   UNL A   1     -28.940 -12.022  28.223  0.00  0.00    -0.000 A 
ATOM      9  C   UNL A   1     -29.184 -12.129  26.855  0.00  0.00    +0.000 A 
ATOM     10  C   UNL A   1     -30.088 -11.205  26.288  0.00  0.00    +0.000 A 
ATOM     11  C   UNL A   1     -30.806 -10.320  27.039  0.00  0.00    +0.000 A 
ATOM     12  C   UNL A   1     -30.581 -10.228  28.464  0.00  0.00    -0.000 A 
ENDBRANCH   3   7
BRANCH   4  13
ATOM     13  C   UNL A   1     -27.724 -11.096  34.348  0.00  0.00    +0.139 C 
BRANCH  13  14
ATOM     14  N   UNL A   1     -26.881 -10.481  34.645  0.00  0.00    -0.232 NA
BRANCH  14  15
ATOM     15  C   UNL A   1     -26.900  -9.235  35.000  0.00  0.00    +0.081 C 
ATOM     16  C   UNL A   1     -27.670  -8.753  35.789  0.00  0.00    +0.017 C 
BRANCH  16  17
ATOM     17  C   UNL A   1     -27.687  -7.727  36.309  0.00  0.00    +0.001 C 
ATOM     18  C   UNL A   1     -27.209  -7.346  37.684  0.00  0.00    -0.000 C 
BRANCH  18  19
ATOM     19  C   UNL A   1     -27.428  -6.191  38.364  0.00  0.00    -0.005 C 
ATOM     20  C   UNL A   1     -26.619  -5.971  39.510  0.00  0.00    -0.026 C 
ATOM     21  C   UNL A   1     -25.603  -6.799  39.815  0.00  0.00    +0.031 C 
ENDBRANCH  18  19
ENDBRANCH  16  17
ENDBRANCH  14  15
ENDBRANCH  13  14
ENDBRANCH   4  13
TORSDOF 6
ENDMDL
ENDMDL
