MODEL 4825
MODEL 1
REMARK VINA RESULT:    -5.944      0.000      0.000
REMARK INTER + INTRA:          -7.682
REMARK INTER:                  -7.334
REMARK INTRA:                  -0.348
REMARK UNBOUND:                -0.348
REMARK  Name = No_4825-gen_results/8p0m/2024-11-26-14-13-15/
REMARK  4 active torsions:
REMARK  status: ('A' for Active; 'I' for Inactive)
REMARK    1  A    between atoms: C_2  and  C_3
REMARK    2  A    between atoms: C_3  and  C_11
REMARK    3  A    between atoms: N_4  and  C_5
REMARK    4  A    between atoms: C_9  and  C_16
REMARK                            x       y       z     vdW  Elec       q    Type
REMARK                         _______ _______ _______ _____ _____    ______ ____
ROOT
ATOM      1  O   UNL A   1     -24.823  -0.522  27.497  0.00  0.00    -0.264 OA
ATOM      2  C   UNL A   1     -24.058  -0.351  28.335  0.00  0.00    +0.313 C 
ATOM      3  N   UNL A   1     -23.864  -1.508  29.239  0.00  0.00    -0.173 NA
ENDROOT
BRANCH   3   4
ATOM      4  C   UNL A   1     -24.290  -2.745  29.040  0.00  0.00    +0.074 A 
ATOM      5  C   UNL A   1     -23.863  -3.652  28.690  0.00  0.00    +0.017 A 
ATOM      6  C   UNL A   1     -24.167  -4.869  28.621  0.00  0.00    +0.001 A 
ATOM      7  C   UNL A   1     -25.508  -5.281  29.095  0.00  0.00    +0.002 A 
ATOM      8  C   UNL A   1     -26.183  -4.174  29.713  0.00  0.00    +0.022 A 
ATOM      9  C   UNL A   1     -25.632  -2.910  29.733  0.00  0.00    +0.018 A 
BRANCH   8  10
ATOM     10  C   UNL A   1     -27.521  -4.488  30.227  0.00  0.00    +0.122 C 
ATOM     11  N   UNL A   1     -28.551  -3.973  29.955  0.00  0.00    -0.146 NA
ENDBRANCH   8  10
ENDBRANCH   3   4
BRANCH   2  12
ATOM     12  C   UNL A   1     -23.388   0.723  28.514  0.00  0.00    +0.305 C 
ATOM     13  O   UNL A   1     -22.236   0.839  27.885  0.00  0.00    -0.277 OA
BRANCH  12  14
ATOM     14  C   UNL A   1     -23.861   1.688  29.269  0.00  0.00    +0.309 C 
ATOM     15  O   UNL A   1     -24.503   2.640  28.882  0.00  0.00    -0.265 OA
ATOM     16  N   UNL A   1     -23.740   1.638  30.669  0.00  0.00    -0.197 NA
ATOM     17  C   UNL A   1     -24.299   2.589  31.612  0.00  0.00    +0.139 C 
ENDBRANCH  12  14
ENDBRANCH   2  12
TORSDOF 4
ENDMDL
ENDMDL
