REMARK  Name = No_4825-gen_results/8p0m/2024-11-26-14-13-15/
REMARK  4 active torsions:
REMARK  status: ('A' for Active; 'I' for Inactive)
REMARK    1  A    between atoms: C_2  and  C_3
REMARK    2  A    between atoms: C_3  and  C_11
REMARK    3  A    between atoms: N_4  and  C_5
REMARK    4  A    between atoms: C_9  and  C_16
REMARK                            x       y       z     vdW  Elec       q    Type
REMARK                         _______ _______ _______ _____ _____    ______ ____
ROOT
ATOM      1  O   UNL A   1     -28.123  -1.335  28.487  0.00  0.00    -0.264 OA
ATOM      2  C   UNL A   1     -28.521  -0.436  29.078  0.00  0.00    +0.313 C 
ATOM      3  N   UNL A   1     -27.541   0.176  30.005  0.00  0.00    -0.173 NA
ENDROOT
BRANCH   3   4
ATOM      4  C   UNL A   1     -26.238  -0.053  30.040  0.00  0.00    +0.074 A 
ATOM      5  C   UNL A   1     -25.591  -0.700  30.579  0.00  0.00    +0.017 A 
ATOM      6  C   UNL A   1     -24.389  -1.063  30.551  0.00  0.00    +0.001 A 
ATOM      7  C   UNL A   1     -23.496  -0.447  29.543  0.00  0.00    +0.002 A 
ATOM      8  C   UNL A   1     -24.251   0.383  28.646  0.00  0.00    +0.022 A 
ATOM      9  C   UNL A   1     -25.601   0.603  28.826  0.00  0.00    +0.018 A 
BRANCH   8  10
ATOM     10  C   UNL A   1     -23.452   1.031  27.600  0.00  0.00    +0.122 C 
ATOM     11  N   UNL A   1     -23.061   2.147  27.561  0.00  0.00    -0.146 NA
ENDBRANCH   8  10
ENDBRANCH   3   4
BRANCH   2  12
ATOM     12  C   UNL A   1     -29.698   0.051  28.976  0.00  0.00    +0.305 C 
ATOM     13  O   UNL A   1     -29.866   1.090  28.183  0.00  0.00    -0.277 OA
BRANCH  12  14
ATOM     14  C   UNL A   1     -30.707  -0.499  29.613  0.00  0.00    +0.309 C 
ATOM     15  O   UNL A   1     -31.880  -0.262  29.421  0.00  0.00    -0.265 OA
ATOM     16  N   UNL A   1     -30.499  -1.532  30.544  0.00  0.00    -0.197 NA
ATOM     17  C   UNL A   1     -31.531  -2.280  31.239  0.00  0.00    +0.139 C 
ENDBRANCH  12  14
ENDBRANCH   2  12
TORSDOF 4
