REMARK  Name = No_4826-gen_results/8p0m/2024-11-26-14-13-15/
REMARK  1 active torsions:
REMARK  status: ('A' for Active; 'I' for Inactive)
REMARK    1  A    between atoms: C_5  and  C_8
REMARK                            x       y       z     vdW  Elec       q    Type
REMARK                         _______ _______ _______ _____ _____    ______ ____
ROOT
ATOM      1  C   UNL A   1     -30.031  -0.028  31.760  0.00  0.00    +0.080 C 
ATOM      2  N   UNL A   1     -29.886   0.801  32.635  0.00  0.00    -0.272 NA
ATOM      3  C   UNL A   1     -29.312   1.946  32.522  0.00  0.00    +0.072 C 
ATOM      4  C   UNL A   1     -28.645   2.604  33.091  0.00  0.00    +0.017 C 
ATOM      5  C   UNL A   1     -28.203   2.199  34.457  0.00  0.00    +0.003 C 
ATOM      6  C   UNL A   1     -28.770   1.077  34.905  0.00  0.00    +0.016 C 
ATOM      7  C   UNL A   1     -29.539   0.211  33.982  0.00  0.00    +0.058 C 
ATOM      8  C   UNL A   1     -30.976  -1.071  31.759  0.00  0.00    +0.021 C 
ATOM      9  C   UNL A   1     -30.014  -1.020  34.401  0.00  0.00    +0.016 C 
ATOM     10  C   UNL A   1     -30.744  -1.745  33.183  0.00  0.00    +0.003 C 
ENDROOT
BRANCH   1  15
ATOM     11  C   UNL A   1     -28.016  -0.814  28.878  0.00  0.00    +0.011 A 
ATOM     12  C   UNL A   1     -28.469  -0.785  29.829  0.00  0.00    -0.002 A 
ATOM     13  C   UNL A   1     -28.196   0.348  28.055  0.00  0.00    +0.058 A 
ATOM     14  C   UNL A   1     -29.019   1.350  28.378  0.00  0.00    +0.011 A 
ATOM     15  C   UNL A   1     -29.411   0.180  30.378  0.00  0.00    -0.008 A 
ATOM     16  C   UNL A   1     -29.606   1.250  29.619  0.00  0.00    -0.002 A 
ATOM     17 CL   UNL A   1     -27.336   0.378  26.521  0.00  0.00    -0.082 Cl
ENDBRANCH   1  15
TORSDOF 1
