MODEL 4826
MODEL 1
REMARK VINA RESULT:    -6.999      0.000      0.000
REMARK INTER + INTRA:          -7.794
REMARK INTER:                  -7.408
REMARK INTRA:                  -0.386
REMARK UNBOUND:                -0.386
REMARK  Name = No_4826-gen_results/8p0m/2024-11-26-14-13-15/
REMARK  1 active torsions:
REMARK  status: ('A' for Active; 'I' for Inactive)
REMARK    1  A    between atoms: C_5  and  C_8
REMARK                            x       y       z     vdW  Elec       q    Type
REMARK                         _______ _______ _______ _____ _____    ______ ____
ROOT
ATOM      1  C   UNL A   1     -25.575  -1.334  29.377  0.00  0.00    +0.080 C 
ATOM      2  N   UNL A   1     -25.156  -2.449  29.615  0.00  0.00    -0.272 NA
ATOM      3  C   UNL A   1     -24.150  -3.026  29.061  0.00  0.00    +0.072 C 
ATOM      4  C   UNL A   1     -23.854  -4.016  28.695  0.00  0.00    +0.017 C 
ATOM      5  C   UNL A   1     -24.793  -5.166  28.844  0.00  0.00    +0.003 C 
ATOM      6  C   UNL A   1     -25.903  -4.880  29.529  0.00  0.00    +0.016 C 
ATOM      7  C   UNL A   1     -26.244  -3.473  29.841  0.00  0.00    +0.058 C 
ATOM      8  C   UNL A   1     -26.390  -0.561  30.224  0.00  0.00    +0.021 C 
ATOM      9  C   UNL A   1     -27.456  -3.155  30.428  0.00  0.00    +0.016 C 
ATOM     10  C   UNL A   1     -27.566  -1.572  30.586  0.00  0.00    +0.003 C 
ENDROOT
BRANCH   1  15
ATOM     11  C   UNL A   1     -23.294   0.984  27.825  0.00  0.00    +0.011 A 
ATOM     12  C   UNL A   1     -23.853   0.402  28.502  0.00  0.00    -0.002 A 
ATOM     13  C   UNL A   1     -23.801   1.058  26.484  0.00  0.00    +0.058 A 
ATOM     14  C   UNL A   1     -24.821   0.312  26.048  0.00  0.00    +0.011 A 
ATOM     15  C   UNL A   1     -24.970  -0.498  28.249  0.00  0.00    -0.008 A 
ATOM     16  C   UNL A   1     -25.436  -0.459  27.008  0.00  0.00    -0.002 A 
ATOM     17 CL   UNL A   1     -22.961   2.132  25.374  0.00  0.00    -0.082 Cl
ENDBRANCH   1  15
TORSDOF 1
ENDMDL
ENDMDL
