REMARK  Name = No_4827-gen_results/8p0m/2024-11-26-14-13-15/
REMARK  5 active torsions:
REMARK  status: ('A' for Active; 'I' for Inactive)
REMARK    1  A    between atoms: C_2  and  N_7
REMARK    2  A    between atoms: N_7  and  C_8
REMARK    3  A    between atoms: N_7  and  C_14
REMARK    4  A    between atoms: C_22  and  C_25
REMARK    5  A    between atoms: N_26  and  C_27
REMARK                            x       y       z     vdW  Elec       q    Type
REMARK                         _______ _______ _______ _____ _____    ______ ____
ROOT
ATOM      1  N   UNL A   1     -29.981  -0.849  30.037  0.00  0.00    -0.266 N 
ENDROOT
BRANCH   1   2
ATOM      2  C   UNL A   1     -30.505  -1.916  30.869  0.00  0.00    +0.056 A 
ATOM      3  C   UNL A   1     -30.800  -1.626  32.161  0.00  0.00    +0.015 A 
ATOM      4  C   UNL A   1     -31.378  -2.604  32.950  0.00  0.00    +0.001 A 
ATOM      5  C   UNL A   1     -31.636  -3.864  32.369  0.00  0.00    +0.000 A 
ATOM      6  C   UNL A   1     -31.369  -4.111  31.060  0.00  0.00    +0.001 A 
ATOM      7  C   UNL A   1     -30.808  -3.098  30.287  0.00  0.00    +0.014 A 
ATOM      8  C   UNL A   1     -31.673  -5.397  30.482  0.00  0.00    +0.002 A 
ATOM      9  C   UNL A   1     -31.443  -5.542  29.148  0.00  0.00    +0.019 A 
ATOM     10  C   UNL A   1     -30.856  -4.545  28.391  0.00  0.00    +0.002 A 
ATOM     11  C   UNL A   1     -30.568  -3.305  28.944  0.00  0.00    +0.001 A 
BRANCH   9  12
ATOM     12  C   UNL A   1     -31.700  -6.870  28.483  0.00  0.00    +0.093 C 
ATOM     13  N   UNL A   1     -31.498  -7.028  27.207  0.00  0.00    -0.269 NA
BRANCH  13  14
ATOM     14  C   UNL A   1     -31.608  -8.244  26.612  0.00  0.00    +0.126 C 
ATOM     15  C   UNL A   1     -31.221  -8.312  25.222  0.00  0.00    +0.028 C 
ENDBRANCH  13  14
ENDBRANCH   9  12
ENDBRANCH   1   2
BRANCH   1  17
ATOM     16  C   UNL A   1     -28.016  -0.814  28.878  0.00  0.00    +0.045 A 
ATOM     17  C   UNL A   1     -28.469  -0.785  29.829  0.00  0.00    +0.058 A 
ATOM     18  C   UNL A   1     -26.504  -0.778  28.877  0.00  0.00    +0.141 A 
ATOM     19  C   UNL A   1     -25.810  -0.853  30.103  0.00  0.00    +0.030 A 
ATOM     20  C   UNL A   1     -27.991  -0.892  31.226  0.00  0.00    +0.015 A 
ATOM     21  C   UNL A   1     -26.604  -0.868  31.265  0.00  0.00    +0.004 A 
ATOM     22  F   UNL A   1     -25.759  -0.735  27.772  0.00  0.00    -0.204 F 
ENDBRANCH   1  17
BRANCH   1  23
ATOM     23  C   UNL A   1     -30.703  -0.024  29.309  0.00  0.00    +0.056 A 
ATOM     24  C   UNL A   1     -30.333   0.935  28.770  0.00  0.00    +0.015 A 
ATOM     25  C   UNL A   1     -31.223   1.777  27.857  0.00  0.00    +0.001 A 
ATOM     26  C   UNL A   1     -32.516   1.319  27.746  0.00  0.00    +0.000 A 
ATOM     27  C   UNL A   1     -32.079  -0.471  29.114  0.00  0.00    +0.015 A 
ATOM     28  C   UNL A   1     -32.922   0.206  28.375  0.00  0.00    +0.001 A 
ENDBRANCH   1  23
TORSDOF 5
