MODEL 4827
MODEL 1
REMARK VINA RESULT:    -8.456      0.000      0.000
REMARK INTER + INTRA:         -11.849
REMARK INTER:                 -10.928
REMARK INTRA:                  -0.921
REMARK UNBOUND:                -0.921
REMARK  Name = No_4827-gen_results/8p0m/2024-11-26-14-13-15/
REMARK  5 active torsions:
REMARK  status: ('A' for Active; 'I' for Inactive)
REMARK    1  A    between atoms: C_2  and  N_7
REMARK    2  A    between atoms: N_7  and  C_8
REMARK    3  A    between atoms: N_7  and  C_14
REMARK    4  A    between atoms: C_22  and  C_25
REMARK    5  A    between atoms: N_26  and  C_27
REMARK                            x       y       z     vdW  Elec       q    Type
REMARK                         _______ _______ _______ _____ _____    ______ ____
ROOT
ATOM      1  N   UNL A   1     -24.226  -1.410  29.751  0.00  0.00    -0.266 N 
ENDROOT
BRANCH   1   2
ATOM      2  C   UNL A   1     -23.691  -0.382  28.878  0.00  0.00    +0.056 A 
ATOM      3  C   UNL A   1     -22.399  -0.009  29.055  0.00  0.00    +0.015 A 
ATOM      4  C   UNL A   1     -21.844   0.909  28.182  0.00  0.00    +0.001 A 
ATOM      5  C   UNL A   1     -22.652   1.414  27.141  0.00  0.00    +0.000 A 
ATOM      6  C   UNL A   1     -23.930   0.989  26.964  0.00  0.00    +0.001 A 
ATOM      7  C   UNL A   1     -24.453   0.048  27.847  0.00  0.00    +0.014 A 
ATOM      8  C   UNL A   1     -24.725   1.497  25.873  0.00  0.00    +0.002 A 
ATOM      9  C   UNL A   1     -25.970   0.968  25.720  0.00  0.00    +0.019 A 
ATOM     10  C   UNL A   1     -26.497   0.058  26.617  0.00  0.00    +0.002 A 
ATOM     11  C   UNL A   1     -25.732  -0.437  27.664  0.00  0.00    +0.001 A 
BRANCH   9  12
ATOM     12  C   UNL A   1     -26.872   1.478  24.625  0.00  0.00    +0.093 C 
ATOM     13  N   UNL A   1     -28.166   1.474  24.770  0.00  0.00    -0.269 NA
BRANCH  13  14
ATOM     14  C   UNL A   1     -28.989   2.038  23.848  0.00  0.00    +0.126 C 
ATOM     15  C   UNL A   1     -30.077   1.214  23.375  0.00  0.00    +0.028 C 
ENDBRANCH  13  14
ENDBRANCH   9  12
ENDBRANCH   1   2
BRANCH   1  17
ATOM     16  C   UNL A   1     -25.564  -0.388  31.291  0.00  0.00    +0.045 A 
ATOM     17  C   UNL A   1     -24.710  -0.987  31.137  0.00  0.00    +0.058 A 
ATOM     18  C   UNL A   1     -25.862  -0.042  32.733  0.00  0.00    +0.141 A 
ATOM     19  C   UNL A   1     -24.938  -0.402  33.736  0.00  0.00    +0.030 A 
ATOM     20  C   UNL A   1     -23.588  -1.457  31.980  0.00  0.00    +0.015 A 
ATOM     21  C   UNL A   1     -23.824  -1.151  33.313  0.00  0.00    +0.004 A 
ATOM     22  F   UNL A   1     -26.935   0.643  33.129  0.00  0.00    -0.204 F 
ENDBRANCH   1  17
BRANCH   1  23
ATOM     23  C   UNL A   1     -24.484  -2.652  29.400  0.00  0.00    +0.056 A 
ATOM     24  C   UNL A   1     -23.776  -3.377  28.834  0.00  0.00    +0.015 A 
ATOM     25  C   UNL A   1     -24.123  -4.840  28.561  0.00  0.00    +0.001 A 
ATOM     26  C   UNL A   1     -25.363  -5.224  29.018  0.00  0.00    +0.000 A 
ATOM     27  C   UNL A   1     -25.770  -3.141  29.889  0.00  0.00    +0.015 A 
ATOM     28  C   UNL A   1     -26.164  -4.370  29.672  0.00  0.00    +0.001 A 
ENDBRANCH   1  23
TORSDOF 5
ENDMDL
ENDMDL
