REMARK  Name = No_4828-gen_results/8p0m/2024-11-26-14-13-15/
REMARK  3 active torsions:
REMARK  status: ('A' for Active; 'I' for Inactive)
REMARK    1  A    between atoms: C_1  and  C_3
REMARK    2  A    between atoms: C_10  and  C_11
REMARK    3  A    between atoms: C_14  and  C_15
REMARK                            x       y       z     vdW  Elec       q    Type
REMARK                         _______ _______ _______ _____ _____    ______ ____
ROOT
ATOM      1  C   UNL A   1     -28.182   0.428  28.113  0.00  0.00    -0.000 A 
ATOM      2  C   UNL A   1     -29.352   0.604  27.404  0.00  0.00    -0.000 A 
ATOM      3  C   UNL A   1     -29.408   1.388  26.358  0.00  0.00    -0.000 A 
ATOM      4  C   UNL A   1     -27.082   1.230  27.653  0.00  0.00    -0.000 A 
ATOM      5  C   UNL A   1     -27.157   2.246  26.748  0.00  0.00    -0.000 A 
ATOM      6  C   UNL A   1     -28.437   2.447  26.139  0.00  0.00    -0.000 A 
ENDROOT
BRANCH   1   7
ATOM      7  C   UNL A   1     -28.016  -0.814  28.878  0.00  0.00    -0.000 A 
ATOM      8  C   UNL A   1     -28.469  -0.785  29.829  0.00  0.00    -0.000 A 
ATOM      9  C   UNL A   1     -28.373  -1.969  30.733  0.00  0.00    +0.000 A 
ATOM     10  C   UNL A   1     -27.516  -3.022  30.302  0.00  0.00    +0.000 A 
ATOM     11  C   UNL A   1     -26.638  -2.798  29.315  0.00  0.00    +0.000 A 
ATOM     12  C   UNL A   1     -26.782  -1.595  28.613  0.00  0.00    -0.000 A 
ENDBRANCH   1   7
BRANCH   4  13
ATOM     13  C   UNL A   1     -25.711   1.048  28.299  0.00  0.00    -0.005 C 
ATOM     14  C   UNL A   1     -24.580   0.922  27.489  0.00  0.00    -0.026 C 
BRANCH  14  15
ATOM     15  C   UNL A   1     -23.353   0.888  28.101  0.00  0.00    +0.026 C 
ATOM     16  C   UNL A   1     -22.114   1.013  27.376  0.00  0.00    +0.005 C 
ENDBRANCH  14  15
ENDBRANCH   4  13
TORSDOF 3
