MODEL 4829
MODEL 1
REMARK VINA RESULT:    -4.289      0.000      0.000
REMARK INTER + INTRA:          -4.289
REMARK INTER:                  -4.289
REMARK INTRA:                   0.000
REMARK UNBOUND:                 0.000
REMARK  Name = No_4829-gen_results/8p0m/2024-11-26-14-13-15/
REMARK  0 active torsions:
REMARK  status: ('A' for Active; 'I' for Inactive)
REMARK                            x       y       z     vdW  Elec       q    Type
REMARK                         _______ _______ _______ _____ _____    ______ ____
ROOT
ATOM      1  C   UNL A   1     -26.207  -3.329  29.882  0.00  0.00    +0.007 A 
ATOM      2  C   UNL A   1     -25.414  -2.738  29.520  0.00  0.00    +0.035 A 
ATOM      3  C   UNL A   1     -26.127  -4.774  29.613  0.00  0.00    +0.001 A 
ATOM      4  C   UNL A   1     -24.960  -5.337  29.019  0.00  0.00    +0.000 A 
ATOM      5  C   UNL A   1     -24.086  -3.072  28.936  0.00  0.00    +0.007 A 
ATOM      6  C   UNL A   1     -23.978  -4.403  28.663  0.00  0.00    +0.001 A 
ATOM      7 BR   UNL A   1     -25.495  -0.789  29.882  0.00  0.00    -0.049 Br
ENDROOT
TORSDOF 0
ENDMDL
ENDMDL
