MODEL 482
MODEL 1
REMARK VINA RESULT:    -8.043      0.000      0.000
REMARK INTER + INTRA:         -12.271
REMARK INTER:                 -10.865
REMARK INTRA:                  -1.407
REMARK UNBOUND:                -1.407
REMARK  Name = No_482-gen_results/8p0m/2024-11-26-14-13-15/
REMARK  6 active torsions:
REMARK  status: ('A' for Active; 'I' for Inactive)
REMARK    1  A    between atoms: C_2  and  C_7
REMARK    2  A    between atoms: C_6  and  C_13
REMARK    3  A    between atoms: C_11  and  C_24
REMARK    4  A    between atoms: C_16  and  C_17
REMARK    5  A    between atoms: C_24  and  C_25
REMARK    6  A    between atoms: C_26  and  C_27
REMARK                            x       y       z     vdW  Elec       q    Type
REMARK                         _______ _______ _______ _____ _____    ______ ____
ROOT
ATOM      1  C   UNL A   1     -11.669   2.241  35.144  0.00  0.00    +0.005 A 
ATOM      2  C   UNL A   1     -12.873   2.227  35.041  0.00  0.00    +0.000 A 
ATOM      3  C   UNL A   1     -13.493   1.654  33.937  0.00  0.00    +0.000 A 
ATOM      4  C   UNL A   1     -12.717   1.098  32.857  0.00  0.00    +0.000 A 
ATOM      5  C   UNL A   1     -11.332   1.178  33.048  0.00  0.00    +0.005 A 
ATOM      6  C   UNL A   1     -10.795   1.746  34.103  0.00  0.00    +0.056 A 
ENDROOT
BRANCH   2   7
ATOM      7  C   UNL A   1     -13.827   2.777  36.042  0.00  0.00    -0.000 A 
ATOM      8  C   UNL A   1     -14.918   3.301  35.881  0.00  0.00    -0.000 A 
ATOM      9  C   UNL A   1     -13.361   2.613  37.430  0.00  0.00    -0.004 A 
ATOM     10  C   UNL A   1     -15.865   3.730  36.767  0.00  0.00    -0.000 A 
ATOM     11  C   UNL A   1     -14.206   3.076  38.468  0.00  0.00    -0.018 A 
ATOM     12  C   UNL A   1     -15.477   3.655  38.129  0.00  0.00    -0.004 A 
BRANCH  11  13
ATOM     13  C   UNL A   1     -13.806   2.957  39.837  0.00  0.00    +0.052 C 
BRANCH  13  14
ATOM     14  C   UNL A   1     -12.894   1.933  40.128  0.00  0.00    -0.021 C 
ATOM     15  C   UNL A   1     -13.208   0.933  40.989  0.00  0.00    -0.005 C 
BRANCH  15  16
ATOM     16  C   UNL A   1     -12.248  -0.105  41.263  0.00  0.00    -0.005 C 
ATOM     17  C   UNL A   1     -12.200  -1.174  40.360  0.00  0.00    -0.026 C 
ATOM     18  C   UNL A   1     -11.296  -2.228  40.504  0.00  0.00    +0.031 C 
ENDBRANCH  15  16
ENDBRANCH  13  14
ENDBRANCH  11  13
ENDBRANCH   2   7
BRANCH   6  19
ATOM     19  C   UNL A   1      -9.317   1.825  34.124  0.00  0.00    +0.272 C 
ATOM     20  N   UNL A   1      -8.556   1.081  34.910  0.00  0.00    -0.137 NA
ATOM     21  O   UNL A   1      -8.747   2.702  33.433  0.00  0.00    -0.268 OA
ATOM     22  C   UNL A   1      -7.119   1.200  35.071  0.00  0.00    +0.272 C 
ATOM     23  O   UNL A   1      -6.795   2.248  35.600  0.00  0.00    -0.268 OA
BRANCH  22  24
ATOM     24  C   UNL A   1      -6.464   0.047  34.925  0.00  0.00    +0.056 A 
ATOM     25  C   UNL A   1      -6.994  -1.027  34.565  0.00  0.00    +0.005 A 
ATOM     26  C   UNL A   1      -6.203  -2.244  34.254  0.00  0.00    +0.000 A 
ATOM     27  C   UNL A   1      -4.850  -2.230  34.561  0.00  0.00    +0.000 A 
ATOM     28  C   UNL A   1      -4.962   0.035  35.010  0.00  0.00    +0.005 A 
ATOM     29  C   UNL A   1      -4.248  -1.061  34.863  0.00  0.00    +0.000 A 
ENDBRANCH  22  24
ENDBRANCH   6  19
TORSDOF 6
ENDMDL
ENDMDL
