REMARK  Name = No_483-gen_results/8p0m/2024-11-26-14-13-15/
REMARK  4 active torsions:
REMARK  status: ('A' for Active; 'I' for Inactive)
REMARK    1  A    between atoms: C_2  and  C_9
REMARK    2  A    between atoms: C_4  and  C_15
REMARK    3  A    between atoms: C_15  and  C_16
REMARK    4  A    between atoms: C_16  and  C_18
REMARK                            x       y       z     vdW  Elec       q    Type
REMARK                         _______ _______ _______ _____ _____    ______ ____
ROOT
ATOM      1  C   UNL A   1     -28.016  -0.814  28.878  0.00  0.00    +0.003 A 
ATOM      2  C   UNL A   1     -27.064  -0.119  28.608  0.00  0.00    +0.010 A 
ATOM      3  C   UNL A   1     -26.972   0.714  27.506  0.00  0.00    +0.056 A 
ATOM      4  C   UNL A   1     -28.105   0.774  26.642  0.00  0.00    +0.016 A 
ATOM      5  C   UNL A   1     -29.204   0.118  27.048  0.00  0.00    +0.137 A 
ATOM      6  C   UNL A   1     -29.213  -0.609  28.128  0.00  0.00    +0.029 A 
ATOM      7 CL   UNL A   1     -25.537   1.580  27.078  0.00  0.00    -0.083 Cl
ATOM      8  F   UNL A   1     -30.262   0.220  26.244  0.00  0.00    -0.204 F 
ENDROOT
BRANCH   2   9
ATOM      9  C   UNL A   1     -25.836  -0.234  29.606  0.00  0.00    +0.001 A 
ATOM     10  C   UNL A   1     -25.274  -1.387  29.798  0.00  0.00    +0.000 A 
ATOM     11  C   UNL A   1     -24.134  -1.507  30.621  0.00  0.00    +0.000 A 
ATOM     12  C   UNL A   1     -23.573  -0.335  31.211  0.00  0.00    +0.000 A 
ATOM     13  C   UNL A   1     -24.128   0.900  30.883  0.00  0.00    +0.000 A 
ATOM     14  C   UNL A   1     -25.287   0.954  30.047  0.00  0.00    +0.000 A 
ENDBRANCH   2   9
BRANCH   4  15
ATOM     15  C   UNL A   1     -28.201   1.635  25.467  0.00  0.00    +0.030 C 
ATOM     16  C   UNL A   1     -28.466   1.004  24.268  0.00  0.00    +0.005 C 
BRANCH  15  17
ATOM     17  C   UNL A   1     -27.810   2.775  25.523  0.00  0.00    +0.031 C 
BRANCH  17  18
ATOM     18  C   UNL A   1     -28.368   3.869  25.904  0.00  0.00    -0.022 A 
ATOM     19  C   UNL A   1     -29.793   3.981  26.072  0.00  0.00    -0.004 A 
ATOM     20  C   UNL A   1     -30.413   5.175  26.493  0.00  0.00    -0.000 A 
ATOM     21  C   UNL A   1     -29.596   6.210  26.959  0.00  0.00    -0.000 A 
ATOM     22  C   UNL A   1     -28.226   6.220  26.870  0.00  0.00    -0.000 A 
ATOM     23  C   UNL A   1     -27.648   5.124  26.403  0.00  0.00    -0.004 A 
ENDBRANCH  17  18
ENDBRANCH  15  17
ENDBRANCH   4  15
TORSDOF 4
