MODEL 4830
MODEL 1
REMARK VINA RESULT:    -7.466      0.000      0.000
REMARK INTER + INTRA:          -9.399
REMARK INTER:                  -8.776
REMARK INTRA:                  -0.624
REMARK UNBOUND:                -0.624
REMARK  Name = No_4830-gen_results/8p0m/2024-11-26-14-13-15/
REMARK  3 active torsions:
REMARK  status: ('A' for Active; 'I' for Inactive)
REMARK    1  A    between atoms: C_2  and  C_7
REMARK    2  A    between atoms: C_4  and  O_12
REMARK    3  A    between atoms: O_12  and  C_13
REMARK                            x       y       z     vdW  Elec       q    Type
REMARK                         _______ _______ _______ _____ _____    ______ ____
ROOT
ATOM      1  C   UNL A   1     -23.111   1.450  27.621  0.00  0.00    +0.014 A 
ATOM      2  C   UNL A   1     -23.599   1.402  26.688  0.00  0.00    +0.072 A 
ATOM      3  C   UNL A   1     -23.671   0.542  28.694  0.00  0.00    +0.069 A 
ATOM      4  C   UNL A   1     -24.679  -0.386  28.357  0.00  0.00    +0.151 A 
ATOM      5  C   UNL A   1     -24.622   0.522  26.079  0.00  0.00    +0.007 A 
ATOM      6  C   UNL A   1     -25.156  -0.331  27.034  0.00  0.00    +0.038 A 
ATOM      7 BR   UNL A   1     -23.092   0.482  30.483  0.00  0.00    -0.046 Br
ENDROOT
BRANCH   2   8
ATOM      8  C   UNL A   1     -23.017   2.345  25.525  0.00  0.00    +0.419 C 
ATOM      9  F   UNL A   1     -23.423   3.409  25.420  0.00  0.00    -0.166 F 
ATOM     10  F   UNL A   1     -23.260   1.611  24.394  0.00  0.00    -0.166 F 
ATOM     11  F   UNL A   1     -21.675   2.335  25.575  0.00  0.00    -0.166 F 
ENDBRANCH   2   8
BRANCH   4  12
ATOM     12  O   UNL A   1     -25.256  -1.186  29.232  0.00  0.00    -0.453 OA
BRANCH  12  13
ATOM     13  C   UNL A   1     -25.122  -2.486  29.207  0.00  0.00    +0.145 A 
ATOM     14  C   UNL A   1     -26.360  -3.116  29.812  0.00  0.00    +0.037 A 
ATOM     15  C   UNL A   1     -26.486  -4.560  29.741  0.00  0.00    +0.003 A 
ATOM     16  C   UNL A   1     -25.369  -5.247  29.314  0.00  0.00    +0.000 A 
ATOM     17  C   UNL A   1     -24.158  -4.681  28.854  0.00  0.00    +0.003 A 
ATOM     18  C   UNL A   1     -24.080  -3.246  28.881  0.00  0.00    +0.037 A 
ENDBRANCH  12  13
ENDBRANCH   4  12
TORSDOF 3
ENDMDL
ENDMDL
