MODEL 4831
MODEL 1
REMARK VINA RESULT:    -7.053      0.000      0.000
REMARK INTER + INTRA:         -10.310
REMARK INTER:                  -9.527
REMARK INTRA:                  -0.783
REMARK UNBOUND:                -0.783
REMARK  Name = No_4831-gen_results/8p0m/2024-11-26-14-13-15/
REMARK  6 active torsions:
REMARK  status: ('A' for Active; 'I' for Inactive)
REMARK    1  A    between atoms: N_1  and  C_8
REMARK    2  A    between atoms: C_3  and  C_14
REMARK    3  A    between atoms: C_9  and  O_22
REMARK    4  A    between atoms: C_16  and  C_19
REMARK    5  A    between atoms: C_19  and  O_20
REMARK    6  A    between atoms: O_22  and  C_23
REMARK                            x       y       z     vdW  Elec       q    Type
REMARK                         _______ _______ _______ _____ _____    ______ ____
ROOT
ATOM      1  N   UNL A   1     -23.587   0.621  28.482  0.00  0.00    -0.256 N 
ATOM      2  C   UNL A   1     -24.604   0.725  27.793  0.00  0.00    +0.229 C 
ATOM      3  C   UNL A   1     -24.550   1.401  26.586  0.00  0.00    +0.083 C 
ATOM      4  C   UNL A   1     -23.326   1.729  26.054  0.00  0.00    +0.011 C 
ATOM      5  C   UNL A   1     -22.270   1.886  26.930  0.00  0.00    +0.022 C 
ATOM      6  C   UNL A   1     -22.341   1.138  28.097  0.00  0.00    +0.098 C 
ATOM      7  O   UNL A   1     -25.788   0.276  28.228  0.00  0.00    -0.275 OA
ENDROOT
BRANCH   1   8
ATOM      8  C   UNL A   1     -23.662   0.141  29.883  0.00  0.00    +0.089 A 
ATOM      9  C   UNL A   1     -23.701  -1.203  30.125  0.00  0.00    +0.159 A 
ATOM     10  C   UNL A   1     -24.203  -1.552  31.292  0.00  0.00    +0.039 A 
ATOM     11  C   UNL A   1     -24.523  -0.561  32.185  0.00  0.00    +0.003 A 
ATOM     12  C   UNL A   1     -24.159   0.608  31.939  0.00  0.00    +0.002 A 
ATOM     13  C   UNL A   1     -23.931   1.156  30.750  0.00  0.00    +0.018 A 
BRANCH   9  14
ATOM     14  O   UNL A   1     -23.527  -2.094  29.103  0.00  0.00    -0.450 OA
BRANCH  14  15
ATOM     15  C   UNL A   1     -24.188  -3.258  29.241  0.00  0.00    +0.175 C 
ATOM     16  C   UNL A   1     -24.041  -4.212  28.667  0.00  0.00    +0.015 C 
ATOM     17  C   UNL A   1     -24.805  -5.409  28.853  0.00  0.00    +0.034 C 
ENDBRANCH  14  15
ENDBRANCH   9  14
ENDBRANCH   1   8
BRANCH   3  18
ATOM     18  C   UNL A   1     -25.713   1.343  25.592  0.00  0.00    +0.053 C 
ATOM     19  C   UNL A   1     -26.574   1.998  25.518  0.00  0.00    -0.010 C 
ATOM     20  C   UNL A   1     -27.624   1.907  24.529  0.00  0.00    +0.069 C 
ATOM     21  N   UNL A   1     -27.477   0.607  24.065  0.00  0.00    -0.239 NA
ATOM     22  C   UNL A   1     -26.061   0.127  24.811  0.00  0.00    +0.117 C 
BRANCH  20  23
ATOM     23  C   UNL A   1     -28.751   2.575  24.076  0.00  0.00    +0.184 C 
BRANCH  23  24
ATOM     24  O   UNL A   1     -29.574   1.862  23.324  0.00  0.00    -0.345 OA
ATOM     25  C   UNL A   1     -30.672   2.363  22.870  0.00  0.00    +0.175 C 
ENDBRANCH  23  24
ENDBRANCH  20  23
ENDBRANCH   3  18
TORSDOF 6
ENDMDL
ENDMDL
