REMARK  Name = No_4831-gen_results/8p0m/2024-11-26-14-13-15/
REMARK  6 active torsions:
REMARK  status: ('A' for Active; 'I' for Inactive)
REMARK    1  A    between atoms: N_1  and  C_8
REMARK    2  A    between atoms: C_3  and  C_14
REMARK    3  A    between atoms: C_9  and  O_22
REMARK    4  A    between atoms: C_16  and  C_19
REMARK    5  A    between atoms: C_19  and  O_20
REMARK    6  A    between atoms: O_22  and  C_23
REMARK                            x       y       z     vdW  Elec       q    Type
REMARK                         _______ _______ _______ _____ _____    ______ ____
ROOT
ATOM      1  N   UNL A   1     -28.054  -1.050  28.725  0.00  0.00    -0.256 N 
ATOM      2  C   UNL A   1     -26.966  -0.472  28.771  0.00  0.00    +0.229 C 
ATOM      3  C   UNL A   1     -25.929  -1.020  29.506  0.00  0.00    +0.083 C 
ATOM      4  C   UNL A   1     -26.039  -2.310  29.965  0.00  0.00    +0.011 C 
ATOM      5  C   UNL A   1     -27.310  -2.808  30.173  0.00  0.00    +0.022 C 
ATOM      6  C   UNL A   1     -28.305  -2.272  29.367  0.00  0.00    +0.098 C 
ATOM      7  O   UNL A   1     -26.790   0.726  28.199  0.00  0.00    -0.275 OA
ENDROOT
BRANCH   1   8
ATOM      8  C   UNL A   1     -29.253  -0.373  28.174  0.00  0.00    +0.089 A 
ATOM      9  C   UNL A   1     -30.342  -0.189  28.978  0.00  0.00    +0.159 A 
ATOM     10  C   UNL A   1     -31.485  -0.006  28.348  0.00  0.00    +0.039 A 
ATOM     11  C   UNL A   1     -31.464   0.099  26.980  0.00  0.00    +0.003 A 
ATOM     12  C   UNL A   1     -30.360   0.205  26.404  0.00  0.00    +0.002 A 
ATOM     13  C   UNL A   1     -29.179  -0.238  26.821  0.00  0.00    +0.018 A 
BRANCH   9  14
ATOM     14  O   UNL A   1     -30.277  -0.492  30.309  0.00  0.00    -0.450 OA
BRANCH  14  15
ATOM     15  C   UNL A   1     -30.031   0.552  31.122  0.00  0.00    +0.175 C 
ATOM     16  C   UNL A   1     -30.496   1.574  31.100  0.00  0.00    +0.015 C 
ATOM     17  C   UNL A   1     -30.163   2.648  31.987  0.00  0.00    +0.034 C 
ENDBRANCH  14  15
ENDBRANCH   9  14
ENDBRANCH   1   8
BRANCH   3  18
ATOM     18  C   UNL A   1     -24.503  -0.474  29.393  0.00  0.00    +0.053 C 
ATOM     19  C   UNL A   1     -24.059   0.099  28.586  0.00  0.00    -0.010 C 
ATOM     20  C   UNL A   1     -22.709   0.615  28.558  0.00  0.00    +0.069 C 
ATOM     21  N   UNL A   1     -22.080  -0.156  29.526  0.00  0.00    -0.239 NA
ATOM     22  C   UNL A   1     -23.364  -0.989  30.198  0.00  0.00    +0.117 C 
BRANCH  20  23
ATOM     23  C   UNL A   1     -21.870   1.424  27.807  0.00  0.00    +0.184 C 
BRANCH  23  24
ATOM     24  O   UNL A   1     -22.379   1.879  26.674  0.00  0.00    -0.345 OA
ATOM     25  C   UNL A   1     -23.653   1.978  26.503  0.00  0.00    +0.175 C 
ENDBRANCH  23  24
ENDBRANCH  20  23
ENDBRANCH   3  18
TORSDOF 6
