MODEL 4832
MODEL 1
REMARK VINA RESULT:    -5.360      0.000      0.000
REMARK INTER + INTRA:          -6.162
REMARK INTER:                  -5.987
REMARK INTRA:                  -0.175
REMARK UNBOUND:                -0.175
REMARK  Name = No_4832-gen_results/8p0m/2024-11-26-14-13-15/
REMARK  2 active torsions:
REMARK  status: ('A' for Active; 'I' for Inactive)
REMARK    1  A    between atoms: C_5  and  C_7
REMARK    2  A    between atoms: C_7  and  N_8
REMARK                            x       y       z     vdW  Elec       q    Type
REMARK                         _______ _______ _______ _____ _____    ______ ____
ROOT
ATOM      1  C   UNL A   1     -24.175  -4.996  28.639  0.00  0.00    +0.000 A 
ATOM      2  C   UNL A   1     -25.272  -5.318  29.031  0.00  0.00    +0.000 A 
ATOM      3  C   UNL A   1     -26.146  -4.449  29.655  0.00  0.00    +0.000 A 
ATOM      4  C   UNL A   1     -25.744  -3.093  29.807  0.00  0.00    +0.005 A 
ATOM      5  C   UNL A   1     -24.585  -2.744  29.202  0.00  0.00    +0.055 A 
ATOM      6  C   UNL A   1     -23.830  -3.637  28.590  0.00  0.00    +0.005 A 
ENDROOT
BRANCH   5   7
ATOM      7  C   UNL A   1     -24.198  -1.325  29.344  0.00  0.00    +0.269 C 
ATOM      8  O   UNL A   1     -24.830  -0.628  30.211  0.00  0.00    -0.268 OA
BRANCH   7   9
ATOM      9  N   UNL A   1     -23.084  -1.026  28.997  0.00  0.00    -0.179 NA
ATOM     10  C   UNL A   1     -22.335  -0.368  29.262  0.00  0.00    +0.063 C 
ATOM     11  C   UNL A   1     -20.989  -0.115  28.651  0.00  0.00    +0.050 C 
ENDBRANCH   7   9
ENDBRANCH   5   7
TORSDOF 2
ENDMDL
ENDMDL
