REMARK  Name = No_4832-gen_results/8p0m/2024-11-26-14-13-15/
REMARK  2 active torsions:
REMARK  status: ('A' for Active; 'I' for Inactive)
REMARK    1  A    between atoms: C_5  and  C_7
REMARK    2  A    between atoms: C_7  and  N_8
REMARK                            x       y       z     vdW  Elec       q    Type
REMARK                         _______ _______ _______ _____ _____    ______ ____
ROOT
ATOM      1  C   UNL A   1     -28.016  -0.814  28.878  0.00  0.00    +0.000 A 
ATOM      2  C   UNL A   1     -27.064  -0.119  28.608  0.00  0.00    +0.000 A 
ATOM      3  C   UNL A   1     -27.001   0.691  27.491  0.00  0.00    +0.000 A 
ATOM      4  C   UNL A   1     -28.137   0.736  26.635  0.00  0.00    +0.005 A 
ATOM      5  C   UNL A   1     -29.236   0.076  27.069  0.00  0.00    +0.055 A 
ATOM      6  C   UNL A   1     -29.218  -0.643  28.175  0.00  0.00    +0.005 A 
ENDROOT
BRANCH   5   7
ATOM      7  C   UNL A   1     -30.415   0.159  26.182  0.00  0.00    +0.269 C 
ATOM      8  O   UNL A   1     -30.215   0.517  24.970  0.00  0.00    -0.268 OA
BRANCH   7   9
ATOM      9  N   UNL A   1     -31.373  -0.505  26.485  0.00  0.00    -0.179 NA
ATOM     10  C   UNL A   1     -32.316  -0.722  26.128  0.00  0.00    +0.063 C 
ATOM     11  C   UNL A   1     -33.411  -1.573  26.699  0.00  0.00    +0.050 C 
ENDBRANCH   7   9
ENDBRANCH   5   7
TORSDOF 2
