REMARK  Name = No_4833-gen_results/8p0m/2024-11-26-14-13-15/
REMARK  5 active torsions:
REMARK  status: ('A' for Active; 'I' for Inactive)
REMARK    1  A    between atoms: C_2  and  C_8
REMARK    2  A    between atoms: C_8  and  O_9
REMARK    3  A    between atoms: O_9  and  C_12
REMARK    4  A    between atoms: C_17  and  C_18
REMARK    5  A    between atoms: C_22  and  C_23
REMARK                            x       y       z     vdW  Elec       q    Type
REMARK                         _______ _______ _______ _____ _____    ______ ____
ROOT
ATOM      1  C   UNL A   1     -31.968  -0.156  31.042  0.00  0.00    +0.149 A 
ATOM      2  C   UNL A   1     -32.813   0.772  30.766  0.00  0.00    +0.038 A 
ATOM      3  C   UNL A   1     -34.132   0.694  30.855  0.00  0.00    +0.005 A 
ATOM      4  C   UNL A   1     -32.440  -1.376  31.586  0.00  0.00    +0.038 A 
ATOM      5  C   UNL A   1     -33.829  -1.532  31.745  0.00  0.00    +0.005 A 
ATOM      6  C   UNL A   1     -34.653  -0.480  31.445  0.00  0.00    +0.018 A 
ENDROOT
BRANCH   6   7
ATOM      7  C   UNL A   1     -36.105  -0.651  31.663  0.00  0.00    +0.081 A 
ATOM      8  N   UNL A   1     -36.806  -1.099  31.102  0.00  0.00    -0.244 NA
ATOM      9  C   UNL A   1     -38.129  -1.197  31.376  0.00  0.00    +0.099 A 
ATOM     10  C   UNL A   1     -36.438   0.129  32.890  0.00  0.00    +0.023 A 
ATOM     11  C   UNL A   1     -37.751   0.119  33.268  0.00  0.00    +0.074 A 
ATOM     12  C   UNL A   1     -38.577  -0.582  32.455  0.00  0.00    +0.025 A 
BRANCH  11  13
ATOM     13  C   UNL A   1     -38.183   0.800  34.464  0.00  0.00    +0.419 C 
ATOM     14  F   UNL A   1     -39.158   0.746  34.808  0.00  0.00    -0.166 F 
ATOM     15  F   UNL A   1     -37.764   2.157  34.400  0.00  0.00    -0.166 F 
ATOM     16  F   UNL A   1     -37.236   0.355  35.468  0.00  0.00    -0.166 F 
ENDBRANCH  11  13
ENDBRANCH   6   7
BRANCH   1  17
ATOM     17  O   UNL A   1     -30.677  -0.137  30.814  0.00  0.00    -0.421 OA
BRANCH  17  18
ATOM     18  C   UNL A   1     -30.092  -0.727  29.889  0.00  0.00    +0.346 C 
ATOM     19  O   UNL A   1     -30.598  -1.073  28.875  0.00  0.00    -0.244 OA
BRANCH  18  21
ATOM     20  C   UNL A   1     -28.016  -0.814  28.878  0.00  0.00    +0.038 A 
ATOM     21  C   UNL A   1     -28.469  -0.785  29.829  0.00  0.00    +0.078 A 
ATOM     22  C   UNL A   1     -26.546  -0.876  28.850  0.00  0.00    +0.168 A 
ATOM     23  C   UNL A   1     -25.804  -1.032  30.057  0.00  0.00    +0.167 A 
ATOM     24  C   UNL A   1     -27.944  -0.987  31.207  0.00  0.00    +0.009 A 
ATOM     25  C   UNL A   1     -26.582  -1.039  31.223  0.00  0.00    +0.032 A 
ATOM     26  F   UNL A   1     -24.540  -1.084  30.070  0.00  0.00    -0.202 F 
ATOM     27  F   UNL A   1     -25.774  -0.861  27.744  0.00  0.00    -0.202 F 
ENDBRANCH  18  21
ENDBRANCH  17  18
ENDBRANCH   1  17
TORSDOF 5
