MODEL 4833
MODEL 1
REMARK VINA RESULT:    -7.711      0.000      0.000
REMARK INTER + INTRA:         -11.141
REMARK INTER:                  -9.964
REMARK INTRA:                  -1.177
REMARK UNBOUND:                -1.177
REMARK  Name = No_4833-gen_results/8p0m/2024-11-26-14-13-15/
REMARK  5 active torsions:
REMARK  status: ('A' for Active; 'I' for Inactive)
REMARK    1  A    between atoms: C_2  and  C_8
REMARK    2  A    between atoms: C_8  and  O_9
REMARK    3  A    between atoms: O_9  and  C_12
REMARK    4  A    between atoms: C_17  and  C_18
REMARK    5  A    between atoms: C_22  and  C_23
REMARK                            x       y       z     vdW  Elec       q    Type
REMARK                         _______ _______ _______ _____ _____    ______ ____
ROOT
ATOM      1  C   UNL A   1     -23.926   1.885  26.619  0.00  0.00    +0.149 A 
ATOM      2  C   UNL A   1     -24.236   0.889  25.869  0.00  0.00    +0.038 A 
ATOM      3  C   UNL A   1     -25.381   0.705  25.230  0.00  0.00    +0.005 A 
ATOM      4  C   UNL A   1     -24.832   2.968  26.733  0.00  0.00    +0.038 A 
ATOM      5  C   UNL A   1     -26.062   2.871  26.058  0.00  0.00    +0.005 A 
ATOM      6  C   UNL A   1     -26.298   1.780  25.264  0.00  0.00    +0.018 A 
ENDROOT
BRANCH   6   7
ATOM      7  C   UNL A   1     -27.579   1.721  24.529  0.00  0.00    +0.081 A 
ATOM      8  N   UNL A   1     -28.195   2.451  24.220  0.00  0.00    -0.244 NA
ATOM      9  C   UNL A   1     -29.367   2.302  23.558  0.00  0.00    +0.099 A 
ATOM     10  C   UNL A   1     -27.930   0.276  24.416  0.00  0.00    +0.023 A 
ATOM     11  C   UNL A   1     -29.102  -0.008  23.775  0.00  0.00    +0.074 A 
ATOM     12  C   UNL A   1     -29.800   1.073  23.350  0.00  0.00    +0.025 A 
BRANCH  11  13
ATOM     13  C   UNL A   1     -29.522  -1.372  23.566  0.00  0.00    +0.419 C 
ATOM     14  F   UNL A   1     -28.857  -2.118  23.294  0.00  0.00    -0.166 F 
ATOM     15  F   UNL A   1     -30.646  -1.382  22.695  0.00  0.00    -0.166 F 
ATOM     16  F   UNL A   1     -30.225  -1.702  24.790  0.00  0.00    -0.166 F 
ENDBRANCH  11  13
ENDBRANCH   6   7
BRANCH   1  17
ATOM     17  O   UNL A   1     -22.858   2.000  27.372  0.00  0.00    -0.421 OA
BRANCH  17  18
ATOM     18  C   UNL A   1     -22.234   1.063  27.899  0.00  0.00    +0.346 C 
ATOM     19  O   UNL A   1     -21.073   0.864  27.775  0.00  0.00    -0.244 OA
BRANCH  18  21
ATOM     20  C   UNL A   1     -23.056  -0.833  28.935  0.00  0.00    +0.038 A 
ATOM     21  C   UNL A   1     -22.892   0.194  29.105  0.00  0.00    +0.078 A 
ATOM     22  C   UNL A   1     -23.661  -1.595  30.038  0.00  0.00    +0.168 A 
ATOM     23  C   UNL A   1     -24.124  -0.930  31.211  0.00  0.00    +0.167 A 
ATOM     24  C   UNL A   1     -23.322   1.123  30.186  0.00  0.00    +0.009 A 
ATOM     25  C   UNL A   1     -23.879   0.450  31.233  0.00  0.00    +0.032 A 
ATOM     26  F   UNL A   1     -24.644  -1.554  32.180  0.00  0.00    -0.202 F 
ATOM     27  F   UNL A   1     -23.898  -2.923  30.046  0.00  0.00    -0.202 F 
ENDBRANCH  18  21
ENDBRANCH  17  18
ENDBRANCH   1  17
TORSDOF 5
ENDMDL
ENDMDL
