MODEL 4834
MODEL 1
REMARK VINA RESULT:    -5.803      0.000      0.000
REMARK INTER + INTRA:          -7.880
REMARK INTER:                  -7.500
REMARK INTRA:                  -0.380
REMARK UNBOUND:                -0.380
REMARK  Name = No_4834-gen_results/8p0m/2024-11-26-14-13-15/
REMARK  5 active torsions:
REMARK  status: ('A' for Active; 'I' for Inactive)
REMARK    1  A    between atoms: C_3  and  C_7
REMARK    2  A    between atoms: C_7  and  N_8
REMARK    3  A    between atoms: N_8  and  C_9
REMARK    4  A    between atoms: C_10  and  C_11
REMARK    5  A    between atoms: C_11  and  C_12
REMARK                            x       y       z     vdW  Elec       q    Type
REMARK                         _______ _______ _______ _____ _____    ______ ____
ROOT
ATOM      1  C   UNL A   1     -23.091   1.012  29.122  0.00  0.00    +0.118 C 
ENDROOT
BRANCH   1   4
ATOM      2  C   UNL A   1     -22.530   2.158  26.928  0.00  0.00    -0.003 A 
ATOM      3  C   UNL A   1     -22.687   2.237  25.889  0.00  0.00    +0.000 A 
ATOM      4  C   UNL A   1     -23.377   1.234  27.627  0.00  0.00    -0.002 A 
ATOM      5  C   UNL A   1     -24.419   0.623  27.055  0.00  0.00    +0.004 A 
ATOM      6  C   UNL A   1     -23.758   1.690  25.068  0.00  0.00    +0.007 A 
ATOM      7  C   UNL A   1     -24.564   0.851  25.706  0.00  0.00    +0.034 A 
ATOM      8 BR   UNL A   1     -25.947  -0.147  24.936  0.00  0.00    -0.049 Br
ENDBRANCH   1   4
BRANCH   1   9
ATOM      9  N   UNL A   1     -22.604  -0.165  29.453  0.00  0.00    -0.301 N 
ATOM     10  C   UNL A   1     -21.263  -0.479  29.146  0.00  0.00    +0.113 C 
BRANCH   9  11
ATOM     11  C   UNL A   1     -23.444  -1.129  29.911  0.00  0.00    +0.058 C 
ATOM     12  C   UNL A   1     -23.783  -2.255  29.076  0.00  0.00    -0.001 C 
BRANCH  12  13
ATOM     13  C   UNL A   1     -24.245  -3.450  29.622  0.00  0.00    +0.116 C 
BRANCH  13  14
ATOM     14  C   UNL A   1     -24.444  -4.634  28.912  0.00  0.00    +0.265 C 
ATOM     15  N   UNL A   1     -25.349  -5.548  29.465  0.00  0.00    -0.087 NA
ATOM     16  O   UNL A   1     -23.596  -4.992  28.001  0.00  0.00    -0.271 OA
ENDBRANCH  13  14
ENDBRANCH  12  13
ENDBRANCH   9  11
ENDBRANCH   1   9
TORSDOF 5
ENDMDL
ENDMDL
