REMARK  Name = No_4834-gen_results/8p0m/2024-11-26-14-13-15/
REMARK  5 active torsions:
REMARK  status: ('A' for Active; 'I' for Inactive)
REMARK    1  A    between atoms: C_3  and  C_7
REMARK    2  A    between atoms: C_7  and  N_8
REMARK    3  A    between atoms: N_8  and  C_9
REMARK    4  A    between atoms: C_10  and  C_11
REMARK    5  A    between atoms: C_11  and  C_12
REMARK                            x       y       z     vdW  Elec       q    Type
REMARK                         _______ _______ _______ _____ _____    ______ ____
ROOT
ATOM      1  C   UNL A   1     -27.448   0.380  26.712  0.00  0.00    +0.118 C 
ENDROOT
BRANCH   1   4
ATOM      2  C   UNL A   1     -28.016  -0.814  28.878  0.00  0.00    -0.003 A 
ATOM      3  C   UNL A   1     -28.469  -0.785  29.829  0.00  0.00    +0.000 A 
ATOM      4  C   UNL A   1     -28.196   0.348  28.055  0.00  0.00    -0.002 A 
ATOM      5  C   UNL A   1     -29.019   1.350  28.378  0.00  0.00    +0.004 A 
ATOM      6  C   UNL A   1     -29.411   0.180  30.378  0.00  0.00    +0.007 A 
ATOM      7  C   UNL A   1     -29.606   1.250  29.619  0.00  0.00    +0.034 A 
ATOM      8 BR   UNL A   1     -30.626   2.751  30.073  0.00  0.00    -0.049 Br
ENDBRANCH   1   4
BRANCH   1   9
ATOM      9  N   UNL A   1     -26.638   1.400  26.520  0.00  0.00    -0.301 N 
ATOM     10  C   UNL A   1     -27.162   2.708  26.464  0.00  0.00    +0.113 C 
BRANCH   9  11
ATOM     11  C   UNL A   1     -25.341   1.168  26.189  0.00  0.00    +0.058 C 
ATOM     12  C   UNL A   1     -24.380   2.243  26.218  0.00  0.00    -0.001 C 
BRANCH  12  13
ATOM     13  C   UNL A   1     -23.015   1.992  26.333  0.00  0.00    +0.116 C 
BRANCH  13  14
ATOM     14  C   UNL A   1     -22.313   1.905  27.536  0.00  0.00    +0.265 C 
ATOM     15  N   UNL A   1     -20.994   1.444  27.455  0.00  0.00    -0.087 NA
ATOM     16  O   UNL A   1     -22.954   1.922  28.661  0.00  0.00    -0.271 OA
ENDBRANCH  13  14
ENDBRANCH  12  13
ENDBRANCH   9  11
ENDBRANCH   1   9
TORSDOF 5
