MODEL 4835
MODEL 1
REMARK VINA RESULT:    -5.296      0.000      0.000
REMARK INTER + INTRA:          -6.932
REMARK INTER:                  -6.534
REMARK INTRA:                  -0.397
REMARK UNBOUND:                -0.397
REMARK  Name = No_4835-gen_results/8p0m/2024-11-26-14-13-15/
REMARK  4 active torsions:
REMARK  status: ('A' for Active; 'I' for Inactive)
REMARK    1  A    between atoms: C_3  and  C_11
REMARK    2  A    between atoms: C_4  and  O_8
REMARK    3  A    between atoms: O_8  and  C_10
REMARK    4  A    between atoms: C_10  and  C_14
REMARK                            x       y       z     vdW  Elec       q    Type
REMARK                         _______ _______ _______ _____ _____    ______ ____
ROOT
ATOM      1  F   UNL A   1     -11.119 -21.185  19.612  0.00  0.00    -0.201 F 
ATOM      2  C   UNL A   1     -11.993 -21.276  20.346  0.00  0.00    +0.180 A 
ATOM      3  C   UNL A   1     -11.674 -21.319  21.592  0.00  0.00    +0.112 A 
ATOM      4  C   UNL A   1     -13.334 -21.183  19.893  0.00  0.00    +0.167 A 
ATOM      5  C   UNL A   1     -14.384 -21.005  20.861  0.00  0.00    +0.057 A 
ATOM      6  C   UNL A   1     -12.775 -21.253  22.694  0.00  0.00    +0.027 A 
ATOM      7  C   UNL A   1     -14.111 -21.160  22.258  0.00  0.00    +0.092 A 
ATOM      8  N   UNL A   1     -15.050 -21.109  23.225  0.00  0.00    -0.128 NA
ENDROOT
BRANCH   3   9
ATOM      9  C   UNL A   1     -10.335 -21.464  22.230  0.00  0.00    +0.390 C 
ATOM     10  O   UNL A   1      -9.335 -21.224  21.919  0.00  0.00    -0.240 OA
ATOM     11  O   UNL A   1     -10.511 -21.431  23.666  0.00  0.00    -0.240 OA
ENDBRANCH   3   9
BRANCH   4  12
ATOM     12  O   UNL A   1     -13.618 -21.058  18.649  0.00  0.00    -0.473 OA
BRANCH  12  13
ATOM     13  C   UNL A   1     -13.511 -19.872  18.023  0.00  0.00    +0.205 C 
BRANCH  13  14
ATOM     14  C   UNL A   1     -12.921 -19.935  16.812  0.00  0.00    +0.047 C 
ATOM     15  C   UNL A   1     -11.665 -19.424  16.806  0.00  0.00    +0.004 C 
ENDBRANCH  13  14
ENDBRANCH  12  13
ENDBRANCH   4  12
TORSDOF 4
ENDMDL
ENDMDL
