REMARK  Name = No_4835-gen_results/8p0m/2024-11-26-14-13-15/
REMARK  4 active torsions:
REMARK  status: ('A' for Active; 'I' for Inactive)
REMARK    1  A    between atoms: C_3  and  C_11
REMARK    2  A    between atoms: C_4  and  O_8
REMARK    3  A    between atoms: O_8  and  C_10
REMARK    4  A    between atoms: C_10  and  C_14
REMARK                            x       y       z     vdW  Elec       q    Type
REMARK                         _______ _______ _______ _____ _____    ______ ____
ROOT
ATOM      1  F   UNL A   1     -28.073  -1.254  28.532  0.00  0.00    -0.201 F 
ATOM      2  C   UNL A   1     -27.359  -0.379  28.722  0.00  0.00    +0.180 A 
ATOM      3  C   UNL A   1     -26.332  -0.644  29.452  0.00  0.00    +0.112 A 
ATOM      4  C   UNL A   1     -27.533   0.859  28.052  0.00  0.00    +0.167 A 
ATOM      5  C   UNL A   1     -26.466   1.824  28.084  0.00  0.00    +0.057 A 
ATOM      6  C   UNL A   1     -25.194   0.407  29.628  0.00  0.00    +0.027 A 
ATOM      7  C   UNL A   1     -25.354   1.640  28.968  0.00  0.00    +0.092 A 
ATOM      8  N   UNL A   1     -24.362   2.538  29.135  0.00  0.00    -0.128 NA
ENDROOT
BRANCH   3   9
ATOM      9  C   UNL A   1     -26.020  -1.860  30.255  0.00  0.00    +0.390 C 
ATOM     10  O   UNL A   1     -25.932  -2.050  31.309  0.00  0.00    -0.240 OA
ATOM     11  O   UNL A   1     -26.430  -3.022  29.496  0.00  0.00    -0.240 OA
ENDBRANCH   3   9
BRANCH   4  12
ATOM     12  O   UNL A   1     -28.524   1.065  27.264  0.00  0.00    -0.473 OA
BRANCH  12  13
ATOM     13  C   UNL A   1     -28.384   0.985  25.929  0.00  0.00    +0.205 C 
BRANCH  13  14
ATOM     14  C   UNL A   1     -29.272   1.724  25.233  0.00  0.00    +0.047 C 
ATOM     15  C   UNL A   1     -30.553   1.534  25.635  0.00  0.00    +0.004 C 
ENDBRANCH  13  14
ENDBRANCH  12  13
ENDBRANCH   4  12
TORSDOF 4
