MODEL 4836
MODEL 1
REMARK VINA RESULT:    -6.317      0.000      0.000
REMARK INTER + INTRA:          -7.853
REMARK INTER:                  -7.425
REMARK INTRA:                  -0.428
REMARK UNBOUND:                -0.428
REMARK  Name = No_4836-gen_results/8p0m/2024-11-26-14-13-15/
REMARK  3 active torsions:
REMARK  status: ('A' for Active; 'I' for Inactive)
REMARK    1  A    between atoms: C_6  and  O_8
REMARK    2  A    between atoms: O_8  and  C_9
REMARK    3  A    between atoms: C_14  and  C_15
REMARK                            x       y       z     vdW  Elec       q    Type
REMARK                         _______ _______ _______ _____ _____    ______ ____
ROOT
ATOM      1  C   UNL A   1     -24.272  -1.955  29.267  0.00  0.00    +0.145 A 
ATOM      2  C   UNL A   1     -25.603  -1.584  29.823  0.00  0.00    +0.037 A 
ATOM      3  C   UNL A   1     -26.623  -2.499  29.997  0.00  0.00    +0.003 A 
ATOM      4  C   UNL A   1     -24.221  -3.376  29.068  0.00  0.00    +0.037 A 
ATOM      5  C   UNL A   1     -25.231  -4.296  29.280  0.00  0.00    +0.003 A 
ATOM      6  C   UNL A   1     -26.419  -3.829  29.804  0.00  0.00    -0.000 A 
ENDROOT
BRANCH   6   7
ATOM      7  C   UNL A   1     -27.469  -4.812  30.052  0.00  0.00    -0.005 C 
ATOM      8  C   UNL A   1     -28.474  -4.456  30.913  0.00  0.00    -0.026 C 
ATOM      9  C   UNL A   1     -29.541  -5.379  31.175  0.00  0.00    +0.031 C 
ENDBRANCH   6   7
BRANCH   1  10
ATOM     10  O   UNL A   1     -23.484  -1.224  29.035  0.00  0.00    -0.454 OA
BRANCH  10  16
ATOM     11  C   UNL A   1     -22.349   1.817  27.352  0.00  0.00    +0.015 A 
ATOM     12  C   UNL A   1     -23.257   1.943  26.563  0.00  0.00    +0.058 A 
ATOM     13  C   UNL A   1     -24.277   1.153  26.385  0.00  0.00    +0.015 A 
ATOM     14  C   UNL A   1     -24.365  -0.022  27.192  0.00  0.00    +0.038 A 
ATOM     15  C   UNL A   1     -22.429   0.708  28.284  0.00  0.00    +0.038 A 
ATOM     16  C   UNL A   1     -23.433  -0.160  28.159  0.00  0.00    +0.145 A 
ATOM     17 CL   UNL A   1     -23.347   3.277  25.365  0.00  0.00    -0.082 Cl
ENDBRANCH  10  16
ENDBRANCH   1  10
TORSDOF 3
ENDMDL
ENDMDL
