REMARK  Name = No_4837-gen_results/8p0m/2024-11-26-14-13-15/
REMARK  7 active torsions:
REMARK  status: ('A' for Active; 'I' for Inactive)
REMARK    1  A    between atoms: C_2  and  N_7
REMARK    2  A    between atoms: N_7  and  C_8
REMARK    3  A    between atoms: C_10  and  C_11
REMARK    4  A    between atoms: C_11  and  C_17
REMARK    5  A    between atoms: C_11  and  C_18
REMARK    6  A    between atoms: C_17  and  C_25
REMARK    7  A    between atoms: C_18  and  C_19
REMARK                            x       y       z     vdW  Elec       q    Type
REMARK                         _______ _______ _______ _____ _____    ______ ____
ROOT
ATOM      1  C   UNL A   1     -30.195  -2.538  31.503  0.00  0.00    +0.086 C 
ENDROOT
BRANCH   1   3
ATOM      2  N   UNL A   1     -29.977  -0.829  29.850  0.00  0.00    -0.237 N 
ATOM      3  C   UNL A   1     -30.711  -1.735  30.657  0.00  0.00    +0.233 C 
ATOM      4  O   UNL A   1     -31.939  -1.738  30.579  0.00  0.00    -0.274 OA
BRANCH   2   6
ATOM      5  C   UNL A   1     -28.016  -0.814  28.878  0.00  0.00    +0.015 A 
ATOM      6  C   UNL A   1     -28.469  -0.785  29.829  0.00  0.00    +0.058 A 
ATOM      7  C   UNL A   1     -26.504  -0.778  28.877  0.00  0.00    +0.001 A 
ATOM      8  C   UNL A   1     -25.810  -0.853  30.103  0.00  0.00    +0.000 A 
ATOM      9  C   UNL A   1     -27.991  -0.892  31.226  0.00  0.00    +0.015 A 
ATOM     10  C   UNL A   1     -26.604  -0.868  31.265  0.00  0.00    +0.001 A 
ENDBRANCH   2   6
BRANCH   2  11
ATOM     11  C   UNL A   1     -30.579  -0.123  28.982  0.00  0.00    +0.058 A 
ATOM     12  C   UNL A   1     -31.866  -0.675  28.485  0.00  0.00    +0.015 A 
ATOM     13  C   UNL A   1     -32.508   0.039  27.509  0.00  0.00    +0.001 A 
ATOM     14  C   UNL A   1     -31.945   1.222  26.989  0.00  0.00    +0.000 A 
ATOM     15  C   UNL A   1     -30.766   1.704  27.410  0.00  0.00    +0.001 A 
ATOM     16  C   UNL A   1     -30.065   1.041  28.377  0.00  0.00    +0.015 A 
ENDBRANCH   2  11
ENDBRANCH   1   3
BRANCH   1  17
ATOM     17  C   UNL A   1     -30.391  -2.334  32.941  0.00  0.00    +0.031 C 
ATOM     18  C   UNL A   1     -29.642  -3.323  33.846  0.00  0.00    +0.005 C 
BRANCH  17  19
ATOM     19  C   UNL A   1     -31.188  -1.430  33.432  0.00  0.00    -0.022 A 
ATOM     20  C   UNL A   1     -32.023  -0.858  33.195  0.00  0.00    -0.004 A 
ATOM     21  C   UNL A   1     -32.728   0.186  33.939  0.00  0.00    -0.000 A 
ATOM     22  C   UNL A   1     -32.273   0.414  35.198  0.00  0.00    -0.000 A 
ATOM     23  C   UNL A   1     -31.191  -0.252  35.664  0.00  0.00    -0.000 A 
ATOM     24  C   UNL A   1     -30.541  -1.177  34.907  0.00  0.00    -0.004 A 
ENDBRANCH  17  19
ENDBRANCH   1  17
BRANCH   1  25
ATOM     25  C   UNL A   1     -29.505  -3.731  31.091  0.00  0.00    +0.036 C 
BRANCH  25  26
ATOM     26  C   UNL A   1     -30.197  -4.866  30.667  0.00  0.00    -0.022 A 
ATOM     27  C   UNL A   1     -30.840  -5.468  31.251  0.00  0.00    -0.004 A 
ATOM     28  C   UNL A   1     -31.576  -6.720  30.681  0.00  0.00    -0.000 A 
ATOM     29  C   UNL A   1     -31.374  -6.950  29.316  0.00  0.00    -0.000 A 
ATOM     30  C   UNL A   1     -30.602  -6.059  28.540  0.00  0.00    -0.000 A 
ATOM     31  C   UNL A   1     -29.945  -4.969  29.168  0.00  0.00    -0.004 A 
ENDBRANCH  25  26
ENDBRANCH   1  25
TORSDOF 7
