MODEL 4837
MODEL 1
REMARK VINA RESULT:    -7.755      0.000      0.000
REMARK INTER + INTRA:         -14.112
REMARK INTER:                 -10.929
REMARK INTRA:                  -3.183
REMARK UNBOUND:                -3.183
REMARK  Name = No_4837-gen_results/8p0m/2024-11-26-14-13-15/
REMARK  7 active torsions:
REMARK  status: ('A' for Active; 'I' for Inactive)
REMARK    1  A    between atoms: C_2  and  N_7
REMARK    2  A    between atoms: N_7  and  C_8
REMARK    3  A    between atoms: C_10  and  C_11
REMARK    4  A    between atoms: C_11  and  C_17
REMARK    5  A    between atoms: C_11  and  C_18
REMARK    6  A    between atoms: C_17  and  C_25
REMARK    7  A    between atoms: C_18  and  C_19
REMARK                            x       y       z     vdW  Elec       q    Type
REMARK                         _______ _______ _______ _____ _____    ______ ____
ROOT
ATOM      1  C   UNL A   1     -24.250   0.521  30.429  0.00  0.00    +0.086 C 
ENDROOT
BRANCH   1   3
ATOM      2  N   UNL A   1     -25.122  -1.377  29.273  0.00  0.00    -0.237 N 
ATOM      3  C   UNL A   1     -24.323  -0.740  30.256  0.00  0.00    +0.233 C 
ATOM      4  O   UNL A   1     -23.674  -1.437  31.035  0.00  0.00    -0.274 OA
BRANCH   2   6
ATOM      5  C   UNL A   1     -26.841  -0.233  28.548  0.00  0.00    +0.015 A 
ATOM      6  C   UNL A   1     -25.909  -0.614  28.236  0.00  0.00    +0.058 A 
ATOM      7  C   UNL A   1     -27.621   0.520  27.493  0.00  0.00    +0.001 A 
ATOM      8  C   UNL A   1     -27.143   0.543  26.165  0.00  0.00    +0.000 A 
ATOM      9  C   UNL A   1     -25.211  -0.756  26.938  0.00  0.00    +0.015 A 
ATOM     10  C   UNL A   1     -25.902  -0.081  25.942  0.00  0.00    +0.001 A 
ENDBRANCH   2   6
BRANCH   2  11
ATOM     11  C   UNL A   1     -25.067  -2.638  29.132  0.00  0.00    +0.058 A 
ATOM     12  C   UNL A   1     -26.197  -3.401  29.724  0.00  0.00    +0.015 A 
ATOM     13  C   UNL A   1     -26.135  -4.765  29.634  0.00  0.00    +0.001 A 
ATOM     14  C   UNL A   1     -25.030  -5.402  29.034  0.00  0.00    +0.000 A 
ATOM     15  C   UNL A   1     -23.991  -4.718  28.530  0.00  0.00    +0.001 A 
ATOM     16  C   UNL A   1     -23.981  -3.353  28.590  0.00  0.00    +0.015 A 
ENDBRANCH   2  11
ENDBRANCH   1   3
BRANCH   1  17
ATOM     17  C   UNL A   1     -25.062   1.182  31.455  0.00  0.00    +0.031 C 
ATOM     18  C   UNL A   1     -24.614   2.604  31.822  0.00  0.00    +0.005 C 
BRANCH  17  19
ATOM     19  C   UNL A   1     -26.051   0.599  32.068  0.00  0.00    -0.022 A 
ATOM     20  C   UNL A   1     -27.038   0.301  31.931  0.00  0.00    -0.004 A 
ATOM     21  C   UNL A   1     -28.001  -0.313  32.845  0.00  0.00    -0.000 A 
ATOM     22  C   UNL A   1     -27.521  -0.628  34.075  0.00  0.00    -0.000 A 
ATOM     23  C   UNL A   1     -26.250  -0.308  34.414  0.00  0.00    -0.000 A 
ATOM     24  C   UNL A   1     -25.412   0.312  33.540  0.00  0.00    -0.004 A 
ENDBRANCH  17  19
ENDBRANCH   1  17
BRANCH   1  25
ATOM     25  C   UNL A   1     -23.296   1.329  29.718  0.00  0.00    +0.036 C 
BRANCH  25  26
ATOM     26  C   UNL A   1     -23.607   1.917  28.491  0.00  0.00    -0.022 A 
ATOM     27  C   UNL A   1     -24.402   2.585  28.295  0.00  0.00    -0.004 A 
ATOM     28  C   UNL A   1     -24.665   3.196  26.884  0.00  0.00    -0.000 A 
ATOM     29  C   UNL A   1     -23.726   2.846  25.907  0.00  0.00    -0.000 A 
ATOM     30  C   UNL A   1     -22.611   2.045  26.232  0.00  0.00    -0.000 A 
ATOM     31  C   UNL A   1     -22.488   1.510  27.541  0.00  0.00    -0.004 A 
ENDBRANCH  25  26
ENDBRANCH   1  25
TORSDOF 7
ENDMDL
ENDMDL
