REMARK  Name = No_4838-gen_results/8p0m/2024-11-26-14-13-15/
REMARK  3 active torsions:
REMARK  status: ('A' for Active; 'I' for Inactive)
REMARK    1  A    between atoms: C_3  and  C_5
REMARK    2  A    between atoms: C_7  and  C_14
REMARK    3  A    between atoms: C_13  and  C_17
REMARK                            x       y       z     vdW  Elec       q    Type
REMARK                         _______ _______ _______ _____ _____    ______ ____
ROOT
ATOM      1  O   UNL A   1     -28.123  -1.335  28.487  0.00  0.00    -0.273 OA
ATOM      2  C   UNL A   1     -27.064  -0.824  28.869  0.00  0.00    +0.245 C 
ATOM      3  C   UNL A   1     -26.959   0.093  29.758  0.00  0.00    +0.101 C 
ATOM      4  N   UNL A   1     -25.801  -1.357  28.397  0.00  0.00    -0.205 NA
ATOM      5  C   UNL A   1     -24.536  -0.936  28.779  0.00  0.00    +0.126 C 
ATOM      6  C   UNL A   1     -24.458   0.110  29.623  0.00  0.00    +0.126 C 
ATOM      7  C   UNL A   1     -25.565   0.675  30.147  0.00  0.00    +0.027 C 
ENDROOT
BRANCH   3   8
ATOM      8  C   UNL A   1     -27.864   0.818  30.281  0.00  0.00    -0.014 A 
ATOM      9  C   UNL A   1     -28.813   1.348  29.619  0.00  0.00    -0.004 A 
ATOM     10  C   UNL A   1     -29.948   2.006  30.132  0.00  0.00    +0.006 A 
ATOM     11  C   UNL A   1     -28.061   0.785  31.750  0.00  0.00    -0.004 A 
ATOM     12  C   UNL A   1     -29.151   1.434  32.383  0.00  0.00    +0.006 A 
ATOM     13  C   UNL A   1     -30.069   2.064  31.539  0.00  0.00    +0.080 A 
BRANCH  13  14
ATOM     14  C   UNL A   1     -31.222   2.782  32.136  0.00  0.00    +0.388 C 
ATOM     15  O   UNL A   1     -31.044   3.640  32.905  0.00  0.00    -0.241 OA
ATOM     16  O   UNL A   1     -32.356   2.163  31.951  0.00  0.00    -0.241 OA
ENDBRANCH  13  14
ENDBRANCH   3   8
BRANCH   6  17
ATOM     17  C   UNL A   1     -23.049   0.525  30.007  0.00  0.00    +0.366 C 
ATOM     18  O   UNL A   1     -22.004  -0.039  29.642  0.00  0.00    -0.246 OA
ATOM     19  O   UNL A   1     -22.958   1.591  30.886  0.00  0.00    -0.246 OA
ENDBRANCH   6  17
TORSDOF 3
