MODEL 4839
MODEL 1
REMARK VINA RESULT:    -7.620      0.000      0.000
REMARK INTER + INTRA:         -13.818
REMARK INTER:                 -12.075
REMARK INTRA:                  -1.744
REMARK UNBOUND:                -1.744
REMARK  Name = No_4839-gen_results/8p0m/2024-11-26-14-13-15/
REMARK  10 active torsions:
REMARK  status: ('A' for Active; 'I' for Inactive)
REMARK    1  A    between atoms: C_2  and  C_23
REMARK    2  A    between atoms: C_3  and  C_7
REMARK    3  A    between atoms: C_6  and  C_20
REMARK    4  A    between atoms: C_7  and  C_8
REMARK    5  A    between atoms: C_7  and  C_17
REMARK    6  A    between atoms: C_12  and  C_14
REMARK    7  A    between atoms: C_23  and  O_25
REMARK    8  A    between atoms: O_25  and  C_26
REMARK    9  A    between atoms: N_28  and  C_29
REMARK   10  A    between atoms: C_33  and  C_34
REMARK                            x       y       z     vdW  Elec       q    Type
REMARK                         _______ _______ _______ _____ _____    ______ ____
ROOT
ATOM      1  C   UNL A   1     -23.505  -0.205  29.800  0.00  0.00    +0.003 A 
ATOM      2  C   UNL A   1     -23.643  -0.963  30.519  0.00  0.00    +0.076 A 
ATOM      3  C   UNL A   1     -23.941  -0.509  28.467  0.00  0.00    -0.007 A 
ATOM      4  C   UNL A   1     -24.345  -1.727  28.092  0.00  0.00    +0.003 A 
ATOM      5  C   UNL A   1     -24.041  -2.351  30.338  0.00  0.00    +0.013 A 
ATOM      6  C   UNL A   1     -24.426  -2.655  29.105  0.00  0.00    +0.080 A 
ENDROOT
BRANCH   6   7
ATOM      7  C   UNL A   1     -24.693  -4.112  28.842  0.00  0.00    +0.388 C 
ATOM      8  O   UNL A   1     -25.539  -4.714  29.379  0.00  0.00    -0.241 OA
ATOM      9  O   UNL A   1     -23.728  -4.748  28.280  0.00  0.00    -0.241 OA
ENDBRANCH   6   7
BRANCH   2  10
ATOM     10  C   UNL A   1     -23.267  -0.749  32.082  0.00  0.00    +0.341 C 
ATOM     11  O   UNL A   1     -22.388  -1.270  32.547  0.00  0.00    -0.245 OA
BRANCH  10  12
ATOM     12  O   UNL A   1     -24.159  -0.024  32.710  0.00  0.00    -0.447 OA
BRANCH  12  13
ATOM     13  C   UNL A   1     -25.045  -0.511  33.487  0.00  0.00    +0.189 C 
ATOM     14  C   UNL A   1     -24.527  -0.872  34.771  0.00  0.00    +0.135 C 
ATOM     15  N   UNL A   1     -25.486  -0.994  35.729  0.00  0.00    -0.303 N 
ATOM     16  C   UNL A   1     -26.880  -0.961  35.458  0.00  0.00    +0.091 C 
ATOM     17  C   UNL A   1     -27.386  -0.556  34.224  0.00  0.00    +0.025 C 
ATOM     18  C   UNL A   1     -26.430  -0.270  33.213  0.00  0.00    +0.047 C 
BRANCH  15  19
ATOM     19  C   UNL A   1     -25.158  -1.230  36.983  0.00  0.00    +0.061 C 
ATOM     20  C   UNL A   1     -25.731  -2.048  37.886  0.00  0.00    +0.016 C 
BRANCH  20  21
ATOM     21  C   UNL A   1     -25.445  -2.100  39.254  0.00  0.00    +0.001 C 
ATOM     22  C   UNL A   1     -25.191  -0.869  39.919  0.00  0.00    +0.000 C 
ENDBRANCH  20  21
ENDBRANCH  15  19
ENDBRANCH  12  13
ENDBRANCH  10  12
ENDBRANCH   2  10
BRANCH   3  23
ATOM     23  C   UNL A   1     -23.860   0.620  27.427  0.00  0.00    +0.148 C 
BRANCH  23  24
ATOM     24  C   UNL A   1     -25.006   0.738  26.508  0.00  0.00    -0.007 A 
ATOM     25  C   UNL A   1     -24.904   0.255  25.234  0.00  0.00    -0.003 A 
ATOM     26  C   UNL A   1     -26.024   0.162  24.409  0.00  0.00    -0.000 A 
ATOM     27  C   UNL A   1     -27.339   0.235  24.951  0.00  0.00    +0.007 A 
ATOM     28  C   UNL A   1     -27.430   0.590  26.323  0.00  0.00    +0.080 A 
ATOM     29  C   UNL A   1     -26.321   0.763  27.116  0.00  0.00    +0.003 A 
BRANCH  28  30
ATOM     30  C   UNL A   1     -28.809   0.659  26.868  0.00  0.00    +0.388 C 
ATOM     31  O   UNL A   1     -29.652   1.015  26.034  0.00  0.00    -0.241 OA
ATOM     32  O   UNL A   1     -29.115  -0.150  27.865  0.00  0.00    -0.241 OA
ENDBRANCH  28  30
ENDBRANCH  23  24
BRANCH  23  33
ATOM     33  C   UNL A   1     -22.862   1.535  27.444  0.00  0.00    +0.372 C 
ATOM     34  O   UNL A   1     -21.795   1.565  27.403  0.00  0.00    -0.245 OA
ATOM     35  O   UNL A   1     -23.494   2.859  27.791  0.00  0.00    -0.245 OA
ENDBRANCH  23  33
ENDBRANCH   3  23
TORSDOF 10
ENDMDL
ENDMDL
