MODEL 483
MODEL 1
REMARK VINA RESULT:    -7.929      0.000      0.000
REMARK INTER + INTRA:         -11.358
REMARK INTER:                  -9.783
REMARK INTRA:                  -1.575
REMARK UNBOUND:                -1.575
REMARK  Name = No_483-gen_results/8p0m/2024-11-26-14-13-15/
REMARK  4 active torsions:
REMARK  status: ('A' for Active; 'I' for Inactive)
REMARK    1  A    between atoms: C_2  and  C_9
REMARK    2  A    between atoms: C_4  and  C_15
REMARK    3  A    between atoms: C_15  and  C_16
REMARK    4  A    between atoms: C_16  and  C_18
REMARK                            x       y       z     vdW  Elec       q    Type
REMARK                         _______ _______ _______ _____ _____    ______ ____
ROOT
ATOM      1  C   UNL A   1     -22.699  -0.998  29.268  0.00  0.00    +0.003 A 
ATOM      2  C   UNL A   1     -23.690  -1.124  28.587  0.00  0.00    +0.010 A 
ATOM      3  C   UNL A   1     -24.125  -0.216  27.637  0.00  0.00    +0.056 A 
ATOM      4  C   UNL A   1     -23.320   0.943  27.431  0.00  0.00    +0.016 A 
ATOM      5  C   UNL A   1     -22.147   0.982  28.084  0.00  0.00    +0.137 A 
ATOM      6  C   UNL A   1     -21.798   0.055  28.929  0.00  0.00    +0.029 A 
ATOM      7 CL   UNL A   1     -25.625  -0.364  26.788  0.00  0.00    -0.083 Cl
ATOM      8  F   UNL A   1     -21.395   2.056  27.846  0.00  0.00    -0.204 F 
ENDROOT
BRANCH   2   9
ATOM      9  C   UNL A   1     -24.543  -2.433  28.866  0.00  0.00    +0.001 A 
ATOM     10  C   UNL A   1     -24.024  -3.597  28.628  0.00  0.00    +0.000 A 
ATOM     11  C   UNL A   1     -24.730  -4.780  28.936  0.00  0.00    +0.000 A 
ATOM     12  C   UNL A   1     -26.011  -4.685  29.558  0.00  0.00    +0.000 A 
ATOM     13  C   UNL A   1     -26.482  -3.423  29.913  0.00  0.00    +0.000 A 
ATOM     14  C   UNL A   1     -25.721  -2.262  29.567  0.00  0.00    +0.000 A 
ENDBRANCH   2   9
BRANCH   4  15
ATOM     15  C   UNL A   1     -23.600   1.975  26.438  0.00  0.00    +0.030 C 
ATOM     16  C   UNL A   1     -22.904   1.884  25.250  0.00  0.00    +0.005 C 
BRANCH  15  17
ATOM     17  C   UNL A   1     -24.200   2.972  26.758  0.00  0.00    +0.031 C 
BRANCH  17  18
ATOM     18  C   UNL A   1     -25.453   3.253  26.819  0.00  0.00    -0.022 A 
ATOM     19  C   UNL A   1     -26.345   3.007  25.716  0.00  0.00    -0.004 A 
ATOM     20  C   UNL A   1     -27.721   3.307  25.775  0.00  0.00    -0.000 A 
ATOM     21  C   UNL A   1     -28.264   3.658  27.015  0.00  0.00    -0.000 A 
ATOM     22  C   UNL A   1     -27.525   3.907  28.146  0.00  0.00    -0.000 A 
ATOM     23  C   UNL A   1     -26.220   3.697  28.067  0.00  0.00    -0.004 A 
ENDBRANCH  17  18
ENDBRANCH  15  17
ENDBRANCH   4  15
TORSDOF 4
ENDMDL
ENDMDL
