MODEL 4840
MODEL 1
REMARK VINA RESULT:    -5.564      0.000      0.000
REMARK INTER + INTRA:         -10.893
REMARK INTER:                  -8.167
REMARK INTRA:                  -2.726
REMARK UNBOUND:                -2.726
REMARK  Name = No_4840-gen_results/8p0m/2024-11-26-14-13-15/
REMARK  8 active torsions:
REMARK  status: ('A' for Active; 'I' for Inactive)
REMARK    1  A    between atoms: C_5  and  C_11
REMARK    2  A    between atoms: C_8  and  C_24
REMARK    3  A    between atoms: C_10  and  C_16
REMARK    4  A    between atoms: C_11  and  C_13
REMARK    5  A    between atoms: N_14  and  C_19
REMARK    6  A    between atoms: C_19  and  C_20
REMARK    7  A    between atoms: C_20  and  C_21
REMARK    8  A    between atoms: C_21  and  C_22
REMARK                            x       y       z     vdW  Elec       q    Type
REMARK                         _______ _______ _______ _____ _____    ______ ____
ROOT
ATOM      1  C   UNL A   1     -19.548 -19.518   5.713  0.00  0.00    +0.007 A 
ATOM      2  C   UNL A   1     -18.843 -20.185   6.434  0.00  0.00    +0.000 A 
ATOM      3  C   UNL A   1     -19.299 -20.894   7.497  0.00  0.00    +0.006 A 
ATOM      4  C   UNL A   1     -18.450 -21.717   8.387  0.00  0.00    +0.002 A 
ATOM      5  C   UNL A   1     -17.051 -21.776   8.076  0.00  0.00    +0.024 A 
ATOM      6  C   UNL A   1     -16.628 -21.083   6.919  0.00  0.00    +0.002 A 
ATOM      7  C   UNL A   1     -17.475 -20.339   6.140  0.00  0.00    +0.000 A 
ATOM      8  C   UNL A   1     -20.955 -20.052   5.439  0.00  0.00    +0.080 A 
ATOM      9  C   UNL A   1     -21.634 -20.388   6.562  0.00  0.00    +0.013 A 
ATOM     10  C   UNL A   1     -20.766 -21.150   7.532  0.00  0.00    +0.080 A 
ENDROOT
BRANCH  10  11
ATOM     11  C   UNL A   1     -21.374 -21.891   8.643  0.00  0.00    +0.388 C 
ATOM     12  O   UNL A   1     -21.892 -21.249   9.494  0.00  0.00    -0.241 OA
ATOM     13  O   UNL A   1     -21.719 -23.140   8.417  0.00  0.00    -0.241 OA
ENDBRANCH  10  11
BRANCH   8  14
ATOM     14  C   UNL A   1     -21.752 -19.447   4.345  0.00  0.00    +0.388 C 
ATOM     15  O   UNL A   1     -21.541 -18.463   3.775  0.00  0.00    -0.241 OA
ATOM     16  O   UNL A   1     -22.876 -20.176   4.070  0.00  0.00    -0.241 OA
ENDBRANCH   8  14
BRANCH   5  17
ATOM     17  C   UNL A   1     -16.090 -22.463   8.898  0.00  0.00    +0.158 C 
ATOM     18  N   UNL A   1     -14.989 -22.264   9.144  0.00  0.00    -0.143 NA
BRANCH  17  19
ATOM     19  C   UNL A   1     -16.602 -23.833   9.428  0.00  0.00    +0.284 C 
ATOM     20  N   UNL A   1     -16.751 -24.871   8.680  0.00  0.00    -0.200 NA
ATOM     21  O   UNL A   1     -16.891 -23.961  10.658  0.00  0.00    -0.267 OA
BRANCH  20  22
ATOM     22  C   UNL A   1     -16.561 -24.977   7.249  0.00  0.00    +0.116 C 
BRANCH  22  23
ATOM     23  C   UNL A   1     -17.977 -24.968   6.503  0.00  0.00    +0.029 C 
BRANCH  23  24
ATOM     24  C   UNL A   1     -17.886 -24.134   5.385  0.00  0.00    +0.068 C 
BRANCH  24  25
ATOM     25  C   UNL A   1     -19.183 -23.563   4.760  0.00  0.00    +0.264 C 
ATOM     26  C   UNL A   1     -19.565 -24.793   3.945  0.00  0.00    +0.072 C 
ATOM     27  F   UNL A   1     -20.006 -23.625   5.837  0.00  0.00    -0.204 F 
ATOM     28  F   UNL A   1     -18.919 -22.578   4.207  0.00  0.00    -0.204 F 
ENDBRANCH  24  25
ENDBRANCH  23  24
ENDBRANCH  22  23
ENDBRANCH  20  22
ENDBRANCH  17  19
ENDBRANCH   5  17
TORSDOF 8
ENDMDL
ENDMDL
