REMARK  Name = No_4841-gen_results/8p0m/2024-11-26-14-13-15/
REMARK  2 active torsions:
REMARK  status: ('A' for Active; 'I' for Inactive)
REMARK    1  A    between atoms: C_2  and  C_9
REMARK    2  A    between atoms: C_5  and  N_8
REMARK                            x       y       z     vdW  Elec       q    Type
REMARK                         _______ _______ _______ _____ _____    ______ ____
ROOT
ATOM      1  C   UNL A   1     -28.016  -0.814  28.878  0.00  0.00    +0.002 A 
ATOM      2  C   UNL A   1     -27.064  -0.119  28.608  0.00  0.00    +0.006 A 
ATOM      3  C   UNL A   1     -26.972   0.714  27.506  0.00  0.00    +0.036 A 
ATOM      4  C   UNL A   1     -28.105   0.774  26.642  0.00  0.00    +0.026 A 
ATOM      5  C   UNL A   1     -29.204   0.118  27.048  0.00  0.00    +0.082 A 
ATOM      6  C   UNL A   1     -29.213  -0.609  28.128  0.00  0.00    +0.019 A 
ATOM      7 BR   UNL A   1     -25.393   1.661  27.032  0.00  0.00    -0.049 Br
ENDROOT
BRANCH   2   8
ATOM      8  C   UNL A   1     -25.670  -0.200  29.422  0.00  0.00    +0.001 A 
ATOM      9  C   UNL A   1     -25.098  -1.376  29.534  0.00  0.00    +0.000 A 
ATOM     10  C   UNL A   1     -24.040  -1.528  29.684  0.00  0.00    +0.000 A 
ATOM     11  C   UNL A   1     -23.000  -0.534  29.986  0.00  0.00    +0.000 A 
ATOM     12  C   UNL A   1     -23.553   0.774  29.867  0.00  0.00    +0.000 A 
ATOM     13  C   UNL A   1     -24.911   0.923  29.487  0.00  0.00    +0.000 A 
ENDBRANCH   2   8
BRANCH   5  14
ATOM     14  N   UNL A   1     -30.309   0.222  26.204  0.00  0.00    -0.248 NA
ATOM     15  C   UNL A   1     -31.471  -0.154  26.518  0.00  0.00    +0.073 C 
ATOM     16  C   UNL A   1     -32.517  -0.169  25.497  0.00  0.00    +0.053 C 
ENDBRANCH   5  14
TORSDOF 2
