MODEL 4841
MODEL 1
REMARK VINA RESULT:    -6.468      0.000      0.000
REMARK INTER + INTRA:          -7.832
REMARK INTER:                  -7.224
REMARK INTRA:                  -0.608
REMARK UNBOUND:                -0.608
REMARK  Name = No_4841-gen_results/8p0m/2024-11-26-14-13-15/
REMARK  2 active torsions:
REMARK  status: ('A' for Active; 'I' for Inactive)
REMARK    1  A    between atoms: C_2  and  C_9
REMARK    2  A    between atoms: C_5  and  N_8
REMARK                            x       y       z     vdW  Elec       q    Type
REMARK                         _______ _______ _______ _____ _____    ______ ____
ROOT
ATOM      1  C   UNL A   1     -25.183  -0.609  27.693  0.00  0.00    +0.002 A 
ATOM      2  C   UNL A   1     -24.747  -0.990  28.754  0.00  0.00    +0.006 A 
ATOM      3  C   UNL A   1     -24.043  -0.207  29.654  0.00  0.00    +0.036 A 
ATOM      4  C   UNL A   1     -23.847   1.162  29.307  0.00  0.00    +0.026 A 
ATOM      5  C   UNL A   1     -24.475   1.597  28.202  0.00  0.00    +0.082 A 
ATOM      6  C   UNL A   1     -25.156   0.794  27.436  0.00  0.00    +0.019 A 
ATOM      7 BR   UNL A   1     -23.234  -0.889  31.233  0.00  0.00    -0.049 Br
ENDROOT
BRANCH   2   8
ATOM      8  C   UNL A   1     -24.778  -2.543  29.201  0.00  0.00    +0.001 A 
ATOM      9  C   UNL A   1     -25.892  -3.006  29.716  0.00  0.00    +0.000 A 
ATOM     10  C   UNL A   1     -26.191  -4.043  29.692  0.00  0.00    +0.000 A 
ATOM     11  C   UNL A   1     -25.410  -5.217  29.278  0.00  0.00    +0.000 A 
ATOM     12  C   UNL A   1     -24.185  -4.783  28.692  0.00  0.00    +0.000 A 
ATOM     13  C   UNL A   1     -23.921  -3.394  28.582  0.00  0.00    +0.000 A 
ENDBRANCH   2   8
BRANCH   5  14
ATOM     14  N   UNL A   1     -24.296   2.947  27.905  0.00  0.00    -0.248 NA
ATOM     15  C   UNL A   1     -25.193   3.682  27.409  0.00  0.00    +0.073 C 
ATOM     16  C   UNL A   1     -24.847   5.032  26.967  0.00  0.00    +0.053 C 
ENDBRANCH   5  14
TORSDOF 2
ENDMDL
ENDMDL
