MODEL 4843
MODEL 1
REMARK VINA RESULT:    -6.610      0.000      0.000
REMARK INTER + INTRA:          -7.844
REMARK INTER:                  -7.383
REMARK INTRA:                  -0.461
REMARK UNBOUND:                -0.461
REMARK  Name = No_4843-gen_results/8p0m/2024-11-26-14-13-15/
REMARK  2 active torsions:
REMARK  status: ('A' for Active; 'I' for Inactive)
REMARK    1  A    between atoms: C_3  and  C_4
REMARK    2  A    between atoms: C_4  and  C_8
REMARK                            x       y       z     vdW  Elec       q    Type
REMARK                         _______ _______ _______ _____ _____    ______ ____
ROOT
ATOM      1  C   UNL A   1     -24.342  -1.407  29.334  0.00  0.00    +0.053 C 
ENDROOT
BRANCH   1   4
ATOM      2  C   UNL A   1     -24.284   0.408  27.481  0.00  0.00    -0.004 A 
ATOM      3  C   UNL A   1     -23.651   1.132  27.050  0.00  0.00    -0.000 A 
ATOM      4  C   UNL A   1     -23.634  -0.399  28.513  0.00  0.00    -0.018 A 
ATOM      5  C   UNL A   1     -22.262   1.528  27.239  0.00  0.00    -0.000 A 
ATOM      6  C   UNL A   1     -21.610   0.780  28.197  0.00  0.00    -0.000 A 
ATOM      7  C   UNL A   1     -22.287  -0.156  28.887  0.00  0.00    -0.004 A 
ENDBRANCH   1   4
BRANCH   1   8
ATOM      8  C   UNL A   1     -24.717  -2.488  29.138  0.00  0.00    -0.018 A 
ATOM      9  C   UNL A   1     -25.885  -2.907  29.938  0.00  0.00    -0.004 A 
ATOM     10  C   UNL A   1     -26.214  -4.334  29.676  0.00  0.00    -0.000 A 
ATOM     11  C   UNL A   1     -25.337  -5.244  29.173  0.00  0.00    -0.000 A 
ATOM     12  C   UNL A   1     -24.165  -4.778  28.624  0.00  0.00    -0.000 A 
ATOM     13  C   UNL A   1     -23.838  -3.443  28.627  0.00  0.00    -0.004 A 
ENDBRANCH   1   8
TORSDOF 2
ENDMDL
ENDMDL
