MODEL 4844
MODEL 1
REMARK VINA RESULT:    -4.469      0.000      0.000
REMARK INTER + INTRA:          -5.100
REMARK INTER:                  -4.992
REMARK INTRA:                  -0.108
REMARK UNBOUND:                -0.108
REMARK  Name = No_4844-gen_results/8p0m/2024-11-26-14-13-15/
REMARK  2 active torsions:
REMARK  status: ('A' for Active; 'I' for Inactive)
REMARK    1  A    between atoms: C_2  and  C_3
REMARK    2  A    between atoms: C_5  and  C_6
REMARK                            x       y       z     vdW  Elec       q    Type
REMARK                         _______ _______ _______ _____ _____    ______ ____
ROOT
ATOM      1  C   UNL A   1      -9.967  -9.736  18.572  0.00  0.00    +0.069 C 
ATOM      2  C   UNL A   1      -9.487  -9.201  19.889  0.00  0.00    -0.020 C 
ENDROOT
BRANCH   1   4
ATOM      3  O   UNL A   1      -9.550 -11.217  17.078  0.00  0.00    -0.254 OA
ATOM      4  C   UNL A   1      -9.500 -10.188  17.762  0.00  0.00    +0.333 C 
ATOM      5  F   UNL A   1      -8.529  -9.204  17.041  0.00  0.00    -0.159 F 
ENDBRANCH   1   4
BRANCH   2   6
ATOM      6  C   UNL A   1      -8.056  -9.616  20.077  0.00  0.00    +0.026 C 
ATOM      7  C   UNL A   1      -7.048  -8.581  19.965  0.00  0.00    +0.005 C 
ENDBRANCH   2   6
TORSDOF 2
ENDMDL
ENDMDL
