REMARK  Name = No_4844-gen_results/8p0m/2024-11-26-14-13-15/
REMARK  2 active torsions:
REMARK  status: ('A' for Active; 'I' for Inactive)
REMARK    1  A    between atoms: C_2  and  C_3
REMARK    2  A    between atoms: C_5  and  C_6
REMARK                            x       y       z     vdW  Elec       q    Type
REMARK                         _______ _______ _______ _____ _____    ______ ____
ROOT
ATOM      1  C   UNL A   1     -26.402  -0.062  28.622  0.00  0.00    +0.069 C 
ATOM      2  C   UNL A   1     -24.939   0.167  28.861  0.00  0.00    -0.020 C 
ENDROOT
BRANCH   1   4
ATOM      3  O   UNL A   1     -28.123  -1.335  28.487  0.00  0.00    -0.254 OA
ATOM      4  C   UNL A   1     -27.064  -0.824  28.869  0.00  0.00    +0.333 C 
ATOM      5  F   UNL A   1     -26.475  -1.757  29.971  0.00  0.00    -0.159 F 
ENDBRANCH   1   4
BRANCH   2   6
ATOM      6  C   UNL A   1     -24.447  -0.873  29.827  0.00  0.00    +0.026 C 
ATOM      7  C   UNL A   1     -23.050  -0.814  30.205  0.00  0.00    +0.005 C 
ENDBRANCH   2   6
TORSDOF 2
