MODEL 4845
MODEL 1
REMARK VINA RESULT:    -7.412      0.000      0.000
REMARK INTER + INTRA:          -7.119
REMARK INTER:                  -8.279
REMARK INTRA:                   1.160
REMARK UNBOUND:                 1.160
REMARK  Name = No_4845-gen_results/8p0m/2024-11-26-14-13-15/
REMARK  3 active torsions:
REMARK  status: ('A' for Active; 'I' for Inactive)
REMARK    1  A    between atoms: C_2  and  C_4
REMARK    2  A    between atoms: C_4  and  C_6
REMARK    3  A    between atoms: C_15  and  C_17
REMARK                            x       y       z     vdW  Elec       q    Type
REMARK                         _______ _______ _______ _____ _____    ______ ____
ROOT
ATOM      1  C   UNL A   1     -24.142  -0.528  28.535  0.00  0.00    +0.049 C 
ATOM      2  C   UNL A   1     -24.340  -0.021  27.339  0.00  0.00    -0.023 A 
ATOM      3  C   UNL A   1     -23.558   1.117  26.939  0.00  0.00    +0.001 A 
ATOM      4  C   UNL A   1     -23.873   1.925  25.824  0.00  0.00    +0.136 A 
ATOM      5  C   UNL A   1     -24.879   1.484  24.970  0.00  0.00    +0.029 A 
ATOM      6  C   UNL A   1     -25.590   0.271  25.286  0.00  0.00    +0.002 A 
ATOM      7  C   UNL A   1     -25.292  -0.417  26.414  0.00  0.00    -0.004 A 
ATOM      8  C   UNL A   1     -22.539   1.725  27.804  0.00  0.00    +0.028 C 
ATOM      9  C   UNL A   1     -21.390   0.909  27.868  0.00  0.00    +0.006 C 
ATOM     10  C   UNL A   1     -22.881   0.007  29.228  0.00  0.00    +0.145 C 
ATOM     11  C   UNL A   1     -21.546  -0.029  28.933  0.00  0.00    +0.022 C 
ATOM     12  F   UNL A   1     -23.251   2.980  25.441  0.00  0.00    -0.204 F 
ATOM     13 BR   UNL A   1     -23.774   0.273  29.969  0.00  0.00    -0.071 Br
ENDROOT
BRANCH  10  14
ATOM     14  C   UNL A   1     -23.066   0.168  30.778  0.00  0.00    +0.374 C 
ATOM     15  O   UNL A   1     -23.451   1.204  31.213  0.00  0.00    -0.245 OA
ATOM     16  O   UNL A   1     -22.712  -0.807  31.584  0.00  0.00    -0.245 OA
ENDBRANCH  10  14
BRANCH   1  17
ATOM     17  C   UNL A   1     -25.170  -0.741  29.408  0.00  0.00    +0.082 C 
ATOM     18  C   UNL A   1     -26.543   0.174  29.331  0.00  0.00    +0.007 C 
BRANCH  17  20
ATOM     19 CL   UNL A   1     -24.842  -3.076  28.963  0.00  0.00    -0.047 Cl
ATOM     20  C   UNL A   1     -25.628  -2.195  29.641  0.00  0.00    +0.330 C 
ATOM     21  F   UNL A   1     -26.799  -2.218  29.360  0.00  0.00    -0.187 F 
ATOM     22  F   UNL A   1     -25.538  -2.356  30.980  0.00  0.00    -0.187 F 
ENDBRANCH  17  20
ENDBRANCH   1  17
TORSDOF 3
ENDMDL
ENDMDL
