REMARK  Name = No_4845-gen_results/8p0m/2024-11-26-14-13-15/
REMARK  3 active torsions:
REMARK  status: ('A' for Active; 'I' for Inactive)
REMARK    1  A    between atoms: C_2  and  C_4
REMARK    2  A    between atoms: C_4  and  C_6
REMARK    3  A    between atoms: C_15  and  C_17
REMARK                            x       y       z     vdW  Elec       q    Type
REMARK                         _______ _______ _______ _____ _____    ______ ____
ROOT
ATOM      1  C   UNL A   1     -25.392   0.014  29.173  0.00  0.00    +0.049 C 
ATOM      2  C   UNL A   1     -24.576   0.603  28.327  0.00  0.00    -0.023 A 
ATOM      3  C   UNL A   1     -23.164   0.547  28.585  0.00  0.00    +0.001 A 
ATOM      4  C   UNL A   1     -22.220   1.373  27.934  0.00  0.00    +0.136 A 
ATOM      5  C   UNL A   1     -22.665   2.142  26.863  0.00  0.00    +0.029 A 
ATOM      6  C   UNL A   1     -24.060   2.112  26.505  0.00  0.00    +0.002 A 
ATOM      7  C   UNL A   1     -24.929   1.358  27.220  0.00  0.00    -0.004 A 
ATOM      8  C   UNL A   1     -22.594  -0.152  29.743  0.00  0.00    +0.028 C 
ATOM      9  C   UNL A   1     -22.655  -1.549  29.560  0.00  0.00    +0.006 C 
ATOM     10  C   UNL A   1     -24.678  -0.905  30.175  0.00  0.00    +0.145 C 
ATOM     11  C   UNL A   1     -23.907  -2.028  30.053  0.00  0.00    +0.022 C 
ATOM     12  F   UNL A   1     -20.956   1.412  28.151  0.00  0.00    -0.204 F 
ATOM     13 BR   UNL A   1     -25.259  -0.112  30.846  0.00  0.00    -0.071 Br
ENDROOT
BRANCH  10  14
ATOM     14  C   UNL A   1     -25.348  -0.886  31.594  0.00  0.00    +0.374 C 
ATOM     15  O   UNL A   1     -24.713  -0.530  32.532  0.00  0.00    -0.245 OA
ATOM     16  O   UNL A   1     -26.569  -1.346  31.747  0.00  0.00    -0.245 OA
ENDBRANCH  10  14
BRANCH   1  17
ATOM     17  C   UNL A   1     -26.454   0.669  29.727  0.00  0.00    +0.082 C 
ATOM     18  C   UNL A   1     -26.335   2.262  30.146  0.00  0.00    +0.007 C 
BRANCH  17  20
ATOM     19 CL   UNL A   1     -28.149  -0.820  28.908  0.00  0.00    -0.047 Cl
ATOM     20  C   UNL A   1     -27.834   0.496  29.060  0.00  0.00    +0.330 C 
ATOM     21  F   UNL A   1     -27.790   1.142  28.045  0.00  0.00    -0.187 F 
ATOM     22  F   UNL A   1     -28.684   1.130  29.898  0.00  0.00    -0.187 F 
ENDBRANCH  17  20
ENDBRANCH   1  17
TORSDOF 3
