MODEL 4846
MODEL 1
REMARK VINA RESULT:    -6.901      0.000      0.000
REMARK INTER + INTRA:         -10.054
REMARK INTER:                  -8.515
REMARK INTRA:                  -1.539
REMARK UNBOUND:                -1.539
REMARK  Name = No_4846-gen_results/8p0m/2024-11-26-14-13-15/
REMARK  4 active torsions:
REMARK  status: ('A' for Active; 'I' for Inactive)
REMARK    1  A    between atoms: C_1  and  C_3
REMARK    2  A    between atoms: C_3  and  C_4
REMARK    3  A    between atoms: C_4  and  C_17
REMARK    4  A    between atoms: C_5  and  C_6
REMARK                            x       y       z     vdW  Elec       q    Type
REMARK                         _______ _______ _______ _____ _____    ______ ____
ROOT
ATOM      1  C   UNL A   1     -23.613  -0.212  28.474  0.00  0.00    -0.044 C 
ATOM      2  C   UNL A   1     -24.063  -1.056  28.961  0.00  0.00    -0.029 C 
ATOM      3  C   UNL A   1     -23.127  -1.428  30.217  0.00  0.00    +0.030 C 
ENDROOT
BRANCH   2   4
ATOM      4  C   UNL A   1     -24.657  -2.196  28.891  0.00  0.00    -0.004 A 
ATOM      5  C   UNL A   1     -25.863  -2.565  29.522  0.00  0.00    -0.000 A 
ATOM      6  C   UNL A   1     -26.304  -3.854  29.761  0.00  0.00    -0.000 A 
ATOM      7  C   UNL A   1     -25.521  -4.892  29.329  0.00  0.00    -0.000 A 
ATOM      8  C   UNL A   1     -24.298  -4.705  28.694  0.00  0.00    -0.000 A 
ATOM      9  C   UNL A   1     -23.866  -3.410  28.553  0.00  0.00    -0.000 A 
ENDBRANCH   2   4
BRANCH   1  10
ATOM     10  C   UNL A   1     -22.147   0.316  28.522  0.00  0.00    +0.022 C 
ATOM     11  C   UNL A   1     -21.668   1.361  27.746  0.00  0.00    +0.005 C 
ENDBRANCH   1  10
BRANCH   1  12
ATOM     12  C   UNL A   1     -24.175   0.765  27.522  0.00  0.00    +0.048 C 
BRANCH  12  13
ATOM     13  C   UNL A   1     -25.190   0.363  26.540  0.00  0.00    -0.018 A 
ATOM     14  C   UNL A   1     -24.810   0.256  25.564  0.00  0.00    -0.004 A 
ATOM     15  C   UNL A   1     -25.799  -0.067  24.355  0.00  0.00    -0.000 A 
ATOM     16  C   UNL A   1     -27.128  -0.096  24.756  0.00  0.00    -0.000 A 
ATOM     17  C   UNL A   1     -27.553   0.446  25.920  0.00  0.00    -0.000 A 
ATOM     18  C   UNL A   1     -26.523   0.795  26.876  0.00  0.00    -0.004 A 
ENDBRANCH  12  13
ENDBRANCH   1  12
TORSDOF 4
ENDMDL
ENDMDL
