MODEL 4847
MODEL 1
REMARK VINA RESULT:    -4.446      0.000      0.000
REMARK INTER + INTRA:          -4.446
REMARK INTER:                  -4.446
REMARK INTRA:                   0.000
REMARK UNBOUND:                 0.000
REMARK  Name = No_4847-gen_results/8p0m/2024-11-26-14-13-15/
REMARK  0 active torsions:
REMARK  status: ('A' for Active; 'I' for Inactive)
REMARK                            x       y       z     vdW  Elec       q    Type
REMARK                         _______ _______ _______ _____ _____    ______ ____
ROOT
ATOM      1  C   UNL A   1     -10.314  -9.113  19.434  0.00  0.00    +0.001 A 
ATOM      2  C   UNL A   1      -9.399  -9.139  20.225  0.00  0.00    +0.011 A 
ATOM      3  C   UNL A   1      -8.211  -9.834  20.007  0.00  0.00    +0.058 A 
ATOM      4  C   UNL A   1      -8.066 -10.623  18.798  0.00  0.00    +0.011 A 
ATOM      5  C   UNL A   1      -9.177 -10.552  17.927  0.00  0.00    +0.001 A 
ATOM      6  C   UNL A   1     -10.257  -9.874  18.223  0.00  0.00    +0.000 A 
ATOM      7 CL   UNL A   1      -6.884  -9.901  21.091  0.00  0.00    -0.082 Cl
ENDROOT
TORSDOF 0
ENDMDL
ENDMDL
