MODEL 4848
MODEL 1
REMARK VINA RESULT:    -6.784      0.000      0.000
REMARK INTER + INTRA:          -8.040
REMARK INTER:                  -7.577
REMARK INTRA:                  -0.463
REMARK UNBOUND:                -0.463
REMARK  Name = No_4848-gen_results/8p0m/2024-11-26-14-13-15/
REMARK  2 active torsions:
REMARK  status: ('A' for Active; 'I' for Inactive)
REMARK    1  A    between atoms: C_4  and  C_8
REMARK    2  A    between atoms: C_8  and  C_9
REMARK                            x       y       z     vdW  Elec       q    Type
REMARK                         _______ _______ _______ _____ _____    ______ ____
ROOT
ATOM      1  C   UNL A   1     -24.128   1.084  26.511  0.00  0.00    +0.011 A 
ATOM      2  C   UNL A   1     -23.143   1.451  26.582  0.00  0.00    +0.058 A 
ATOM      3  C   UNL A   1     -24.510   0.042  27.539  0.00  0.00    -0.003 A 
ATOM      4  C   UNL A   1     -23.611  -0.260  28.583  0.00  0.00    -0.018 A 
ATOM      5  C   UNL A   1     -22.045   1.332  27.568  0.00  0.00    +0.011 A 
ATOM      6  C   UNL A   1     -22.362   0.387  28.533  0.00  0.00    -0.003 A 
ATOM      7 CL   UNL A   1     -22.827   2.626  25.248  0.00  0.00    -0.082 Cl
ENDROOT
BRANCH   4   8
ATOM      8  C   UNL A   1     -23.936  -1.235  29.594  0.00  0.00    +0.053 C 
BRANCH   8   9
ATOM      9  C   UNL A   1     -24.519  -2.417  29.286  0.00  0.00    -0.018 A 
ATOM     10  C   UNL A   1     -25.851  -2.680  29.822  0.00  0.00    -0.004 A 
ATOM     11  C   UNL A   1     -23.817  -3.466  28.708  0.00  0.00    -0.004 A 
ATOM     12  C   UNL A   1     -24.353  -4.806  28.875  0.00  0.00    -0.000 A 
ATOM     13  C   UNL A   1     -26.393  -3.952  29.796  0.00  0.00    -0.000 A 
ATOM     14  C   UNL A   1     -25.669  -5.019  29.370  0.00  0.00    -0.000 A 
ENDBRANCH   8   9
ENDBRANCH   4   8
TORSDOF 2
ENDMDL
ENDMDL
