REMARK  Name = No_4849-gen_results/8p0m/2024-11-26-14-13-15/
REMARK  3 active torsions:
REMARK  status: ('A' for Active; 'I' for Inactive)
REMARK    1  A    between atoms: C_2  and  C_8
REMARK    2  A    between atoms: N_9  and  C_12
REMARK    3  A    between atoms: C_12  and  C_13
REMARK                            x       y       z     vdW  Elec       q    Type
REMARK                         _______ _______ _______ _____ _____    ______ ____
ROOT
ATOM      1  C   UNL A   1     -27.107   1.110  27.759  0.00  0.00    +0.249 C 
ATOM      2  N   UNL A   1     -26.376   1.327  26.834  0.00  0.00    -0.270 N 
ATOM      3  O   UNL A   1     -28.109   1.880  27.908  0.00  0.00    -0.270 OA
ATOM      4  C   UNL A   1     -26.371   2.507  25.913  0.00  0.00    +0.116 C 
ENDROOT
BRANCH   1   6
ATOM      5  C   UNL A   1     -28.016  -0.814  28.878  0.00  0.00    +0.016 A 
ATOM      6  C   UNL A   1     -27.064  -0.119  28.608  0.00  0.00    +0.054 A 
ATOM      7  C   UNL A   1     -25.792  -0.430  29.076  0.00  0.00    +0.005 A 
ATOM      8  C   UNL A   1     -25.576  -1.565  29.936  0.00  0.00    +0.001 A 
ATOM      9  C   UNL A   1     -26.735  -2.300  30.217  0.00  0.00    +0.011 A 
ATOM     10  C   UNL A   1     -27.918  -1.954  29.763  0.00  0.00    +0.058 A 
ATOM     11 CL   UNL A   1     -29.268  -2.889  30.215  0.00  0.00    -0.082 Cl
ENDBRANCH   1   6
BRANCH   2  12
ATOM     12  C   UNL A   1     -25.159   0.524  26.518  0.00  0.00    +0.120 C 
BRANCH  12  13
ATOM     13  C   UNL A   1     -23.922   1.245  26.826  0.00  0.00    -0.009 C 
ATOM     14  C   UNL A   1     -23.291   1.418  28.116  0.00  0.00    -0.029 C 
ATOM     15  C   UNL A   1     -22.068   2.148  28.156  0.00  0.00    +0.030 C 
ENDBRANCH  12  13
ENDBRANCH   2  12
TORSDOF 3
