MODEL 484
MODEL 1
REMARK VINA RESULT:    -7.708      0.000      0.000
REMARK INTER + INTRA:          -9.596
REMARK INTER:                  -8.610
REMARK INTRA:                  -0.987
REMARK UNBOUND:                -0.987
REMARK  Name = No_484-gen_results/8p0m/2024-11-26-14-13-15/
REMARK  2 active torsions:
REMARK  status: ('A' for Active; 'I' for Inactive)
REMARK    1  A    between atoms: C_2  and  C_7
REMARK    2  A    between atoms: C_8  and  C_10
REMARK                            x       y       z     vdW  Elec       q    Type
REMARK                         _______ _______ _______ _____ _____    ______ ____
ROOT
ATOM      1  C   UNL A   1     -23.922  -1.183  28.594  0.00  0.00    +0.000 A 
ATOM      2  C   UNL A   1     -24.160  -0.319  27.765  0.00  0.00    +0.000 A 
ATOM      3  C   UNL A   1     -22.726  -0.994  29.432  0.00  0.00    +0.000 A 
ATOM      4  C   UNL A   1     -23.293   0.842  27.489  0.00  0.00    +0.000 A 
ATOM      5  C   UNL A   1     -22.144   1.037  28.130  0.00  0.00    +0.000 A 
ATOM      6  C   UNL A   1     -21.841   0.070  29.206  0.00  0.00    +0.000 A 
ENDROOT
BRANCH   1   8
ATOM      7  C   UNL A   1     -25.761  -2.442  29.478  0.00  0.00    +0.000 A 
ATOM      8  C   UNL A   1     -24.681  -2.416  28.935  0.00  0.00    +0.000 A 
ATOM      9  C   UNL A   1     -24.041  -3.589  28.553  0.00  0.00    +0.000 A 
ATOM     10  C   UNL A   1     -24.623  -4.877  28.833  0.00  0.00    +0.000 A 
ATOM     11  C   UNL A   1     -25.862  -4.815  29.484  0.00  0.00    +0.000 A 
ATOM     12  C   UNL A   1     -26.418  -3.679  29.839  0.00  0.00    +0.000 A 
ENDBRANCH   1   8
BRANCH   2  13
ATOM     13  C   UNL A   1     -25.340  -0.305  26.967  0.00  0.00    +0.000 A 
ATOM     14  C   UNL A   1     -25.288  -0.535  25.572  0.00  0.00    +0.000 A 
ATOM     15  C   UNL A   1     -26.576   0.220  27.506  0.00  0.00    +0.000 A 
ATOM     16  C   UNL A   1     -27.548   0.794  26.706  0.00  0.00    +0.000 A 
ATOM     17  C   UNL A   1     -26.438  -0.191  24.708  0.00  0.00    +0.000 A 
ATOM     18  C   UNL A   1     -27.570   0.450  25.296  0.00  0.00    +0.000 A 
ENDBRANCH   2  13
TORSDOF 2
ENDMDL
ENDMDL
