MODEL 4850
MODEL 1
REMARK VINA RESULT:    -3.071      0.000      0.000
REMARK INTER + INTRA:          -3.071
REMARK INTER:                  -3.071
REMARK INTRA:                   0.000
REMARK UNBOUND:                 0.000
REMARK  Name = No_4850-gen_results/8p0m/2024-11-26-14-13-15/
REMARK  0 active torsions:
REMARK  status: ('A' for Active; 'I' for Inactive)
REMARK                            x       y       z     vdW  Elec       q    Type
REMARK                         _______ _______ _______ _____ _____    ______ ____
ROOT
ATOM      1  O   UNL A   1     -11.099 -10.436  16.909  0.00  0.00    -0.219 OA
ATOM      2  C   UNL A   1     -10.206 -10.329  17.620  0.00  0.00    +0.483 C 
ATOM      3  F   UNL A   1     -10.116  -9.403  18.350  0.00  0.00    -0.132 F 
ATOM      4  F   UNL A   1      -9.067 -10.714  17.092  0.00  0.00    -0.132 F 
ENDROOT
TORSDOF 0
ENDMDL
ENDMDL
