REMARK  Name = No_4851-gen_results/8p0m/2024-11-26-14-13-15/
REMARK  2 active torsions:
REMARK  status: ('A' for Active; 'I' for Inactive)
REMARK    1  A    between atoms: C_1  and  C_3
REMARK    2  A    between atoms: C_2  and  C_5
REMARK                            x       y       z     vdW  Elec       q    Type
REMARK                         _______ _______ _______ _____ _____    ______ ____
ROOT
ATOM      1  C   UNL A   1     -28.016  -0.814  28.878  0.00  0.00    -0.000 C 
ATOM      2  C   UNL A   1     -28.469  -0.785  29.829  0.00  0.00    -0.000 C 
ENDROOT
BRANCH   1   3
ATOM      3  C   UNL A   1     -28.196   0.348  28.055  0.00  0.00    -0.005 C 
ATOM      4  C   UNL A   1     -29.019   1.350  28.378  0.00  0.00    -0.026 C 
ATOM      5  C   UNL A   1     -29.187   2.460  27.494  0.00  0.00    +0.031 C 
ENDBRANCH   1   3
BRANCH   2   6
ATOM      6  C   UNL A   1     -29.411   0.180  30.378  0.00  0.00    -0.000 C 
ATOM      7  C   UNL A   1     -29.606   1.250  29.619  0.00  0.00    -0.000 C 
ENDBRANCH   2   6
TORSDOF 2
