MODEL 4851
MODEL 1
REMARK VINA RESULT:    -4.108      0.000      0.000
REMARK INTER + INTRA:          -4.803
REMARK INTER:                  -4.588
REMARK INTRA:                  -0.215
REMARK UNBOUND:                -0.215
REMARK  Name = No_4851-gen_results/8p0m/2024-11-26-14-13-15/
REMARK  2 active torsions:
REMARK  status: ('A' for Active; 'I' for Inactive)
REMARK    1  A    between atoms: C_1  and  C_3
REMARK    2  A    between atoms: C_2  and  C_5
REMARK                            x       y       z     vdW  Elec       q    Type
REMARK                         _______ _______ _______ _____ _____    ______ ____
ROOT
ATOM      1  C   UNL A   1      -7.536  -8.688  19.490  0.00  0.00    -0.000 C 
ATOM      2  C   UNL A   1      -7.017  -9.029  20.342  0.00  0.00    -0.000 C 
ENDROOT
BRANCH   1   3
ATOM      3  C   UNL A   1      -8.748  -9.383  19.165  0.00  0.00    -0.005 C 
ATOM      4  C   UNL A   1      -9.068  -9.748  17.920  0.00  0.00    -0.026 C 
ATOM      5  C   UNL A   1     -10.312 -10.400  17.655  0.00  0.00    +0.031 C 
ENDBRANCH   1   3
BRANCH   2   6
ATOM      6  C   UNL A   1      -7.240 -10.223  21.145  0.00  0.00    -0.000 C 
ATOM      7  C   UNL A   1      -6.403 -10.363  22.164  0.00  0.00    -0.000 C 
ENDBRANCH   2   6
TORSDOF 2
ENDMDL
ENDMDL
