MODEL 4852
MODEL 1
REMARK VINA RESULT:    -5.522      0.000      0.000
REMARK INTER + INTRA:          -5.522
REMARK INTER:                  -5.522
REMARK INTRA:                   0.000
REMARK UNBOUND:                 0.000
REMARK  Name = No_4852-gen_results/8p0m/2024-11-26-14-13-15/
REMARK  0 active torsions:
REMARK  status: ('A' for Active; 'I' for Inactive)
REMARK                            x       y       z     vdW  Elec       q    Type
REMARK                         _______ _______ _______ _____ _____    ______ ____
ROOT
ATOM      1  C   UNL A   1     -22.892   2.272  25.904  0.00  0.00    +0.030 A 
ATOM      2  C   UNL A   1     -23.854   1.867  25.756  0.00  0.00    +0.002 A 
ATOM      3  C   UNL A   1     -22.140   1.740  27.104  0.00  0.00    +0.140 A 
ATOM      4  C   UNL A   1     -22.686   0.669  27.842  0.00  0.00    +0.028 A 
ATOM      5  C   UNL A   1     -24.625   0.747  26.341  0.00  0.00    +0.000 A 
ATOM      6  C   UNL A   1     -23.962   0.228  27.444  0.00  0.00    +0.002 A 
ATOM      7  C   UNL A   1     -22.031   0.140  28.990  0.00  0.00    +0.002 A 
ATOM      8  C   UNL A   1     -22.340  -0.753  29.568  0.00  0.00    +0.000 A 
ATOM      9  C   UNL A   1     -23.670  -1.362  29.220  0.00  0.00    +0.000 A 
ATOM     10  C   UNL A   1     -24.460  -0.844  28.245  0.00  0.00    +0.000 A 
ATOM     11  F   UNL A   1     -20.929   2.195  27.419  0.00  0.00    -0.204 F 
ENDROOT
TORSDOF 0
ENDMDL
ENDMDL
