REMARK  Name = No_4853-gen_results/8p0m/2024-11-26-14-13-15/
REMARK  0 active torsions:
REMARK  status: ('A' for Active; 'I' for Inactive)
REMARK                            x       y       z     vdW  Elec       q    Type
REMARK                         _______ _______ _______ _____ _____    ______ ____
ROOT
ATOM      1  O   UNL A   1     -28.123  -1.335  28.487  0.00  0.00    -0.259 OA
ATOM      2  C   UNL A   1     -27.481  -0.404  28.709  0.00  0.00    +0.312 C 
ATOM      3  C   UNL A   1     -27.190   0.246  29.527  0.00  0.00    -0.005 C 
ATOM      4  N   UNL A   1     -26.816   0.137  27.426  0.00  0.00    -0.167 NA
ATOM      5  C   UNL A   1     -26.518   0.616  30.204  0.00  0.00    -0.077 C 
ATOM      6  C   UNL A   1     -25.826   1.114  27.538  0.00  0.00    +0.086 C 
ATOM      7  C   UNL A   1     -25.198   1.715  28.573  0.00  0.00    +0.006 C 
ATOM      8  C   UNL A   1     -25.509   1.575  29.897  0.00  0.00    +0.104 C 
ENDROOT
TORSDOF 0
