MODEL 4853
MODEL 1
REMARK VINA RESULT:    -4.664      0.000      0.000
REMARK INTER + INTRA:          -4.664
REMARK INTER:                  -4.664
REMARK INTRA:                   0.000
REMARK UNBOUND:                 0.000
REMARK  Name = No_4853-gen_results/8p0m/2024-11-26-14-13-15/
REMARK  0 active torsions:
REMARK  status: ('A' for Active; 'I' for Inactive)
REMARK                            x       y       z     vdW  Elec       q    Type
REMARK                         _______ _______ _______ _____ _____    ______ ____
ROOT
ATOM      1  O   UNL A   1     -27.866  -4.496  29.958  0.00  0.00    -0.259 OA
ATOM      2  C   UNL A   1     -26.736  -4.377  29.771  0.00  0.00    +0.312 C 
ATOM      3  C   UNL A   1     -25.849  -4.963  29.552  0.00  0.00    -0.005 C 
ATOM      4  N   UNL A   1     -26.301  -2.901  29.885  0.00  0.00    -0.167 NA
ATOM      5  C   UNL A   1     -25.098  -5.286  28.938  0.00  0.00    -0.077 C 
ATOM      6  C   UNL A   1     -25.021  -2.539  29.466  0.00  0.00    +0.086 C 
ATOM      7  C   UNL A   1     -23.995  -3.191  28.874  0.00  0.00    +0.006 C 
ATOM      8  C   UNL A   1     -23.926  -4.535  28.633  0.00  0.00    +0.104 C 
ENDROOT
TORSDOF 0
ENDMDL
ENDMDL
