REMARK  Name = No_4854-gen_results/8p0m/2024-11-26-14-13-15/
REMARK  3 active torsions:
REMARK  status: ('A' for Active; 'I' for Inactive)
REMARK    1  A    between atoms: C_3  and  C_10
REMARK    2  A    between atoms: C_5  and  C_7
REMARK    3  A    between atoms: C_11  and  C_17
REMARK                            x       y       z     vdW  Elec       q    Type
REMARK                         _______ _______ _______ _____ _____    ______ ____
ROOT
ATOM      1  C   UNL A   1     -25.658   1.406  27.142  0.00  0.00    +0.023 C 
ATOM      2  C   UNL A   1     -25.125   2.305  28.157  0.00  0.00    +0.026 C 
ATOM      3  C   UNL A   1     -24.024   2.390  28.606  0.00  0.00    +0.005 C 
ATOM      4  C   UNL A   1     -22.927   1.629  27.869  0.00  0.00    +0.000 C 
ATOM      5  C   UNL A   1     -23.312   0.890  26.801  0.00  0.00    +0.000 C 
ATOM      6  C   UNL A   1     -24.547   0.334  26.947  0.00  0.00    +0.004 C 
ATOM      7  C   UNL A   1     -25.805   2.197  25.810  0.00  0.00    +0.005 C 
ENDROOT
BRANCH   1  10
ATOM      8  C   UNL A   1     -28.016  -0.814  28.878  0.00  0.00    -0.000 A 
ATOM      9  C   UNL A   1     -27.064  -0.119  28.608  0.00  0.00    -0.004 A 
ATOM     10  C   UNL A   1     -26.972   0.714  27.506  0.00  0.00    -0.022 A 
ATOM     11  C   UNL A   1     -28.105   0.774  26.642  0.00  0.00    +0.002 A 
ATOM     12  C   UNL A   1     -29.204   0.118  27.048  0.00  0.00    +0.080 A 
ATOM     13  C   UNL A   1     -29.213  -0.609  28.128  0.00  0.00    +0.007 A 
BRANCH  12  14
ATOM     14  C   UNL A   1     -30.264   0.246  25.992  0.00  0.00    +0.388 C 
ATOM     15  O   UNL A   1     -30.186   0.412  24.859  0.00  0.00    -0.241 OA
ATOM     16  O   UNL A   1     -31.521  -0.086  26.465  0.00  0.00    -0.241 OA
ENDBRANCH  12  14
ENDBRANCH   1  10
BRANCH   2  17
ATOM     17  C   UNL A   1     -26.187   3.310  28.761  0.00  0.00    -0.022 A 
ATOM     18  C   UNL A   1     -26.168   3.560  30.031  0.00  0.00    -0.004 A 
ATOM     19  C   UNL A   1     -27.101   4.460  30.615  0.00  0.00    -0.000 A 
ATOM     20  C   UNL A   1     -28.144   4.892  29.860  0.00  0.00    -0.000 A 
ATOM     21  C   UNL A   1     -28.232   4.571  28.503  0.00  0.00    -0.000 A 
ATOM     22  C   UNL A   1     -27.224   3.759  27.944  0.00  0.00    -0.004 A 
ENDBRANCH   2  17
TORSDOF 3
