MODEL 4854
MODEL 1
REMARK VINA RESULT:    -8.011      0.000      0.000
REMARK INTER + INTRA:         -11.020
REMARK INTER:                  -9.415
REMARK INTRA:                  -1.605
REMARK UNBOUND:                -1.605
REMARK  Name = No_4854-gen_results/8p0m/2024-11-26-14-13-15/
REMARK  3 active torsions:
REMARK  status: ('A' for Active; 'I' for Inactive)
REMARK    1  A    between atoms: C_3  and  C_10
REMARK    2  A    between atoms: C_5  and  C_7
REMARK    3  A    between atoms: C_11  and  C_17
REMARK                            x       y       z     vdW  Elec       q    Type
REMARK                         _______ _______ _______ _____ _____    ______ ____
ROOT
ATOM      1  C   UNL A   1     -23.241  -0.226  29.476  0.00  0.00    +0.023 C 
ATOM      2  C   UNL A   1     -24.200  -0.813  28.550  0.00  0.00    +0.026 C 
ATOM      3  C   UNL A   1     -24.697  -0.356  27.567  0.00  0.00    +0.005 C 
ATOM      4  C   UNL A   1     -24.088   0.936  27.033  0.00  0.00    +0.000 C 
ATOM      5  C   UNL A   1     -23.070   1.469  27.749  0.00  0.00    +0.000 C 
ATOM      6  C   UNL A   1     -23.199   1.281  29.092  0.00  0.00    +0.004 C 
ATOM      7  C   UNL A   1     -21.840  -0.838  29.188  0.00  0.00    +0.005 C 
ENDROOT
BRANCH   1  10
ATOM      8  C   UNL A   1     -23.209  -1.502  32.922  0.00  0.00    -0.000 A 
ATOM      9  C   UNL A   1     -22.901  -1.228  31.785  0.00  0.00    -0.004 A 
ATOM     10  C   UNL A   1     -23.595  -0.362  30.957  0.00  0.00    -0.022 A 
ATOM     11  C   UNL A   1     -24.748   0.275  31.505  0.00  0.00    +0.002 A 
ATOM     12  C   UNL A   1     -24.977   0.077  32.814  0.00  0.00    +0.080 A 
ATOM     13  C   UNL A   1     -24.241  -0.724  33.529  0.00  0.00    +0.007 A 
BRANCH  12  14
ATOM     14  C   UNL A   1     -26.253   0.772  33.194  0.00  0.00    +0.388 C 
ATOM     15  O   UNL A   1     -27.317   0.369  33.342  0.00  0.00    -0.241 OA
ATOM     16  O   UNL A   1     -26.039   2.073  33.613  0.00  0.00    -0.241 OA
ENDBRANCH  12  14
ENDBRANCH   1  10
BRANCH   2  17
ATOM     17  C   UNL A   1     -24.658  -2.280  28.926  0.00  0.00    -0.022 A 
ATOM     18  C   UNL A   1     -23.944  -3.284  28.532  0.00  0.00    -0.004 A 
ATOM     19  C   UNL A   1     -24.316  -4.619  28.852  0.00  0.00    -0.000 A 
ATOM     20  C   UNL A   1     -25.541  -4.837  29.396  0.00  0.00    -0.000 A 
ATOM     21  C   UNL A   1     -26.367  -3.771  29.759  0.00  0.00    -0.000 A 
ATOM     22  C   UNL A   1     -25.909  -2.460  29.516  0.00  0.00    -0.004 A 
ENDBRANCH   2  17
TORSDOF 3
ENDMDL
ENDMDL
