MODEL 4855
MODEL 1
REMARK VINA RESULT:    -6.510      0.000      0.000
REMARK INTER + INTRA:          -7.024
REMARK INTER:                  -6.890
REMARK INTRA:                  -0.134
REMARK UNBOUND:                -0.134
REMARK  Name = No_4855-gen_results/8p0m/2024-11-26-14-13-15/
REMARK  1 active torsions:
REMARK  status: ('A' for Active; 'I' for Inactive)
REMARK    1  A    between atoms: C_11  and  C_14
REMARK                            x       y       z     vdW  Elec       q    Type
REMARK                         _______ _______ _______ _____ _____    ______ ____
ROOT
ATOM      1  C   UNL A   1     -22.349   1.606  27.671  0.00  0.00    -0.000 A 
ATOM      2  C   UNL A   1     -22.724   2.234  26.912  0.00  0.00    -0.000 A 
ATOM      3  C   UNL A   1     -23.134   0.399  27.975  0.00  0.00    -0.004 A 
ATOM      4  C   UNL A   1     -22.917  -0.541  29.064  0.00  0.00    -0.004 A 
ATOM      5  C   UNL A   1     -23.808   2.039  25.920  0.00  0.00    -0.000 A 
ATOM      6  C   UNL A   1     -24.595   0.913  26.135  0.00  0.00    -0.004 A 
ATOM      7  C   UNL A   1     -24.288   0.028  27.147  0.00  0.00    -0.018 A 
ATOM      8  C   UNL A   1     -22.701  -0.063  30.361  0.00  0.00    -0.000 A 
ATOM      9  C   UNL A   1     -23.056  -0.736  31.433  0.00  0.00    +0.000 A 
ATOM     10  C   UNL A   1     -24.112  -1.521  31.501  0.00  0.00    +0.006 A 
ATOM     11  C   UNL A   1     -24.885  -1.794  30.335  0.00  0.00    +0.076 A 
ATOM     12  C   UNL A   1     -24.523  -1.210  29.149  0.00  0.00    -0.011 A 
ATOM     13  C   UNL A   1     -25.018  -0.956  27.819  0.00  0.00    +0.053 C 
ENDROOT
BRANCH  11  14
ATOM     14  C   UNL A   1     -26.138  -2.465  30.268  0.00  0.00    +0.388 C 
ATOM     15  O   UNL A   1     -27.203  -1.953  30.428  0.00  0.00    -0.241 OA
ATOM     16  O   UNL A   1     -26.155  -3.757  29.694  0.00  0.00    -0.241 OA
ENDBRANCH  11  14
TORSDOF 1
ENDMDL
ENDMDL
