REMARK  Name = No_4855-gen_results/8p0m/2024-11-26-14-13-15/
REMARK  1 active torsions:
REMARK  status: ('A' for Active; 'I' for Inactive)
REMARK    1  A    between atoms: C_11  and  C_14
REMARK                            x       y       z     vdW  Elec       q    Type
REMARK                         _______ _______ _______ _____ _____    ______ ____
ROOT
ATOM      1  C   UNL A   1     -28.016  -0.814  28.878  0.00  0.00    -0.000 A 
ATOM      2  C   UNL A   1     -28.469  -0.785  29.829  0.00  0.00    -0.000 A 
ATOM      3  C   UNL A   1     -26.546  -0.876  28.850  0.00  0.00    -0.004 A 
ATOM      4  C   UNL A   1     -25.683  -0.777  27.683  0.00  0.00    -0.004 A 
ATOM      5  C   UNL A   1     -27.918  -1.003  31.188  0.00  0.00    -0.000 A 
ATOM      6  C   UNL A   1     -26.531  -1.079  31.246  0.00  0.00    -0.004 A 
ATOM      7  C   UNL A   1     -25.780  -1.046  30.090  0.00  0.00    -0.018 A 
ATOM      8  C   UNL A   1     -25.898   0.239  26.745  0.00  0.00    -0.000 A 
ATOM      9  C   UNL A   1     -24.926   0.763  26.032  0.00  0.00    +0.000 A 
ATOM     10  C   UNL A   1     -23.689   0.913  26.460  0.00  0.00    +0.006 A 
ATOM     11  C   UNL A   1     -23.291   0.378  27.720  0.00  0.00    +0.076 A 
ATOM     12  C   UNL A   1     -24.222  -0.274  28.486  0.00  0.00    -0.011 A 
ATOM     13  C   UNL A   1     -24.436  -0.769  29.823  0.00  0.00    +0.053 C 
ENDROOT
BRANCH  11  14
ATOM     14  C   UNL A   1     -22.062   0.600  28.403  0.00  0.00    +0.388 C 
ATOM     15  O   UNL A   1     -21.639  -0.070  29.294  0.00  0.00    -0.241 OA
ATOM     16  O   UNL A   1     -21.141   1.493  27.811  0.00  0.00    -0.241 OA
ENDBRANCH  11  14
TORSDOF 1
