MODEL 4856
MODEL 1
REMARK VINA RESULT:    -5.847      0.000      0.000
REMARK INTER + INTRA:          -7.158
REMARK INTER:                  -6.873
REMARK INTRA:                  -0.285
REMARK UNBOUND:                -0.285
REMARK  Name = No_4856-gen_results/8p0m/2024-11-26-14-13-15/
REMARK  3 active torsions:
REMARK  status: ('A' for Active; 'I' for Inactive)
REMARK    1  A    between atoms: C_1  and  C_2
REMARK    2  A    between atoms: C_1  and  N_8
REMARK    3  A    between atoms: C_5  and  C_9
REMARK                            x       y       z     vdW  Elec       q    Type
REMARK                         _______ _______ _______ _____ _____    ______ ____
ROOT
ATOM      1  C   UNL A   1     -23.856  -1.788  29.082  0.00  0.00    +0.003 A 
ATOM      2  C   UNL A   1     -22.639  -1.217  29.269  0.00  0.00    -0.002 A 
ATOM      3  C   UNL A   1     -22.186   0.031  28.615  0.00  0.00    +0.004 A 
ATOM      4  C   UNL A   1     -23.102   0.655  27.705  0.00  0.00    +0.071 A 
ATOM      5  C   UNL A   1     -24.329  -0.009  27.483  0.00  0.00    +0.004 A 
ATOM      6  C   UNL A   1     -24.682  -1.166  28.127  0.00  0.00    -0.002 A 
ENDROOT
BRANCH   4   7
ATOM      7  C   UNL A   1     -22.768   1.926  27.313  0.00  0.00    +0.419 C 
ATOM      8  F   UNL A   1     -21.637   2.245  27.716  0.00  0.00    -0.166 F 
ATOM      9  F   UNL A   1     -22.606   2.016  25.911  0.00  0.00    -0.166 F 
ATOM     10  F   UNL A   1     -23.618   2.898  27.650  0.00  0.00    -0.166 F 
ENDBRANCH   4   7
BRANCH   1  11
ATOM     11  C   UNL A   1     -24.213  -2.809  29.623  0.00  0.00    +0.165 C 
BRANCH  11  12
ATOM     12  N   UNL A   1     -23.891  -4.089  28.994  0.00  0.00    -0.188 NA
ATOM     13  C   UNL A   1     -24.763  -5.186  28.968  0.00  0.00    +0.236 C 
ATOM     14  O   UNL A   1     -25.576  -5.312  29.691  0.00  0.00    -0.210 OA
ENDBRANCH  11  12
ENDBRANCH   1  11
TORSDOF 3
ENDMDL
ENDMDL
