MODEL 4857
MODEL 1
REMARK VINA RESULT:    -7.147      0.000      0.000
REMARK INTER + INTRA:          -9.114
REMARK INTER:                  -8.400
REMARK INTRA:                  -0.713
REMARK UNBOUND:                -0.713
REMARK  Name = No_4857-gen_results/8p0m/2024-11-26-14-13-15/
REMARK  3 active torsions:
REMARK  status: ('A' for Active; 'I' for Inactive)
REMARK    1  A    between atoms: C_5  and  C_7
REMARK    2  A    between atoms: C_7  and  N_8
REMARK    3  A    between atoms: N_8  and  C_9
REMARK                            x       y       z     vdW  Elec       q    Type
REMARK                         _______ _______ _______ _____ _____    ______ ____
ROOT
ATOM      1  N   UNL A   1     -24.134  -0.500  29.518  0.00  0.00    -0.236 NA
ENDROOT
BRANCH   1   2
ATOM      2  C   UNL A   1     -23.153  -0.043  28.894  0.00  0.00    +0.057 C 
ATOM      3  C   UNL A   1     -21.932  -0.215  28.947  0.00  0.00    +0.013 C 
ATOM      4  C   UNL A   1     -20.854   0.412  28.279  0.00  0.00    -0.004 C 
ATOM      5  C   UNL A   1     -21.236   1.394  27.365  0.00  0.00    -0.025 C 
ATOM      6  C   UNL A   1     -22.532   1.694  27.166  0.00  0.00    +0.041 C 
ATOM      7  C   UNL A   1     -23.468   1.068  27.907  0.00  0.00    +0.103 C 
ATOM      8  C   UNL A   1     -24.525   0.176  26.915  0.00  0.00    +0.022 C 
ATOM      9 CL   UNL A   1     -23.292   1.925  28.414  0.00  0.00    -0.110 Cl
ATOM     10  C   UNL A   1     -22.776   2.258  25.813  0.00  0.00    +0.006 C 
ENDBRANCH   1   2
BRANCH   1  11
ATOM     11  C   UNL A   1     -24.085  -1.428  30.258  0.00  0.00    +0.140 C 
BRANCH  11  16
ATOM     12  C   UNL A   1     -26.258  -2.665  30.176  0.00  0.00    -0.000 A 
ATOM     13  C   UNL A   1     -26.852  -3.706  30.011  0.00  0.00    -0.000 A 
ATOM     14  C   UNL A   1     -26.375  -4.840  29.584  0.00  0.00    +0.002 A 
ATOM     15  C   UNL A   1     -24.989  -4.901  29.247  0.00  0.00    +0.029 A 
ATOM     16  C   UNL A   1     -24.822  -2.680  29.963  0.00  0.00    +0.027 A 
ATOM     17  C   UNL A   1     -24.256  -3.797  29.507  0.00  0.00    +0.138 A 
ATOM     18  F   UNL A   1     -23.747  -3.410  28.151  0.00  0.00    -0.204 F 
ENDBRANCH  11  16
ENDBRANCH   1  11
TORSDOF 3
ENDMDL
ENDMDL
