REMARK  Name = No_4857-gen_results/8p0m/2024-11-26-14-13-15/
REMARK  3 active torsions:
REMARK  status: ('A' for Active; 'I' for Inactive)
REMARK    1  A    between atoms: C_5  and  C_7
REMARK    2  A    between atoms: C_7  and  N_8
REMARK    3  A    between atoms: N_8  and  C_9
REMARK                            x       y       z     vdW  Elec       q    Type
REMARK                         _______ _______ _______ _____ _____    ______ ____
ROOT
ATOM      1  N   UNL A   1     -31.214  -1.069  29.573  0.00  0.00    -0.236 NA
ENDROOT
BRANCH   1   2
ATOM      2  C   UNL A   1     -31.503  -0.250  28.675  0.00  0.00    +0.057 C 
ATOM      3  C   UNL A   1     -31.988  -0.337  27.543  0.00  0.00    +0.013 C 
ATOM      4  C   UNL A   1     -32.199   0.622  26.524  0.00  0.00    -0.004 C 
ATOM      5  C   UNL A   1     -31.814   1.918  26.864  0.00  0.00    -0.025 C 
ATOM      6  C   UNL A   1     -31.285   2.194  28.070  0.00  0.00    +0.041 C 
ATOM      7  C   UNL A   1     -31.078   1.184  28.938  0.00  0.00    +0.103 C 
ATOM      8  C   UNL A   1     -31.984   1.416  30.360  0.00  0.00    +0.022 C 
ATOM      9 CL   UNL A   1     -30.189   1.284  28.466  0.00  0.00    -0.110 Cl
ATOM     10  C   UNL A   1     -31.507   3.608  28.470  0.00  0.00    +0.006 C 
ENDBRANCH   1   2
BRANCH   1  11
ATOM     11  C   UNL A   1     -30.163  -1.117  30.125  0.00  0.00    +0.140 C 
BRANCH  11  16
ATOM     12  C   UNL A   1     -28.016  -0.814  28.878  0.00  0.00    -0.000 A 
ATOM     13  C   UNL A   1     -27.064  -0.119  28.608  0.00  0.00    -0.000 A 
ATOM     14  C   UNL A   1     -26.876   1.133  28.913  0.00  0.00    +0.002 A 
ATOM     15  C   UNL A   1     -27.901   1.807  29.644  0.00  0.00    +0.029 A 
ATOM     16  C   UNL A   1     -29.046  -0.232  29.718  0.00  0.00    +0.027 A 
ATOM     17  C   UNL A   1     -28.940   1.052  30.060  0.00  0.00    +0.138 A 
ATOM     18  F   UNL A   1     -30.111   1.699  29.382  0.00  0.00    -0.204 F 
ENDBRANCH  11  16
ENDBRANCH   1  11
TORSDOF 3
