REMARK  Name = No_4858-gen_results/8p0m/2024-11-26-14-13-15/
REMARK  5 active torsions:
REMARK  status: ('A' for Active; 'I' for Inactive)
REMARK    1  A    between atoms: C_3  and  C_7
REMARK    2  A    between atoms: C_7  and  C_8
REMARK    3  A    between atoms: C_9  and  C_10
REMARK    4  A    between atoms: C_9  and  C_16
REMARK    5  A    between atoms: C_16  and  C_17
REMARK                            x       y       z     vdW  Elec       q    Type
REMARK                         _______ _______ _______ _____ _____    ______ ____
ROOT
ATOM      1  C   UNL A   1     -26.135   0.356  26.818  0.00  0.00    -0.025 C 
ATOM      2  C   UNL A   1     -25.322   1.316  27.378  0.00  0.00    -0.022 C 
ENDROOT
BRANCH   2   3
ATOM      3  C   UNL A   1     -23.924   1.159  27.555  0.00  0.00    -0.004 A 
ATOM      4  C   UNL A   1     -23.426   0.120  28.325  0.00  0.00    -0.000 A 
ATOM      5  C   UNL A   1     -22.060   0.006  28.615  0.00  0.00    -0.000 A 
ATOM      6  C   UNL A   1     -21.173   0.931  28.044  0.00  0.00    -0.000 A 
ATOM      7  C   UNL A   1     -21.667   2.045  27.329  0.00  0.00    -0.000 A 
ATOM      8  C   UNL A   1     -23.045   2.147  27.146  0.00  0.00    -0.000 A 
ENDBRANCH   2   3
BRANCH   2   9
ATOM      9  C   UNL A   1     -25.916   2.607  27.796  0.00  0.00    +0.044 C 
ATOM     10  C   UNL A   1     -25.907   3.648  26.842  0.00  0.00    +0.009 C 
BRANCH   9  11
ATOM     11  C   UNL A   1     -25.854   3.003  29.065  0.00  0.00    -0.027 C 
ATOM     12  C   UNL A   1     -26.450   4.217  29.500  0.00  0.00    -0.030 C 
ATOM     13  C   UNL A   1     -26.664   4.550  30.857  0.00  0.00    +0.030 C 
ENDBRANCH   9  11
ENDBRANCH   2   9
BRANCH   1  14
ATOM     14  C   UNL A   1     -27.459   0.379  26.705  0.00  0.00    +0.052 C 
BRANCH  14  17
ATOM     15  C   UNL A   1     -28.016  -0.814  28.878  0.00  0.00    -0.004 A 
ATOM     16  C   UNL A   1     -28.469  -0.785  29.829  0.00  0.00    -0.000 A 
ATOM     17  C   UNL A   1     -28.196   0.348  28.055  0.00  0.00    -0.018 A 
ATOM     18  C   UNL A   1     -29.019   1.350  28.378  0.00  0.00    -0.004 A 
ATOM     19  C   UNL A   1     -29.625   1.268  29.601  0.00  0.00    -0.000 A 
ATOM     20  C   UNL A   1     -29.382   0.182  30.400  0.00  0.00    -0.000 A 
ENDBRANCH  14  17
ENDBRANCH   1  14
TORSDOF 5
