MODEL 4859
MODEL 1
REMARK VINA RESULT:    -7.472      0.000      0.000
REMARK INTER + INTRA:          -8.310
REMARK INTER:                  -7.909
REMARK INTRA:                  -0.401
REMARK UNBOUND:                -0.401
REMARK  Name = No_4859-gen_results/8p0m/2024-11-26-14-13-15/
REMARK  1 active torsions:
REMARK  status: ('A' for Active; 'I' for Inactive)
REMARK    1  A    between atoms: C_4  and  C_7
REMARK                            x       y       z     vdW  Elec       q    Type
REMARK                         _______ _______ _______ _____ _____    ______ ____
ROOT
ATOM      1  C   UNL A   1     -22.708   1.404  27.417  0.00  0.00    +0.041 A 
ATOM      2  C   UNL A   1     -23.423   1.599  26.668  0.00  0.00    +0.141 A 
ATOM      3  C   UNL A   1     -23.024   0.239  28.329  0.00  0.00    +0.060 A 
ATOM      4  C   UNL A   1     -24.138  -0.578  28.045  0.00  0.00    +0.011 A 
ATOM      5  C   UNL A   1     -24.620   0.901  26.148  0.00  0.00    +0.030 A 
ATOM      6  C   UNL A   1     -24.938  -0.180  26.957  0.00  0.00    +0.003 A 
ATOM      7  F   UNL A   1     -23.112   2.724  25.780  0.00  0.00    -0.204 F 
ATOM      8 CL   UNL A   1     -22.030  -0.141  29.689  0.00  0.00    -0.082 Cl
ENDROOT
BRANCH   4   9
ATOM      9  C   UNL A   1     -24.494  -1.677  28.877  0.00  0.00    +0.001 C 
ATOM     10  C   UNL A   1     -25.687  -2.047  29.088  0.00  0.00    -0.000 C 
ATOM     11  C   UNL A   1     -26.033  -3.267  29.839  0.00  0.00    -0.004 C 
ATOM     12  C   UNL A   1     -23.820  -2.986  28.781  0.00  0.00    -0.004 C 
ATOM     13  C   UNL A   1     -26.163  -4.307  29.663  0.00  0.00    -0.021 C 
ATOM     14  C   UNL A   1     -25.007  -4.954  29.023  0.00  0.00    +0.052 C 
ATOM     15  C   UNL A   1     -23.997  -4.330  28.765  0.00  0.00    -0.021 C 
ENDBRANCH   4   9
TORSDOF 1
ENDMDL
ENDMDL
