MODEL 485
MODEL 1
REMARK VINA RESULT:    -5.057      0.000      0.000
REMARK INTER + INTRA:          -5.787
REMARK INTER:                  -5.648
REMARK INTRA:                  -0.138
REMARK UNBOUND:                -0.138
REMARK  Name = No_485-gen_results/8p0m/2024-11-26-14-13-15/
REMARK  2 active torsions:
REMARK  status: ('A' for Active; 'I' for Inactive)
REMARK    1  A    between atoms: C_1  and  C_2
REMARK    2  A    between atoms: C_1  and  N_8
REMARK                            x       y       z     vdW  Elec       q    Type
REMARK                         _______ _______ _______ _____ _____    ______ ____
ROOT
ATOM      1  C   UNL A   1     -24.632  -2.479  29.387  0.00  0.00    +0.002 A 
ATOM      2  C   UNL A   1     -25.869  -2.974  29.788  0.00  0.00    -0.002 A 
ATOM      3  C   UNL A   1     -26.295  -4.402  29.764  0.00  0.00    -0.000 A 
ATOM      4  C   UNL A   1     -25.400  -5.310  29.126  0.00  0.00    -0.000 A 
ATOM      5  C   UNL A   1     -24.176  -4.777  28.672  0.00  0.00    -0.000 A 
ATOM      6  C   UNL A   1     -23.827  -3.486  28.770  0.00  0.00    -0.002 A 
ENDROOT
BRANCH   1   7
ATOM      7  C   UNL A   1     -24.380  -1.299  29.454  0.00  0.00    +0.151 C 
BRANCH   7   8
ATOM      8  N   UNL A   1     -23.097  -0.913  29.000  0.00  0.00    -0.269 NA
ATOM      9  C   UNL A   1     -22.308  -0.284  29.339  0.00  0.00    +0.068 C 
ATOM     10  C   UNL A   1     -21.000  -0.093  28.644  0.00  0.00    +0.053 C 
ENDBRANCH   7   8
ENDBRANCH   1   7
TORSDOF 2
ENDMDL
ENDMDL
