REMARK  Name = No_4860-gen_results/8p0m/2024-11-26-14-13-15/
REMARK  5 active torsions:
REMARK  status: ('A' for Active; 'I' for Inactive)
REMARK    1  A    between atoms: C_1  and  O_15
REMARK    2  A    between atoms: C_11  and  C_12
REMARK    3  A    between atoms: O_15  and  C_16
REMARK    4  A    between atoms: C_16  and  C_18
REMARK    5  A    between atoms: C_19  and  C_20
REMARK                            x       y       z     vdW  Elec       q    Type
REMARK                         _______ _______ _______ _____ _____    ______ ____
ROOT
ATOM      1  C   UNL A   1     -28.016  -0.814  28.878  0.00  0.00    +0.135 A 
ATOM      2  C   UNL A   1     -27.064  -0.119  28.608  0.00  0.00    +0.019 A 
ATOM      3  C   UNL A   1     -25.765  -0.390  29.036  0.00  0.00    -0.004 A 
ATOM      4  C   UNL A   1     -25.530  -1.530  29.901  0.00  0.00    -0.003 A 
ATOM      5  C   UNL A   1     -26.658  -2.292  30.203  0.00  0.00    +0.003 A 
ATOM      6  C   UNL A   1     -27.855  -1.956  29.763  0.00  0.00    +0.037 A 
ATOM      7  C   UNL A   1     -24.535   0.413  28.743  0.00  0.00    +0.123 C 
ATOM      8  C   UNL A   1     -24.483   1.243  27.740  0.00  0.00    -0.010 C 
ATOM      9  C   UNL A   1     -25.098   1.689  26.992  0.00  0.00    -0.028 C 
ATOM     10  C   UNL A   1     -26.485   1.256  26.874  0.00  0.00    +0.040 C 
ATOM     11  C   UNL A   1     -27.189   0.515  27.625  0.00  0.00    +0.120 C 
ATOM     12 CL   UNL A   1     -23.140  -0.064  29.677  0.00  0.00    -0.105 Cl
ENDROOT
BRANCH  11  13
ATOM     13  C   UNL A   1     -28.697   0.476  27.078  0.00  0.00    +0.315 C 
ATOM     14  O   UNL A   1     -28.915   0.779  25.970  0.00  0.00    -0.259 OA
ATOM     15  F   UNL A   1     -29.526  -0.361  27.676  0.00  0.00    -0.163 F 
ENDBRANCH  11  13
BRANCH   1  16
ATOM     16  O   UNL A   1     -29.162  -0.184  29.565  0.00  0.00    -0.471 OA
BRANCH  16  17
ATOM     17  C   UNL A   1     -29.993   0.124  30.162  0.00  0.00    +0.232 C 
BRANCH  17  18
ATOM     18  C   UNL A   1     -29.893   0.016  31.445  0.00  0.00    +0.022 C 
ATOM     19  C   UNL A   1     -28.887   0.667  32.133  0.00  0.00    +0.022 C 
BRANCH  19  20
ATOM     20  C   UNL A   1     -28.469   1.919  31.703  0.00  0.00    +0.122 C 
ATOM     21  N   UNL A   1     -29.153   2.867  31.524  0.00  0.00    -0.146 NA
ENDBRANCH  19  20
ENDBRANCH  17  18
ENDBRANCH  16  17
ENDBRANCH   1  16
TORSDOF 5
