REMARK  Name = No_4861-gen_results/8p0m/2024-11-26-14-13-15/
REMARK  3 active torsions:
REMARK  status: ('A' for Active; 'I' for Inactive)
REMARK    1  A    between atoms: C_1  and  C_2
REMARK    2  A    between atoms: C_1  and  C_8
REMARK    3  A    between atoms: C_5  and  C_11
REMARK                            x       y       z     vdW  Elec       q    Type
REMARK                         _______ _______ _______ _____ _____    ______ ____
ROOT
ATOM      1  C   UNL A   1     -27.064  -0.119  28.608  0.00  0.00    +0.066 C 
ATOM      2  C   UNL A   1     -25.765  -0.390  29.036  0.00  0.00    +0.151 C 
ATOM      3  C   UNL A   1     -24.552   0.406  28.765  0.00  0.00    +0.076 C 
ATOM      4  C   UNL A   1     -24.696   1.448  27.799  0.00  0.00    +0.111 C 
ATOM      5  C   UNL A   1     -25.976   1.725  27.308  0.00  0.00    +0.012 C 
ATOM      6  C   UNL A   1     -27.072   1.013  27.654  0.00  0.00    +0.008 C 
ATOM      7  O   UNL A   1     -25.504  -1.349  29.909  0.00  0.00    -0.296 OA
ENDROOT
BRANCH   4   8
ATOM      8  C   UNL A   1     -23.499   2.234  27.508  0.00  0.00    +0.365 C 
ATOM      9  O   UNL A   1     -23.604   3.162  26.689  0.00  0.00    -0.246 OA
ATOM     10  O   UNL A   1     -22.305   1.859  27.884  0.00  0.00    -0.246 OA
ENDBRANCH   4   8
BRANCH   1  11
ATOM     11  C   UNL A   1     -28.016  -0.814  28.878  0.00  0.00    +0.111 C 
BRANCH  11  12
ATOM     12  C   UNL A   1     -29.226  -0.068  29.315  0.00  0.00    +0.398 C 
ATOM     13  F   UNL A   1     -29.262   0.399  30.239  0.00  0.00    -0.170 F 
ATOM     14  F   UNL A   1     -30.245  -0.781  28.995  0.00  0.00    -0.170 F 
ATOM     15  F   UNL A   1     -29.464   0.942  28.370  0.00  0.00    -0.170 F 
ENDBRANCH  11  12
ENDBRANCH   1  11
TORSDOF 3
