MODEL 4861
MODEL 1
REMARK VINA RESULT:    -5.729      0.000      0.000
REMARK INTER + INTRA:          -7.019
REMARK INTER:                  -6.734
REMARK INTRA:                  -0.285
REMARK UNBOUND:                -0.285
REMARK  Name = No_4861-gen_results/8p0m/2024-11-26-14-13-15/
REMARK  3 active torsions:
REMARK  status: ('A' for Active; 'I' for Inactive)
REMARK    1  A    between atoms: C_1  and  C_2
REMARK    2  A    between atoms: C_1  and  C_8
REMARK    3  A    between atoms: C_5  and  C_11
REMARK                            x       y       z     vdW  Elec       q    Type
REMARK                         _______ _______ _______ _____ _____    ______ ____
ROOT
ATOM      1  C   UNL A   1     -23.679   0.718  27.683  0.00  0.00    +0.066 C 
ATOM      2  C   UNL A   1     -22.846  -0.088  28.458  0.00  0.00    +0.151 C 
ATOM      3  C   UNL A   1     -23.097  -1.479  28.885  0.00  0.00    +0.076 C 
ATOM      4  C   UNL A   1     -24.415  -1.974  28.648  0.00  0.00    +0.111 C 
ATOM      5  C   UNL A   1     -25.300  -1.178  27.912  0.00  0.00    +0.012 C 
ATOM      6  C   UNL A   1     -24.989   0.062  27.471  0.00  0.00    +0.008 C 
ATOM      7  O   UNL A   1     -21.613   0.276  28.766  0.00  0.00    -0.296 OA
ENDROOT
BRANCH   4   8
ATOM      8  C   UNL A   1     -24.683  -3.343  29.081  0.00  0.00    +0.365 C 
ATOM      9  O   UNL A   1     -23.916  -4.235  28.681  0.00  0.00    -0.246 OA
ATOM     10  O   UNL A   1     -25.802  -3.690  29.660  0.00  0.00    -0.246 OA
ENDBRANCH   4   8
BRANCH   1  11
ATOM     11  C   UNL A   1     -23.403   1.850  27.361  0.00  0.00    +0.111 C 
BRANCH  11  12
ATOM     12  C   UNL A   1     -23.110   2.031  25.914  0.00  0.00    +0.398 C 
ATOM     13  F   UNL A   1     -23.584   1.455  25.196  0.00  0.00    -0.170 F 
ATOM     14  F   UNL A   1     -21.836   2.152  25.799  0.00  0.00    -0.170 F 
ATOM     15  F   UNL A   1     -23.404   3.364  25.586  0.00  0.00    -0.170 F 
ENDBRANCH  11  12
ENDBRANCH   1  11
TORSDOF 3
ENDMDL
ENDMDL
