REMARK  Name = No_4862-gen_results/8p0m/2024-11-26-14-13-15/
REMARK  4 active torsions:
REMARK  status: ('A' for Active; 'I' for Inactive)
REMARK    1  A    between atoms: C_2  and  C_9
REMARK    2  A    between atoms: C_5  and  N_8
REMARK    3  A    between atoms: C_9  and  C_10
REMARK    4  A    between atoms: CA_14  and  C_15
REMARK                            x       y       z     vdW  Elec       q    Type
REMARK                         _______ _______ _______ _____ _____    ______ ____
ROOT
ATOM      1  C   UNL A   1     -28.016  -0.814  28.878  0.00  0.00    -0.002 A 
ATOM      2  C   UNL A   1     -27.064  -0.119  28.608  0.00  0.00    -0.007 A 
ATOM      3  C   UNL A   1     -26.972   0.714  27.506  0.00  0.00    +0.055 A 
ATOM      4  C   UNL A   1     -28.105   0.774  26.642  0.00  0.00    +0.026 A 
ATOM      5  C   UNL A   1     -29.204   0.118  27.048  0.00  0.00    +0.049 A 
ATOM      6  C   UNL A   1     -29.213  -0.609  28.128  0.00  0.00    +0.014 A 
ATOM      7 CL   UNL A   1     -25.537   1.580  27.078  0.00  0.00    -0.083 Cl
ENDROOT
BRANCH   5   8
ATOM      8  N   UNL A   1     -30.304   0.223  26.200  0.00  0.00    -0.304 N 
ATOM      9  C   UNL A   1     -30.242   0.224  24.874  0.00  0.00    +0.112 C 
ATOM     10  C   UNL A   1     -31.643   0.199  26.723  0.00  0.00    +0.112 C 
ENDBRANCH   5   8
BRANCH   2  11
ATOM     11  C   UNL A   1     -25.673  -0.194  29.419  0.00  0.00    +0.052 C 
BRANCH  11  12
ATOM     12  C   UNL A   1     -24.778  -1.039  29.017  0.00  0.00    -0.005 C 
ATOM     13  C   UNL A   1     -24.914  -2.291  28.816  0.00  0.00    +0.014 C 
ATOM     14  C   UNL A   1     -24.147  -3.174  29.015  0.00  0.00    +0.093 C 
ATOM     15  N   UNL A   1     -22.813  -2.679  28.966  0.00  0.00    -0.255 NA
ATOM     16  CA  UNL A   1     -23.341  -0.996  29.321  0.00  0.00    +0.224 C 
BRANCH  16  17
ATOM     17  C   UNL A   1     -22.427  -0.022  29.546  0.00  0.00    +0.391 C 
ATOM     18  O   UNL A   1     -21.232  -0.158  29.120  0.00  0.00    -0.243 OA
ATOM     19  OXT UNL A   1     -22.783   1.024  30.237  0.00  0.00    -0.243 OA
ENDBRANCH  16  17
ENDBRANCH  11  12
ENDBRANCH   2  11
TORSDOF 4
