MODEL 4863
MODEL 1
REMARK VINA RESULT:    -8.087      0.000      0.000
REMARK INTER + INTRA:         -11.566
REMARK INTER:                  -9.978
REMARK INTRA:                  -1.589
REMARK UNBOUND:                -1.589
REMARK  Name = No_4863-gen_results/8p0m/2024-11-26-14-13-15/
REMARK  4 active torsions:
REMARK  status: ('A' for Active; 'I' for Inactive)
REMARK    1  A    between atoms: C_2  and  C_11
REMARK    2  A    between atoms: C_3  and  C_4
REMARK    3  A    between atoms: C_16  and  C_19
REMARK    4  A    between atoms: C_19  and  C_27
REMARK                            x       y       z     vdW  Elec       q    Type
REMARK                         _______ _______ _______ _____ _____    ______ ____
ROOT
ATOM      1  C   UNL A   1      -6.556   2.887  34.116  0.00  0.00    +0.249 C 
ATOM      2  O   UNL A   1      -5.583   2.920  33.598  0.00  0.00    -0.270 OA
ATOM      3  N   UNL A   1      -7.166   1.665  34.509  0.00  0.00    -0.276 N 
ATOM      4  C   UNL A   1      -6.392   0.474  34.524  0.00  0.00    +0.094 C 
ATOM      5  C   UNL A   1      -8.479   1.526  35.145  0.00  0.00    +0.098 C 
ATOM      6  C   UNL A   1      -8.876   0.519  35.410  0.00  0.00    +0.042 C 
ATOM      7  C   UNL A   1      -7.018  -0.739  34.889  0.00  0.00    +0.022 C 
ATOM      8  C   UNL A   1      -8.255  -0.710  35.422  0.00  0.00    +0.008 C 
ENDROOT
BRANCH   6   9
ATOM      9  C   UNL A   1     -10.372   0.436  36.026  0.00  0.00    -0.025 C 
ATOM     10  C   UNL A   1     -11.155   1.475  35.871  0.00  0.00    -0.026 C 
ATOM     11  C   UNL A   1     -12.370   1.641  36.555  0.00  0.00    -0.007 A 
ATOM     12  C   UNL A   1     -12.489   2.065  37.600  0.00  0.00    +0.011 A 
ATOM     13  C   UNL A   1     -13.789   2.616  38.167  0.00  0.00    +0.058 A 
ATOM     14  C   UNL A   1     -14.698   3.078  37.213  0.00  0.00    +0.011 A 
ATOM     15  C   UNL A   1     -14.314   3.191  35.908  0.00  0.00    -0.003 A 
ATOM     16  C   UNL A   1     -13.118   2.498  35.526  0.00  0.00    -0.022 A 
ATOM     17 CL   UNL A   1     -14.124   2.674  39.831  0.00  0.00    -0.082 Cl
ATOM     18  C   UNL A   1     -12.904   2.431  34.108  0.00  0.00    +0.031 C 
ATOM     19  C   UNL A   1     -11.364   1.550  34.239  0.00  0.00    +0.031 C 
BRANCH   9  20
ATOM     20  C   UNL A   1     -10.455  -0.012  37.471  0.00  0.00    -0.004 A 
ATOM     21  C   UNL A   1      -9.828   0.292  38.443  0.00  0.00    -0.000 A 
ATOM     22  C   UNL A   1      -9.866  -0.391  39.678  0.00  0.00    -0.000 A 
ATOM     23  C   UNL A   1     -10.783  -1.387  39.796  0.00  0.00    -0.000 A 
ATOM     24  C   UNL A   1     -11.215  -1.297  37.774  0.00  0.00    -0.000 A 
ATOM     25  C   UNL A   1     -11.447  -1.898  38.830  0.00  0.00    -0.000 A 
ENDBRANCH   9  20
ENDBRANCH   6   9
BRANCH   1  27
ATOM     26  C   UNL A   1      -8.242   4.204  34.889  0.00  0.00    +0.008 A 
ATOM     27  C   UNL A   1      -7.664   4.016  34.028  0.00  0.00    +0.053 A 
ATOM     28  C   UNL A   1      -9.278   5.297  34.751  0.00  0.00    +0.072 A 
ATOM     29  C   UNL A   1      -7.808   4.459  32.635  0.00  0.00    +0.004 A 
ATOM     30  C   UNL A   1      -8.755   5.438  32.423  0.00  0.00    +0.000 A 
ATOM     31  C   UNL A   1      -9.545   5.872  33.456  0.00  0.00    +0.004 A 
BRANCH  28  32
ATOM     32  C   UNL A   1     -10.089   5.843  35.810  0.00  0.00    +0.419 C 
ATOM     33  F   UNL A   1      -9.498   6.122  36.887  0.00  0.00    -0.166 F 
ATOM     34  F   UNL A   1     -10.720   7.006  35.395  0.00  0.00    -0.166 F 
ATOM     35  F   UNL A   1     -11.139   4.960  36.131  0.00  0.00    -0.166 F 
ENDBRANCH  28  32
ENDBRANCH   1  27
TORSDOF 4
ENDMDL
ENDMDL
