REMARK  Name = No_4863-gen_results/8p0m/2024-11-26-14-13-15/
REMARK  4 active torsions:
REMARK  status: ('A' for Active; 'I' for Inactive)
REMARK    1  A    between atoms: C_2  and  C_11
REMARK    2  A    between atoms: C_3  and  C_4
REMARK    3  A    between atoms: C_16  and  C_19
REMARK    4  A    between atoms: C_19  and  C_27
REMARK                            x       y       z     vdW  Elec       q    Type
REMARK                         _______ _______ _______ _____ _____    ______ ____
ROOT
ATOM      1  C   UNL A   1     -30.052  -0.812  29.892  0.00  0.00    +0.249 C 
ATOM      2  O   UNL A   1     -30.655  -1.701  30.143  0.00  0.00    -0.270 OA
ATOM      3  N   UNL A   1     -30.568   0.263  29.119  0.00  0.00    -0.276 N 
ATOM      4  C   UNL A   1     -31.970   0.363  28.915  0.00  0.00    +0.094 C 
ATOM      5  C   UNL A   1     -29.821   1.449  28.690  0.00  0.00    +0.098 C 
ATOM      6  C   UNL A   1     -30.314   2.237  28.077  0.00  0.00    +0.042 C 
ATOM      7  C   UNL A   1     -32.467   1.420  28.120  0.00  0.00    +0.022 C 
ATOM      8  C   UNL A   1     -31.642   2.423  27.763  0.00  0.00    +0.008 C 
ENDROOT
BRANCH   6   9
ATOM      9  C   UNL A   1     -29.402   3.474  27.563  0.00  0.00    -0.025 C 
ATOM     10  C   UNL A   1     -28.202   3.202  27.113  0.00  0.00    -0.026 C 
ATOM     11  C   UNL A   1     -27.223   4.180  26.871  0.00  0.00    -0.007 A 
ATOM     12  C   UNL A   1     -26.524   4.622  27.646  0.00  0.00    +0.011 A 
ATOM     13  C   UNL A   1     -25.227   5.351  27.325  0.00  0.00    +0.058 A 
ATOM     14  C   UNL A   1     -24.647   5.008  26.102  0.00  0.00    +0.011 A 
ATOM     15  C   UNL A   1     -25.137   3.951  25.391  0.00  0.00    -0.003 A 
ATOM     16  C   UNL A   1     -26.437   3.473  25.760  0.00  0.00    -0.022 A 
ATOM     17 CL   UNL A   1     -24.525   6.496  28.364  0.00  0.00    -0.082 Cl
ATOM     18  C   UNL A   1     -27.011   2.546  24.826  0.00  0.00    +0.031 C 
ATOM     19  C   UNL A   1     -28.498   2.297  25.770  0.00  0.00    +0.031 C 
BRANCH   9  20
ATOM     20  C   UNL A   1     -29.300   4.646  28.518  0.00  0.00    -0.004 A 
ATOM     21  C   UNL A   1     -29.166   4.705  29.704  0.00  0.00    -0.000 A 
ATOM     22  C   UNL A   1     -29.327   5.873  30.481  0.00  0.00    -0.000 A 
ATOM     23  C   UNL A   1     -29.522   7.034  29.802  0.00  0.00    -0.000 A 
ATOM     24  C   UNL A   1     -29.756   6.011  28.019  0.00  0.00    -0.000 A 
ATOM     25  C   UNL A   1     -29.791   7.125  28.556  0.00  0.00    -0.000 A 
ENDBRANCH   9  20
ENDBRANCH   6   9
BRANCH   1  27
ATOM     26  C   UNL A   1     -28.016  -0.814  28.878  0.00  0.00    +0.008 A 
ATOM     27  C   UNL A   1     -28.469  -0.785  29.829  0.00  0.00    +0.053 A 
ATOM     28  C   UNL A   1     -26.504  -0.778  28.877  0.00  0.00    +0.072 A 
ATOM     29  C   UNL A   1     -27.918  -0.937  31.182  0.00  0.00    +0.004 A 
ATOM     30  C   UNL A   1     -26.542  -0.940  31.261  0.00  0.00    +0.000 A 
ATOM     31  C   UNL A   1     -25.783  -0.893  30.120  0.00  0.00    +0.004 A 
BRANCH  28  32
ATOM     32  C   UNL A   1     -25.654  -0.660  27.719  0.00  0.00    +0.419 C 
ATOM     33  F   UNL A   1     -24.529  -1.224  27.784  0.00  0.00    -0.166 F 
ATOM     34  F   UNL A   1     -26.285  -1.169  26.593  0.00  0.00    -0.166 F 
ATOM     35  F   UNL A   1     -25.420   0.696  27.416  0.00  0.00    -0.166 F 
ENDBRANCH  28  32
ENDBRANCH   1  27
TORSDOF 4
