MODEL 4864
MODEL 1
REMARK VINA RESULT:    -4.669      0.000      0.000
REMARK INTER + INTRA:          -4.974
REMARK INTER:                  -4.942
REMARK INTRA:                  -0.032
REMARK UNBOUND:                -0.032
REMARK  Name = No_4864-gen_results/8p0m/2024-11-26-14-13-15/
REMARK  1 active torsions:
REMARK  status: ('A' for Active; 'I' for Inactive)
REMARK    1  A    between atoms: C_2  and  O_7
REMARK                            x       y       z     vdW  Elec       q    Type
REMARK                         _______ _______ _______ _____ _____    ______ ____
ROOT
ATOM      1  C   UNL A   1     -24.064  -4.327  28.788  0.00  0.00    +0.037 A 
ATOM      2  C   UNL A   1     -24.164  -3.322  29.090  0.00  0.00    +0.139 A 
ATOM      3  C   UNL A   1     -25.186  -5.225  29.107  0.00  0.00    +0.003 A 
ATOM      4  C   UNL A   1     -26.391  -4.710  29.665  0.00  0.00    +0.000 A 
ATOM      5  C   UNL A   1     -25.309  -2.535  29.623  0.00  0.00    +0.037 A 
ATOM      6  C   UNL A   1     -26.366  -3.335  29.940  0.00  0.00    +0.003 A 
ENDROOT
BRANCH   2   7
ATOM      7  O   UNL A   1     -23.063  -2.415  28.781  0.00  0.00    -0.471 OA
ATOM      8  C   UNL A   1     -22.920  -1.242  29.125  0.00  0.00    +0.253 C 
ENDBRANCH   2   7
TORSDOF 1
ENDMDL
ENDMDL
