REMARK  Name = No_4865-gen_results/8p0m/2024-11-26-14-13-15/
REMARK  1 active torsions:
REMARK  status: ('A' for Active; 'I' for Inactive)
REMARK    1  A    between atoms: C_7  and  C_11
REMARK                            x       y       z     vdW  Elec       q    Type
REMARK                         _______ _______ _______ _____ _____    ______ ____
ROOT
ATOM      1  N   UNL A   1     -28.054  -1.050  28.725  0.00  0.00    -0.244 NA
ATOM      2  C   UNL A   1     -27.746  -0.073  29.010  0.00  0.00    +0.083 A 
ATOM      3  C   UNL A   1     -27.556   0.337  30.339  0.00  0.00    +0.018 A 
ATOM      4  C   UNL A   1     -27.071   1.671  30.790  0.00  0.00    +0.002 A 
ATOM      5  C   UNL A   1     -26.654   2.522  29.736  0.00  0.00    +0.000 A 
ATOM      6  C   UNL A   1     -26.730   2.060  28.408  0.00  0.00    +0.004 A 
ATOM      7  C   UNL A   1     -27.189   0.815  28.052  0.00  0.00    +0.045 A 
ATOM      8  C   UNL A   1     -27.734  -2.127  29.604  0.00  0.00    +0.099 A 
ATOM      9  C   UNL A   1     -27.865  -1.948  31.018  0.00  0.00    +0.021 A 
ATOM     10  C   UNL A   1     -28.072  -0.749  31.373  0.00  0.00    +0.003 A 
ENDROOT
BRANCH   7  11
ATOM     11  C   UNL A   1     -27.193   0.540  26.615  0.00  0.00    +0.144 C 
ATOM     12  C   UNL A   1     -28.071   0.826  25.797  0.00  0.00    +0.062 C 
ATOM     13  C   UNL A   1     -28.014   0.401  24.433  0.00  0.00    +0.001 C 
ATOM     14  C   UNL A   1     -29.060   0.657  23.538  0.00  0.00    -0.018 C 
ATOM     15  C   UNL A   1     -30.065   1.317  24.171  0.00  0.00    +0.095 C 
ATOM     16  C   UNL A   1     -29.388   1.517  25.812  0.00  0.00    +0.180 C 
ATOM     17  F   UNL A   1     -26.192  -0.187  26.354  0.00  0.00    -0.204 F 
ATOM     18  O   UNL A   1     -30.085   2.058  26.751  0.00  0.00    -0.291 OA
ENDBRANCH   7  11
TORSDOF 1
