MODEL 4866
MODEL 1
REMARK VINA RESULT:    -4.295      0.000      0.000
REMARK INTER + INTRA:          -4.295
REMARK INTER:                  -4.295
REMARK INTRA:                   0.000
REMARK UNBOUND:                 0.000
REMARK  Name = No_4866-gen_results/8p0m/2024-11-26-14-13-15/
REMARK  0 active torsions:
REMARK  status: ('A' for Active; 'I' for Inactive)
REMARK                            x       y       z     vdW  Elec       q    Type
REMARK                         _______ _______ _______ _____ _____    ______ ____
ROOT
ATOM      1  C   UNL A   1     -24.904  -5.383  28.949  0.00  0.00    +0.000 A 
ATOM      2  C   UNL A   1     -24.146  -4.691  28.708  0.00  0.00    +0.000 A 
ATOM      3  C   UNL A   1     -26.071  -4.774  29.587  0.00  0.00    +0.000 A 
ATOM      4  C   UNL A   1     -26.155  -3.423  29.820  0.00  0.00    +0.000 A 
ATOM      5  C   UNL A   1     -23.964  -3.245  28.829  0.00  0.00    +0.000 A 
ATOM      6  C   UNL A   1     -25.089  -2.646  29.445  0.00  0.00    +0.000 A 
ENDROOT
TORSDOF 0
ENDMDL
ENDMDL
