MODEL 4867
MODEL 1
REMARK VINA RESULT:    -5.012      0.000      0.000
REMARK INTER + INTRA:          -5.950
REMARK INTER:                  -5.598
REMARK INTRA:                  -0.352
REMARK UNBOUND:                -0.352
REMARK  Name = No_4867-gen_results/8p0m/2024-11-26-14-13-15/
REMARK  2 active torsions:
REMARK  status: ('A' for Active; 'I' for Inactive)
REMARK    1  A    between atoms: C_3  and  C_4
REMARK    2  A    between atoms: C_8  and  C_9
REMARK                            x       y       z     vdW  Elec       q    Type
REMARK                         _______ _______ _______ _____ _____    ______ ____
ROOT
ATOM      1  C   UNL A   1     -25.840  -2.450  29.717  0.00  0.00    -0.000 A 
ATOM      2  C   UNL A   1     -26.422  -3.305  29.919  0.00  0.00    -0.000 A 
ATOM      3  C   UNL A   1     -24.474  -2.685  29.223  0.00  0.00    -0.000 A 
ATOM      4  C   UNL A   1     -26.207  -4.738  29.606  0.00  0.00    -0.000 A 
ATOM      5  C   UNL A   1     -24.938  -5.043  29.127  0.00  0.00    -0.000 A 
ATOM      6  C   UNL A   1     -24.022  -4.040  28.888  0.00  0.00    -0.000 A 
ENDROOT
BRANCH   3   7
ATOM      7  C   UNL A   1     -23.431  -1.693  29.014  0.00  0.00    -0.005 C 
ATOM      8  C   UNL A   1     -23.060  -0.795  30.051  0.00  0.00    -0.026 C 
BRANCH   8   9
ATOM      9  C   UNL A   1     -23.159  -1.275  31.387  0.00  0.00    +0.026 C 
ATOM     10  C   UNL A   1     -23.923  -0.621  32.297  0.00  0.00    +0.005 C 
ENDBRANCH   8   9
ENDBRANCH   3   7
TORSDOF 2
ENDMDL
ENDMDL
