MODEL 4868
MODEL 1
REMARK VINA RESULT:    -6.422      0.000      0.000
REMARK INTER + INTRA:          -7.733
REMARK INTER:                  -7.172
REMARK INTRA:                  -0.561
REMARK UNBOUND:                -0.561
REMARK  Name = No_4868-gen_results/8p0m/2024-11-26-14-13-15/
REMARK  2 active torsions:
REMARK  status: ('A' for Active; 'I' for Inactive)
REMARK    1  A    between atoms: C_3  and  C_7
REMARK    2  A    between atoms: C_7  and  C_8
REMARK                            x       y       z     vdW  Elec       q    Type
REMARK                         _______ _______ _______ _____ _____    ______ ____
ROOT
ATOM      1  C   UNL A   1     -24.699  -1.213  29.330  0.00  0.00    +0.053 C 
ENDROOT
BRANCH   1   4
ATOM      2  C   UNL A   1     -23.912  -3.584  28.593  0.00  0.00    -0.004 A 
ATOM      3  C   UNL A   1     -24.104  -4.618  28.642  0.00  0.00    -0.000 A 
ATOM      4  C   UNL A   1     -24.868  -2.729  29.237  0.00  0.00    -0.018 A 
ATOM      5  C   UNL A   1     -26.027  -3.175  29.731  0.00  0.00    -0.004 A 
ATOM      6  C   UNL A   1     -25.293  -5.319  29.107  0.00  0.00    -0.000 A 
ATOM      7  C   UNL A   1     -26.198  -4.540  29.685  0.00  0.00    -0.000 A 
ENDBRANCH   1   4
BRANCH   1   8
ATOM      8  C   UNL A   1     -24.397  -0.552  28.185  0.00  0.00    -0.018 A 
ATOM      9  C   UNL A   1     -23.302   0.304  28.148  0.00  0.00    -0.004 A 
ATOM     10  C   UNL A   1     -23.192   1.299  27.117  0.00  0.00    -0.000 A 
ATOM     11  C   UNL A   1     -24.050   1.165  25.971  0.00  0.00    -0.000 A 
ATOM     12  C   UNL A   1     -25.123   0.256  26.049  0.00  0.00    -0.000 A 
ATOM     13  C   UNL A   1     -25.313  -0.524  27.147  0.00  0.00    -0.004 A 
ENDBRANCH   1   8
TORSDOF 2
ENDMDL
ENDMDL
