REMARK  Name = No_4869-gen_results/8p0m/2024-11-26-14-13-15/
REMARK  3 active torsions:
REMARK  status: ('A' for Active; 'I' for Inactive)
REMARK    1  A    between atoms: C_3  and  C_7
REMARK    2  A    between atoms: N_8  and  C_11
REMARK    3  A    between atoms: C_11  and  C_12
REMARK                            x       y       z     vdW  Elec       q    Type
REMARK                         _______ _______ _______ _____ _____    ______ ____
ROOT
ATOM      1  C   UNL A   1     -26.317   0.399  27.365  0.00  0.00    +0.080 C 
ATOM      2  N   UNL A   1     -25.072   0.157  27.430  0.00  0.00    -0.272 NA
ATOM      3  C   UNL A   1     -26.937   0.710  26.153  0.00  0.00    +0.021 C 
ATOM      4  C   UNL A   1     -26.165   0.477  25.040  0.00  0.00    +0.003 C 
ATOM      5  C   UNL A   1     -24.743   0.269  25.137  0.00  0.00    +0.017 C 
ATOM      6  C   UNL A   1     -24.223   0.198  26.329  0.00  0.00    +0.072 C 
ENDROOT
BRANCH   1   9
ATOM      7  C   UNL A   1     -28.016  -0.814  28.878  0.00  0.00    -0.003 A 
ATOM      8  C   UNL A   1     -28.469  -0.785  29.829  0.00  0.00    -0.000 A 
ATOM      9  C   UNL A   1     -27.087   0.290  28.638  0.00  0.00    -0.008 A 
ATOM     10  C   UNL A   1     -26.832   1.249  29.587  0.00  0.00    -0.003 A 
ATOM     11  C   UNL A   1     -28.391   0.080  31.006  0.00  0.00    -0.000 A 
ATOM     12  C   UNL A   1     -27.494   1.152  30.784  0.00  0.00    -0.000 A 
ENDBRANCH   1   9
BRANCH   2  13
ATOM     13  C   UNL A   1     -24.415  -0.123  28.702  0.00  0.00    +0.058 C 
ATOM     14  C   UNL A   1     -24.506  -1.563  29.143  0.00  0.00    +0.017 C 
BRANCH  13  15
ATOM     15  C   UNL A   1     -22.986   0.151  28.614  0.00  0.00    +0.016 C 
ATOM     16  C   UNL A   1     -22.349   0.719  29.830  0.00  0.00    +0.001 C 
ENDBRANCH  13  15
ENDBRANCH   2  13
TORSDOF 3
