MODEL 4869
MODEL 1
REMARK VINA RESULT:    -6.360      0.000      0.000
REMARK INTER + INTRA:          -8.096
REMARK INTER:                  -7.476
REMARK INTRA:                  -0.620
REMARK UNBOUND:                -0.620
REMARK  Name = No_4869-gen_results/8p0m/2024-11-26-14-13-15/
REMARK  3 active torsions:
REMARK  status: ('A' for Active; 'I' for Inactive)
REMARK    1  A    between atoms: C_3  and  C_7
REMARK    2  A    between atoms: N_8  and  C_11
REMARK    3  A    between atoms: C_11  and  C_12
REMARK                            x       y       z     vdW  Elec       q    Type
REMARK                         _______ _______ _______ _____ _____    ______ ____
ROOT
ATOM      1  C   UNL A   1     -24.377  -1.066  29.131  0.00  0.00    +0.080 C 
ATOM      2  N   UNL A   1     -23.996  -0.493  30.198  0.00  0.00    -0.272 NA
ATOM      3  C   UNL A   1     -24.346  -0.409  27.899  0.00  0.00    +0.021 C 
ATOM      4  C   UNL A   1     -23.645   0.773  27.900  0.00  0.00    +0.003 C 
ATOM      5  C   UNL A   1     -23.281   1.435  29.127  0.00  0.00    +0.017 C 
ATOM      6  C   UNL A   1     -23.542   0.821  30.245  0.00  0.00    +0.072 C 
ENDROOT
BRANCH   1   9
ATOM      7  C   UNL A   1     -26.134  -2.840  29.774  0.00  0.00    -0.003 A 
ATOM      8  C   UNL A   1     -26.324  -3.876  29.777  0.00  0.00    -0.000 A 
ATOM      9  C   UNL A   1     -24.813  -2.488  29.253  0.00  0.00    -0.008 A 
ATOM     10  C   UNL A   1     -23.931  -3.436  28.800  0.00  0.00    -0.003 A 
ATOM     11  C   UNL A   1     -25.601  -5.080  29.367  0.00  0.00    -0.000 A 
ATOM     12  C   UNL A   1     -24.320  -4.750  28.861  0.00  0.00    -0.000 A 
ENDBRANCH   1   9
BRANCH   2  13
ATOM     13  C   UNL A   1     -24.070  -1.164  31.492  0.00  0.00    +0.058 C 
ATOM     14  C   UNL A   1     -22.754  -1.242  32.226  0.00  0.00    +0.017 C 
BRANCH  13  15
ATOM     15  C   UNL A   1     -24.959  -0.443  32.394  0.00  0.00    +0.016 C 
ATOM     16  C   UNL A   1     -24.751  -0.675  33.847  0.00  0.00    +0.001 C 
ENDBRANCH  13  15
ENDBRANCH   2  13
TORSDOF 3
ENDMDL
ENDMDL
