MODEL 486
MODEL 1
REMARK VINA RESULT:    -4.466      0.000      0.000
REMARK INTER + INTRA:          -4.466
REMARK INTER:                  -4.466
REMARK INTRA:                   0.000
REMARK UNBOUND:                 0.000
REMARK  Name = No_486-gen_results/8p0m/2024-11-26-14-13-15/
REMARK  0 active torsions:
REMARK  status: ('A' for Active; 'I' for Inactive)
REMARK                            x       y       z     vdW  Elec       q    Type
REMARK                         _______ _______ _______ _____ _____    ______ ____
ROOT
ATOM      1  C   UNL A   1     -25.282  -2.588  29.582  0.00  0.00    +0.011 A 
ATOM      2  C   UNL A   1     -24.214  -2.926  29.126  0.00  0.00    +0.058 A 
ATOM      3  C   UNL A   1     -23.966  -4.252  28.785  0.00  0.00    +0.011 A 
ATOM      4  C   UNL A   1     -24.958  -5.272  29.008  0.00  0.00    +0.001 A 
ATOM      5  C   UNL A   1     -26.154  -4.797  29.561  0.00  0.00    +0.000 A 
ATOM      6  C   UNL A   1     -26.333  -3.536  29.881  0.00  0.00    +0.001 A 
ATOM      7 CL   UNL A   1     -23.014  -1.740  28.992  0.00  0.00    -0.082 Cl
ENDROOT
TORSDOF 0
ENDMDL
ENDMDL
