REMARK  Name = No_487-gen_results/8p0m/2024-11-26-14-13-15/
REMARK  3 active torsions:
REMARK  status: ('A' for Active; 'I' for Inactive)
REMARK    1  A    between atoms: C_3  and  C_13
REMARK    2  A    between atoms: C_5  and  C_8
REMARK    3  A    between atoms: C_14  and  C_19
REMARK                            x       y       z     vdW  Elec       q    Type
REMARK                         _______ _______ _______ _____ _____    ______ ____
ROOT
ATOM      1  C   UNL A   1     -28.016  -0.814  28.878  0.00  0.00    +0.058 A 
ATOM      2  C   UNL A   1     -27.064  -0.119  28.608  0.00  0.00    +0.011 A 
ATOM      3  C   UNL A   1     -27.001   0.691  27.491  0.00  0.00    +0.001 A 
ATOM      4  C   UNL A   1     -28.137   0.736  26.635  0.00  0.00    +0.005 A 
ATOM      5  C   UNL A   1     -29.236   0.076  27.069  0.00  0.00    +0.054 A 
ATOM      6  C   UNL A   1     -29.218  -0.643  28.175  0.00  0.00    +0.016 A 
ATOM      7 CL   UNL A   1     -28.025  -1.782  30.321  0.00  0.00    -0.082 Cl
ENDROOT
BRANCH   3   8
ATOM      8  C   UNL A   1     -25.736   1.406  27.072  0.00  0.00    +0.006 A 
ATOM      9  C   UNL A   1     -25.212   2.346  28.067  0.00  0.00    +0.080 A 
ATOM     10  C   UNL A   1     -23.882   2.773  27.747  0.00  0.00    +0.007 A 
ATOM     11  C   UNL A   1     -23.216   2.300  26.585  0.00  0.00    +0.000 A 
ATOM     12  C   UNL A   1     -24.911   1.023  26.047  0.00  0.00    +0.000 A 
ATOM     13  C   UNL A   1     -23.770   1.460  25.778  0.00  0.00    +0.000 A 
BRANCH   9  14
ATOM     14  C   UNL A   1     -25.831   2.847  29.218  0.00  0.00    +0.388 C 
ATOM     15  O   UNL A   1     -25.547   2.498  30.359  0.00  0.00    -0.241 OA
ATOM     16  O   UNL A   1     -26.945   3.546  28.990  0.00  0.00    -0.241 OA
ENDBRANCH   9  14
ENDBRANCH   3   8
BRANCH   5  17
ATOM     17  C   UNL A   1     -30.532   0.063  26.379  0.00  0.00    +0.249 C 
ATOM     18  N   UNL A   1     -30.619  -0.100  25.157  0.00  0.00    -0.273 N 
ATOM     19  O   UNL A   1     -31.608   0.133  27.008  0.00  0.00    -0.270 OA
ATOM     20  C   UNL A   1     -31.865  -0.291  24.351  0.00  0.00    +0.115 C 
ATOM     21  C   UNL A   1     -29.453  -0.263  24.172  0.00  0.00    +0.115 C 
ENDBRANCH   5  17
TORSDOF 3
