MODEL 4870
MODEL 1
REMARK VINA RESULT:    -4.303      0.000      0.000
REMARK INTER + INTRA:          -4.303
REMARK INTER:                  -4.303
REMARK INTRA:                   0.000
REMARK UNBOUND:                 0.000
REMARK  Name = No_4870-gen_results/8p0m/2024-11-26-14-13-15/
REMARK  0 active torsions:
REMARK  status: ('A' for Active; 'I' for Inactive)
REMARK                            x       y       z     vdW  Elec       q    Type
REMARK                         _______ _______ _______ _____ _____    ______ ____
ROOT
ATOM      1  C   UNL A   1     -24.959  -5.373  28.982  0.00  0.00    +0.000 A 
ATOM      2  C   UNL A   1     -24.195  -4.687  28.745  0.00  0.00    +0.000 A 
ATOM      3  C   UNL A   1     -26.127  -4.756  29.609  0.00  0.00    +0.000 A 
ATOM      4  C   UNL A   1     -26.205  -3.404  29.837  0.00  0.00    +0.000 A 
ATOM      5  C   UNL A   1     -24.006  -3.241  28.862  0.00  0.00    +0.000 A 
ATOM      6  C   UNL A   1     -25.132  -2.634  29.468  0.00  0.00    +0.000 A 
ENDROOT
TORSDOF 0
ENDMDL
ENDMDL
