MODEL 4871
MODEL 1
REMARK VINA RESULT:    -9.145      0.000      0.000
REMARK INTER + INTRA:         -14.476
REMARK INTER:                 -12.887
REMARK INTRA:                  -1.589
REMARK UNBOUND:                -1.589
REMARK  Name = No_4871-gen_results/8p0m/2024-11-26-14-13-15/
REMARK  7 active torsions:
REMARK  status: ('A' for Active; 'I' for Inactive)
REMARK    1  A    between atoms: C_1  and  O_18
REMARK    2  A    between atoms: C_2  and  C_10
REMARK    3  A    between atoms: C_5  and  C_6
REMARK    4  A    between atoms: O_18  and  C_19
REMARK    5  A    between atoms: C_19  and  C_20
REMARK    6  A    between atoms: N_22  and  C_23
REMARK    7  A    between atoms: C_26  and  C_29
REMARK                            x       y       z     vdW  Elec       q    Type
REMARK                         _______ _______ _______ _____ _____    ______ ____
ROOT
ATOM      1  O   UNL A   1     -25.762  -0.772  26.784  0.00  0.00    -0.466 OA
ENDROOT
BRANCH   1   2
ATOM      2  C   UNL A   1     -24.652  -0.605  27.563  0.00  0.00    +0.139 A 
ATOM      3  C   UNL A   1     -24.340  -1.301  28.502  0.00  0.00    +0.036 A 
ATOM      4  C   UNL A   1     -23.101  -1.160  29.119  0.00  0.00    +0.003 A 
ATOM      5  C   UNL A   1     -22.337  -0.135  28.877  0.00  0.00    +0.004 A 
ATOM      6  C   UNL A   1     -22.663   0.704  27.757  0.00  0.00    +0.074 A 
ATOM      7  C   UNL A   1     -23.859   0.510  27.112  0.00  0.00    +0.041 A 
BRANCH   3   8
ATOM      8  C   UNL A   1     -25.165  -2.524  28.956  0.00  0.00    +0.030 A 
ATOM      9  C   UNL A   1     -24.708  -3.692  28.846  0.00  0.00    +0.140 A 
ATOM     10  C   UNL A   1     -25.453  -4.907  29.251  0.00  0.00    +0.030 A 
ATOM     11  C   UNL A   1     -26.632  -4.735  30.005  0.00  0.00    +0.002 A 
ATOM     12  C   UNL A   1     -27.051  -3.416  30.161  0.00  0.00    +0.000 A 
ATOM     13  C   UNL A   1     -26.382  -2.294  29.672  0.00  0.00    +0.002 A 
ATOM     14  F   UNL A   1     -23.652  -4.041  28.131  0.00  0.00    -0.204 F 
ENDBRANCH   3   8
BRANCH   6  15
ATOM     15  C   UNL A   1     -21.858   1.827  27.477  0.00  0.00    +0.419 C 
ATOM     16  F   UNL A   1     -21.930   1.889  26.033  0.00  0.00    -0.166 F 
ATOM     17  F   UNL A   1     -22.537   2.877  27.876  0.00  0.00    -0.166 F 
ATOM     18  F   UNL A   1     -20.720   1.495  27.815  0.00  0.00    -0.166 F 
ENDBRANCH   6  15
ENDBRANCH   1   2
BRANCH   1  19
ATOM     19  C   UNL A   1     -26.069   0.224  25.857  0.00  0.00    +0.291 C 
BRANCH  19  20
ATOM     20  C   UNL A   1     -27.377   0.559  25.870  0.00  0.00    +0.290 C 
ATOM     21  O   UNL A   1     -28.055   0.408  26.794  0.00  0.00    -0.269 OA
ATOM     22  N   UNL A   1     -27.923   1.088  24.721  0.00  0.00    -0.176 NA
BRANCH  22  23
ATOM     23  C   UNL A   1     -29.315   1.497  24.590  0.00  0.00    +0.073 A 
ATOM     24  C   UNL A   1     -29.536   2.535  24.127  0.00  0.00    +0.017 A 
ATOM     25  C   UNL A   1     -30.162   2.607  22.909  0.00  0.00    +0.001 A 
ATOM     26  C   UNL A   1     -31.144   1.579  22.565  0.00  0.00    +0.000 A 
ATOM     27  C   UNL A   1     -30.957   0.367  23.311  0.00  0.00    +0.001 A 
ATOM     28  C   UNL A   1     -29.847   0.244  23.655  0.00  0.00    +0.017 A 
BRANCH  26  29
ATOM     29  C   UNL A   1     -32.156   1.783  21.564  0.00  0.00    -0.000 A 
ATOM     30  C   UNL A   1     -32.094   2.663  20.754  0.00  0.00    -0.000 A 
ATOM     31  C   UNL A   1     -33.166   2.868  19.753  0.00  0.00    -0.004 A 
ATOM     32  C   UNL A   1     -33.276   0.872  21.657  0.00  0.00    -0.000 A 
ATOM     33  C   UNL A   1     -34.317   1.027  20.726  0.00  0.00    -0.004 A 
ATOM     34  C   UNL A   1     -34.258   2.012  19.796  0.00  0.00    -0.022 A 
ATOM     35  C   UNL A   1     -35.329   2.200  18.797  0.00  0.00    +0.031 C 
ENDBRANCH  26  29
ENDBRANCH  22  23
ENDBRANCH  19  20
ENDBRANCH   1  19
TORSDOF 7
ENDMDL
ENDMDL
