REMARK  Name = No_4871-gen_results/8p0m/2024-11-26-14-13-15/
REMARK  7 active torsions:
REMARK  status: ('A' for Active; 'I' for Inactive)
REMARK    1  A    between atoms: C_1  and  O_18
REMARK    2  A    between atoms: C_2  and  C_10
REMARK    3  A    between atoms: C_5  and  C_6
REMARK    4  A    between atoms: O_18  and  C_19
REMARK    5  A    between atoms: C_19  and  C_20
REMARK    6  A    between atoms: N_22  and  C_23
REMARK    7  A    between atoms: C_26  and  C_29
REMARK                            x       y       z     vdW  Elec       q    Type
REMARK                         _______ _______ _______ _____ _____    ______ ____
ROOT
ATOM      1  O   UNL A   1     -29.322  -0.512  28.615  0.00  0.00    -0.466 OA
ENDROOT
BRANCH   1   2
ATOM      2  C   UNL A   1     -28.016  -0.814  28.878  0.00  0.00    +0.139 A 
ATOM      3  C   UNL A   1     -27.064  -0.119  28.608  0.00  0.00    +0.036 A 
ATOM      4  C   UNL A   1     -25.792  -0.430  29.076  0.00  0.00    +0.003 A 
ATOM      5  C   UNL A   1     -25.531  -1.588  29.610  0.00  0.00    +0.004 A 
ATOM      6  C   UNL A   1     -26.637  -2.434  29.965  0.00  0.00    +0.074 A 
ATOM      7  C   UNL A   1     -27.898  -2.081  29.556  0.00  0.00    +0.041 A 
BRANCH   3   8
ATOM      8  C   UNL A   1     -27.194   1.259  27.924  0.00  0.00    +0.030 A 
ATOM      9  C   UNL A   1     -26.390   1.614  27.022  0.00  0.00    +0.140 A 
ATOM     10  C   UNL A   1     -26.453   2.926  26.336  0.00  0.00    +0.030 A 
ATOM     11  C   UNL A   1     -27.601   3.720  26.538  0.00  0.00    +0.002 A 
ATOM     12  C   UNL A   1     -28.495   3.240  27.492  0.00  0.00    +0.000 A 
ATOM     13  C   UNL A   1     -28.353   2.049  28.204  0.00  0.00    +0.002 A 
ATOM     14  F   UNL A   1     -25.242   1.023  26.739  0.00  0.00    -0.204 F 
ENDBRANCH   3   8
BRANCH   6  15
ATOM     15  C   UNL A   1     -26.384  -3.698  30.536  0.00  0.00    +0.419 C 
ATOM     16  F   UNL A   1     -26.949  -4.588  29.545  0.00  0.00    -0.166 F 
ATOM     17  F   UNL A   1     -25.090  -3.895  30.441  0.00  0.00    -0.166 F 
ATOM     18  F   UNL A   1     -27.077  -3.731  31.556  0.00  0.00    -0.166 F 
ENDBRANCH   6  15
ENDBRANCH   1   2
BRANCH   1  19
ATOM     19  C   UNL A   1     -30.268  -0.767  29.608  0.00  0.00    +0.291 C 
BRANCH  19  20
ATOM     20  C   UNL A   1     -31.436  -0.126  29.387  0.00  0.00    +0.290 C 
ATOM     21  O   UNL A   1     -31.580   0.641  28.534  0.00  0.00    -0.269 OA
ATOM     22  N   UNL A   1     -32.492  -0.393  30.230  0.00  0.00    -0.176 NA
BRANCH  22  23
ATOM     23  C   UNL A   1     -33.809   0.219  30.111  0.00  0.00    +0.073 A 
ATOM     24  C   UNL A   1     -34.719  -0.363  30.526  0.00  0.00    +0.017 A 
ATOM     25  C   UNL A   1     -35.393   0.132  31.613  0.00  0.00    +0.001 A 
ATOM     26  C   UNL A   1     -35.487   1.582  31.778  0.00  0.00    +0.000 A 
ATOM     27  C   UNL A   1     -34.448   2.284  31.079  0.00  0.00    +0.001 A 
ATOM     28  C   UNL A   1     -33.501   1.615  30.938  0.00  0.00    +0.017 A 
BRANCH  26  29
ATOM     29  C   UNL A   1     -36.504   2.203  32.583  0.00  0.00    -0.000 A 
ATOM     30  C   UNL A   1     -37.593   2.464  32.158  0.00  0.00    -0.000 A 
ATOM     31  C   UNL A   1     -38.611   3.131  33.001  0.00  0.00    -0.004 A 
ATOM     32  C   UNL A   1     -36.080   2.533  33.926  0.00  0.00    -0.000 A 
ATOM     33  C   UNL A   1     -37.013   3.166  34.764  0.00  0.00    -0.004 A 
ATOM     34  C   UNL A   1     -38.254   3.460  34.302  0.00  0.00    -0.022 A 
ATOM     35  C   UNL A   1     -39.264   4.117  35.156  0.00  0.00    +0.031 C 
ENDBRANCH  26  29
ENDBRANCH  22  23
ENDBRANCH  19  20
ENDBRANCH   1  19
TORSDOF 7
