REMARK  Name = No_4872-gen_results/8p0m/2024-11-26-14-13-15/
REMARK  3 active torsions:
REMARK  status: ('A' for Active; 'I' for Inactive)
REMARK    1  A    between atoms: C_3  and  C_4
REMARK    2  A    between atoms: C_7  and  O_13
REMARK    3  A    between atoms: O_13  and  C_14
REMARK                            x       y       z     vdW  Elec       q    Type
REMARK                         _______ _______ _______ _____ _____    ______ ____
ROOT
ATOM      1  C   UNL A   1     -28.016  -0.814  28.878  0.00  0.00    +0.000 A 
ATOM      2  C   UNL A   1     -28.469  -0.785  29.829  0.00  0.00    +0.003 A 
ATOM      3  C   UNL A   1     -28.182   0.428  28.113  0.00  0.00    +0.003 A 
ATOM      4  C   UNL A   1     -29.426   0.110  30.418  0.00  0.00    +0.037 A 
ATOM      5  C   UNL A   1     -29.623   1.220  29.735  0.00  0.00    +0.145 A 
ATOM      6  C   UNL A   1     -28.961   1.453  28.551  0.00  0.00    +0.037 A 
ENDROOT
BRANCH   3   7
ATOM      7  C   UNL A   1     -27.450   0.643  26.850  0.00  0.00    +0.000 A 
ATOM      8  C   UNL A   1     -27.860   1.457  25.908  0.00  0.00    +0.000 A 
ATOM      9  C   UNL A   1     -27.184   1.582  24.700  0.00  0.00    +0.000 A 
ATOM     10  C   UNL A   1     -26.100   0.743  24.415  0.00  0.00    +0.000 A 
ATOM     11  C   UNL A   1     -25.659  -0.123  25.387  0.00  0.00    +0.000 A 
ATOM     12  C   UNL A   1     -26.292  -0.211  26.579  0.00  0.00    +0.000 A 
ENDBRANCH   3   7
BRANCH   5  13
ATOM     13  O   UNL A   1     -30.459   2.212  30.235  0.00  0.00    -0.450 OA
BRANCH  13  14
ATOM     14  C   UNL A   1     -30.823   3.134  30.055  0.00  0.00    +0.180 C 
ATOM     15  C   UNL A   1     -31.965   3.429  30.131  0.00  0.00    +0.044 C 
ENDBRANCH  13  14
ENDBRANCH   5  13
TORSDOF 3
