MODEL 4872
MODEL 1
REMARK VINA RESULT:    -6.691      0.000      0.000
REMARK INTER + INTRA:          -8.403
REMARK INTER:                  -7.864
REMARK INTRA:                  -0.539
REMARK UNBOUND:                -0.539
REMARK  Name = No_4872-gen_results/8p0m/2024-11-26-14-13-15/
REMARK  3 active torsions:
REMARK  status: ('A' for Active; 'I' for Inactive)
REMARK    1  A    between atoms: C_3  and  C_4
REMARK    2  A    between atoms: C_7  and  O_13
REMARK    3  A    between atoms: O_13  and  C_14
REMARK                            x       y       z     vdW  Elec       q    Type
REMARK                         _______ _______ _______ _____ _____    ______ ____
ROOT
ATOM      1  C   UNL A   1     -22.427  -1.103  29.285  0.00  0.00    +0.000 A 
ATOM      2  C   UNL A   1     -21.895  -0.270  28.920  0.00  0.00    +0.003 A 
ATOM      3  C   UNL A   1     -23.746  -1.273  28.663  0.00  0.00    +0.003 A 
ATOM      4  C   UNL A   1     -22.295   0.868  28.139  0.00  0.00    +0.037 A 
ATOM      5  C   UNL A   1     -23.491   0.760  27.596  0.00  0.00    +0.145 A 
ATOM      6  C   UNL A   1     -24.266  -0.359  27.801  0.00  0.00    +0.037 A 
ENDROOT
BRANCH   3   7
ATOM      7  C   UNL A   1     -24.545  -2.489  28.903  0.00  0.00    +0.000 A 
ATOM      8  C   UNL A   1     -25.720  -2.478  29.485  0.00  0.00    +0.000 A 
ATOM      9  C   UNL A   1     -26.414  -3.650  29.760  0.00  0.00    +0.000 A 
ATOM     10  C   UNL A   1     -25.813  -4.892  29.523  0.00  0.00    +0.000 A 
ATOM     11  C   UNL A   1     -24.578  -4.925  28.920  0.00  0.00    +0.000 A 
ATOM     12  C   UNL A   1     -23.923  -3.782  28.613  0.00  0.00    +0.000 A 
ENDBRANCH   3   7
BRANCH   5  13
ATOM     13  O   UNL A   1     -23.967   1.751  26.746  0.00  0.00    -0.450 OA
BRANCH  13  14
ATOM     14  C   UNL A   1     -23.695   2.407  26.031  0.00  0.00    +0.180 C 
ATOM     15  C   UNL A   1     -24.212   3.456  25.854  0.00  0.00    +0.044 C 
ENDBRANCH  13  14
ENDBRANCH   5  13
TORSDOF 3
ENDMDL
ENDMDL
