REMARK  Name = No_4873-gen_results/8p0m/2024-11-26-14-13-15/
REMARK  7 active torsions:
REMARK  status: ('A' for Active; 'I' for Inactive)
REMARK    1  A    between atoms: C_2  and  C_3
REMARK    2  A    between atoms: C_6  and  C_13
REMARK    3  A    between atoms: C_8  and  C_29
REMARK    4  A    between atoms: C_11  and  C_16
REMARK    5  A    between atoms: C_19  and  C_22
REMARK    6  A    between atoms: C_30  and  C_31
REMARK    7  A    between atoms: C_30  and  C_33
REMARK                            x       y       z     vdW  Elec       q    Type
REMARK                         _______ _______ _______ _____ _____    ______ ____
ROOT
ATOM      1  C   UNL A   1     -27.001   0.691  27.491  0.00  0.00    +0.000 A 
ATOM      2  C   UNL A   1     -25.855   1.482  27.083  0.00  0.00    +0.000 A 
ATOM      3  C   UNL A   1     -25.823   2.330  25.994  0.00  0.00    -0.000 A 
ATOM      4  C   UNL A   1     -26.947   2.350  25.160  0.00  0.00    -0.000 A 
ATOM      5  C   UNL A   1     -28.027   1.571  25.367  0.00  0.00    -0.000 A 
ATOM      6  C   UNL A   1     -28.060   0.762  26.499  0.00  0.00    -0.000 A 
ENDROOT
BRANCH   5   7
ATOM      7  C   UNL A   1     -29.159   1.648  24.479  0.00  0.00    -0.004 A 
ATOM      8  C   UNL A   1     -29.983   2.691  24.436  0.00  0.00    -0.000 A 
ATOM      9  C   UNL A   1     -31.147   2.745  23.636  0.00  0.00    -0.000 A 
ATOM     10  C   UNL A   1     -31.413   1.595  22.894  0.00  0.00    -0.000 A 
ATOM     11  C   UNL A   1     -30.661   0.485  22.984  0.00  0.00    -0.004 A 
ATOM     12  C   UNL A   1     -29.540   0.458  23.836  0.00  0.00    -0.022 A 
ATOM     13  C   UNL A   1     -28.771  -0.734  23.936  0.00  0.00    +0.031 C 
BRANCH  10  14
ATOM     14  C   UNL A   1     -32.684   1.748  22.104  0.00  0.00    -0.000 A 
ATOM     15  C   UNL A   1     -33.696   2.030  22.515  0.00  0.00    -0.000 A 
ATOM     16  C   UNL A   1     -34.825   2.367  21.626  0.00  0.00    -0.000 A 
ATOM     17  C   UNL A   1     -34.672   2.064  20.275  0.00  0.00    +0.000 A 
ATOM     18  C   UNL A   1     -33.468   1.627  19.753  0.00  0.00    -0.000 A 
ATOM     19  C   UNL A   1     -32.430   1.534  20.582  0.00  0.00    -0.000 A 
ENDBRANCH  10  14
ENDBRANCH   5   7
BRANCH   1  21
ATOM     20  C   UNL A   1     -28.016  -0.814  28.878  0.00  0.00    +0.007 A 
ATOM     21  C   UNL A   1     -27.064  -0.119  28.608  0.00  0.00    +0.000 A 
ATOM     22  C   UNL A   1     -27.987  -1.633  30.104  0.00  0.00    +0.080 A 
ATOM     23  C   UNL A   1     -26.777  -1.833  30.747  0.00  0.00    +0.007 A 
ATOM     24  C   UNL A   1     -25.630  -1.216  30.306  0.00  0.00    -0.000 A 
ATOM     25  C   UNL A   1     -25.732  -0.348  29.164  0.00  0.00    -0.000 A 
BRANCH  22  26
ATOM     26  C   UNL A   1     -29.171  -2.371  30.593  0.00  0.00    +0.388 C 
ATOM     27  O   UNL A   1     -30.160  -2.003  30.572  0.00  0.00    -0.241 OA
ATOM     28  O   UNL A   1     -28.925  -3.653  31.001  0.00  0.00    -0.241 OA
ENDBRANCH  22  26
BRANCH  24  29
ATOM     29  C   UNL A   1     -24.343  -1.355  30.936  0.00  0.00    -0.003 C 
ATOM     30  C   UNL A   1     -23.251  -1.437  30.178  0.00  0.00    -0.004 C 
BRANCH  30  31
ATOM     31  C   UNL A   1     -22.238  -0.335  30.223  0.00  0.00    -0.007 C 
ATOM     32  C   UNL A   1     -21.525  -0.133  28.999  0.00  0.00    -0.026 C 
ATOM     33  C   UNL A   1     -21.821   0.871  28.083  0.00  0.00    +0.031 C 
ENDBRANCH  30  31
BRANCH  30  34
ATOM     34  C   UNL A   1     -23.181  -2.286  29.040  0.00  0.00    +0.136 C 
ATOM     35  N   UNL A   1     -24.042  -3.274  29.042  0.00  0.00    -0.126 NA
ENDBRANCH  30  34
ENDBRANCH  24  29
ENDBRANCH   1  21
TORSDOF 7
