MODEL 4874
MODEL 1
REMARK VINA RESULT:    -4.899      0.000      0.000
REMARK INTER + INTRA:          -5.641
REMARK INTER:                  -5.472
REMARK INTRA:                  -0.169
REMARK UNBOUND:                -0.169
REMARK  Name = No_4874-gen_results/8p0m/2024-11-26-14-13-15/
REMARK  2 active torsions:
REMARK  status: ('A' for Active; 'I' for Inactive)
REMARK    1  A    between atoms: C_3  and  C_4
REMARK    2  A    between atoms: C_4  and  C_8
REMARK                            x       y       z     vdW  Elec       q    Type
REMARK                         _______ _______ _______ _____ _____    ______ ____
ROOT
ATOM      1  C   UNL A   1     -25.908  -2.622  29.671  0.00  0.00    -0.004 A 
ATOM      2  C   UNL A   1     -26.377  -3.550  29.845  0.00  0.00    -0.000 A 
ATOM      3  C   UNL A   1     -24.634  -2.632  29.061  0.00  0.00    -0.018 A 
ATOM      4  C   UNL A   1     -25.935  -4.929  29.574  0.00  0.00    -0.000 A 
ATOM      5  C   UNL A   1     -24.680  -5.017  28.972  0.00  0.00    -0.000 A 
ATOM      6  C   UNL A   1     -24.015  -3.876  28.656  0.00  0.00    -0.004 A 
ENDROOT
BRANCH   3   7
ATOM      7  C   UNL A   1     -23.887  -1.415  28.648  0.00  0.00    +0.052 C 
BRANCH   7   8
ATOM      8  C   UNL A   1     -22.684  -1.111  29.355  0.00  0.00    -0.021 C 
ATOM      9  C   UNL A   1     -21.793  -0.179  28.921  0.00  0.00    -0.005 C 
ENDBRANCH   7   8
ENDBRANCH   3   7
TORSDOF 2
ENDMDL
ENDMDL
