MODEL 4875
MODEL 1
REMARK VINA RESULT:    -6.384      0.000      0.000
REMARK INTER + INTRA:          -6.836
REMARK INTER:                  -6.758
REMARK INTRA:                  -0.078
REMARK UNBOUND:                -0.078
REMARK  Name = No_4875-gen_results/8p0m/2024-11-26-14-13-15/
REMARK  1 active torsions:
REMARK  status: ('A' for Active; 'I' for Inactive)
REMARK    1  A    between atoms: C_2  and  C_12
REMARK                            x       y       z     vdW  Elec       q    Type
REMARK                         _______ _______ _______ _____ _____    ______ ____
ROOT
ATOM      1  C   UNL A   1     -28.851 -10.270  32.961  0.00  0.00    +0.036 A 
ATOM      2  C   UNL A   1     -28.215 -11.046  32.641  0.00  0.00    +0.082 A 
ATOM      3  C   UNL A   1     -29.856  -9.789  31.939  0.00  0.00    +0.140 A 
ATOM      4  C   UNL A   1     -29.979 -10.478  30.714  0.00  0.00    +0.028 A 
ATOM      5  C   UNL A   1     -28.157 -11.940  31.462  0.00  0.00    +0.007 A 
ATOM      6  C   UNL A   1     -29.071 -11.532  30.502  0.00  0.00    +0.002 A 
ATOM      7  C   UNL A   1     -30.892 -10.303  29.679  0.00  0.00    +0.002 A 
ATOM      8  C   UNL A   1     -30.604 -10.322  28.414  0.00  0.00    +0.000 A 
ATOM      9  C   UNL A   1     -29.580 -11.346  28.069  0.00  0.00    +0.000 A 
ATOM     10  C   UNL A   1     -28.850 -11.951  29.109  0.00  0.00    +0.000 A 
ATOM     11  F   UNL A   1     -30.764  -8.842  32.156  0.00  0.00    -0.204 F 
ENDROOT
BRANCH   2  12
ATOM     12  C   UNL A   1     -27.181 -11.595  33.790  0.00  0.00    +0.388 C 
ATOM     13  O   UNL A   1     -26.929 -10.822  34.759  0.00  0.00    -0.241 OA
ATOM     14  O   UNL A   1     -26.792 -12.740  33.741  0.00  0.00    -0.241 OA
ENDBRANCH   2  12
TORSDOF 1
ENDMDL
ENDMDL
