REMARK  Name = No_4875-gen_results/8p0m/2024-11-26-14-13-15/
REMARK  1 active torsions:
REMARK  status: ('A' for Active; 'I' for Inactive)
REMARK    1  A    between atoms: C_2  and  C_12
REMARK                            x       y       z     vdW  Elec       q    Type
REMARK                         _______ _______ _______ _____ _____    ______ ____
ROOT
ATOM      1  C   UNL A   1     -28.016  -0.814  28.878  0.00  0.00    +0.036 A 
ATOM      2  C   UNL A   1     -28.469  -0.785  29.829  0.00  0.00    +0.082 A 
ATOM      3  C   UNL A   1     -26.504  -0.778  28.877  0.00  0.00    +0.140 A 
ATOM      4  C   UNL A   1     -25.810  -0.853  30.103  0.00  0.00    +0.028 A 
ATOM      5  C   UNL A   1     -27.991  -0.892  31.226  0.00  0.00    +0.007 A 
ATOM      6  C   UNL A   1     -26.604  -0.868  31.265  0.00  0.00    +0.002 A 
ATOM      7  C   UNL A   1     -24.445  -0.953  30.351  0.00  0.00    +0.002 A 
ATOM      8  C   UNL A   1     -23.802  -0.304  31.273  0.00  0.00    +0.000 A 
ATOM      9  C   UNL A   1     -24.577  -0.173  32.537  0.00  0.00    +0.000 A 
ATOM     10  C   UNL A   1     -25.951  -0.477  32.524  0.00  0.00    +0.000 A 
ATOM     11  F   UNL A   1     -25.746  -0.836  27.786  0.00  0.00    -0.204 F 
ENDROOT
BRANCH   2  12
ATOM     12  C   UNL A   1     -30.106  -0.893  29.805  0.00  0.00    +0.388 C 
ATOM     13  O   UNL A   1     -30.752  -0.039  30.477  0.00  0.00    -0.241 OA
ATOM     14  O   UNL A   1     -30.637  -1.692  29.067  0.00  0.00    -0.241 OA
ENDBRANCH   2  12
TORSDOF 1
