MODEL 4876
MODEL 1
REMARK VINA RESULT:    -5.215      0.000      0.000
REMARK INTER + INTRA:         -14.293
REMARK INTER:                  -9.484
REMARK INTRA:                  -4.809
REMARK UNBOUND:                -4.809
REMARK  Name = No_4876-gen_results/8p0m/2024-11-26-14-13-15/
REMARK  14 active torsions:
REMARK  status: ('A' for Active; 'I' for Inactive)
REMARK    1  A    between atoms: C_1  and  C_2
REMARK    2  A    between atoms: C_5  and  C_9
REMARK    3  A    between atoms: C_9  and  N_10
REMARK    4  A    between atoms: N_10  and  C_13
REMARK    5  A    between atoms: C_13  and  C_15
REMARK    6  A    between atoms: C_15  and  O_16
REMARK    7  A    between atoms: O_16  and  C_17
REMARK    8  A    between atoms: C_17  and  C_18
REMARK    9  A    between atoms: C_18  and  O_19
REMARK   10  A    between atoms: O_19  and  C_20
REMARK   11  A    between atoms: C_20  and  C_21
REMARK   12  A    between atoms: C_22  and  C_23
REMARK   13  A    between atoms: C_25  and  C_33
REMARK   14  A    between atoms: C_27  and  C_30
REMARK                            x       y       z     vdW  Elec       q    Type
REMARK                         _______ _______ _______ _____ _____    ______ ____
ROOT
ATOM      1  C   UNL A   1     -34.659 -10.768   8.204  0.00  0.00    +0.177 C 
ENDROOT
BRANCH   1   2
ATOM      2  C   UNL A   1     -33.839  -9.531   7.923  0.00  0.00    +0.174 C 
BRANCH   2   3
ATOM      3  O   UNL A   1     -33.384  -8.972   9.249  0.00  0.00    -0.350 OA
BRANCH   3   4
ATOM      4  C   UNL A   1     -32.366  -8.356   9.103  0.00  0.00    +0.161 C 
BRANCH   4   5
ATOM      5  C   UNL A   1     -31.417  -8.615  10.244  0.00  0.00    +0.124 C 
BRANCH   5   6
ATOM      6  N   UNL A   1     -31.798  -9.656  11.096  0.00  0.00    -0.181 NA
BRANCH   6   7
ATOM      7  C   UNL A   1     -31.238 -10.724  10.943  0.00  0.00    +0.260 C 
ATOM      8  F   UNL A   1     -31.565 -11.644  11.884  0.00  0.00    -0.213 F 
BRANCH   7  12
ATOM      9  C   UNL A   1     -28.852 -12.578   7.833  0.00  0.00    +0.046 A 
ATOM     10  C   UNL A   1     -28.265 -12.099   8.959  0.00  0.00    +0.031 A 
ATOM     11  C   UNL A   1     -28.992 -11.463  10.080  0.00  0.00    +0.140 A 
ATOM     12  C   UNL A   1     -30.413 -11.331   9.941  0.00  0.00    +0.054 A 
ATOM     13  C   UNL A   1     -30.976 -11.776   8.725  0.00  0.00    +0.002 A 
ATOM     14  C   UNL A   1     -30.238 -12.358   7.726  0.00  0.00    +0.001 A 
ATOM     15  F   UNL A   1     -28.673 -11.335  11.178  0.00  0.00    -0.204 F 
BRANCH   9  16
ATOM     16  C   UNL A   1     -28.246 -13.095   6.923  0.00  0.00    +0.341 C 
ATOM     17  F   UNL A   1     -27.102 -12.203   6.666  0.00  0.00    -0.193 F 
ATOM     18  F   UNL A   1     -28.461 -13.890   6.095  0.00  0.00    -0.193 F 
ENDBRANCH   9  16
ENDBRANCH   7  12
ENDBRANCH   6   7
ENDBRANCH   5   6
ENDBRANCH   4   5
ENDBRANCH   3   4
ENDBRANCH   2   3
ENDBRANCH   1   2
BRANCH   1  19
ATOM     19  O   UNL A   1     -34.284 -11.379   8.932  0.00  0.00    -0.323 OA
BRANCH  19  20
ATOM     20  C   UNL A   1     -34.634 -12.814   9.066  0.00  0.00    +0.292 C 
ATOM     21  O   UNL A   1     -34.167 -13.326   7.654  0.00  0.00    -0.185 OA
BRANCH  20  22
ATOM     22  C   UNL A   1     -34.111 -13.549   9.929  0.00  0.00    +0.037 C 
ATOM     23  C   UNL A   1     -33.724 -14.695   9.583  0.00  0.00    +0.001 C 
BRANCH  23  24
ATOM     24  C   UNL A   1     -32.296 -14.989   9.745  0.00  0.00    +0.000 A 
ATOM     25  C   UNL A   1     -31.645 -14.761  10.980  0.00  0.00    +0.005 A 
ATOM     26  C   UNL A   1     -30.356 -14.995  11.184  0.00  0.00    +0.057 A 
ATOM     27  C   UNL A   1     -29.571 -15.574  10.127  0.00  0.00    +0.011 A 
ATOM     28  C   UNL A   1     -30.170 -15.876   8.881  0.00  0.00    +0.080 A 
ATOM     29  C   UNL A   1     -31.496 -15.654   8.744  0.00  0.00    +0.007 A 
BRANCH  28  30
ATOM     30  C   UNL A   1     -29.360 -16.534   7.823  0.00  0.00    +0.388 C 
ATOM     31  O   UNL A   1     -28.317 -16.568   7.825  0.00  0.00    -0.241 OA
ATOM     32  O   UNL A   1     -30.162 -17.130   6.922  0.00  0.00    -0.241 OA
ENDBRANCH  28  30
BRANCH  26  33
ATOM     33  C   UNL A   1     -29.647 -14.663  12.429  0.00  0.00    +0.284 C 
ATOM     34  O   UNL A   1     -29.639 -13.687  12.869  0.00  0.00    -0.267 OA
ATOM     35  N   UNL A   1     -28.949 -15.737  13.034  0.00  0.00    -0.084 NA
ENDBRANCH  26  33
ENDBRANCH  23  24
ENDBRANCH  20  22
ENDBRANCH  19  20
ENDBRANCH   1  19
TORSDOF 14
ENDMDL
ENDMDL
