REMARK  Name = No_4877-gen_results/8p0m/2024-11-26-14-13-15/
REMARK  3 active torsions:
REMARK  status: ('A' for Active; 'I' for Inactive)
REMARK    1  A    between atoms: C_2  and  C_10
REMARK    2  A    between atoms: C_7  and  N_8
REMARK    3  A    between atoms: N_8  and  C_15
REMARK                            x       y       z     vdW  Elec       q    Type
REMARK                         _______ _______ _______ _____ _____    ______ ____
ROOT
ATOM      1  C   UNL A   1     -28.016  -0.814  28.878  0.00  0.00    +0.007 A 
ATOM      2  C   UNL A   1     -27.064  -0.119  28.608  0.00  0.00    +0.080 A 
ATOM      3  C   UNL A   1     -26.972   0.714  27.506  0.00  0.00    +0.007 A 
ATOM      4  C   UNL A   1     -28.105   0.774  26.642  0.00  0.00    +0.001 A 
ATOM      5  C   UNL A   1     -29.201   0.104  27.053  0.00  0.00    +0.014 A 
ATOM      6  C   UNL A   1     -29.210  -0.603  28.185  0.00  0.00    +0.001 A 
ATOM      7  C   UNL A   1     -30.370   0.226  26.160  0.00  0.00    +0.052 A 
ATOM      8  C   UNL A   1     -30.310   1.059  24.966  0.00  0.00    +0.015 A 
ATOM      9  C   UNL A   1     -29.503   1.984  24.852  0.00  0.00    +0.001 A 
ATOM     10  C   UNL A   1     -28.093   1.795  25.604  0.00  0.00    +0.000 A 
ENDROOT
BRANCH   2  11
ATOM     11  C   UNL A   1     -25.705  -0.240  29.428  0.00  0.00    +0.388 C 
ATOM     12  O   UNL A   1     -25.316   0.502  30.009  0.00  0.00    -0.241 OA
ATOM     13  O   UNL A   1     -24.919  -1.363  29.059  0.00  0.00    -0.241 OA
ENDBRANCH   2  11
BRANCH   7  14
ATOM     14  N   UNL A   1     -31.317  -0.457  26.381  0.00  0.00    -0.285 N 
ATOM     15  C   UNL A   1     -32.444  -0.348  25.379  0.00  0.00    +0.117 C 
BRANCH  14  16
ATOM     16  C   UNL A   1     -31.793  -1.032  27.362  0.00  0.00    +0.055 A 
ATOM     17  C   UNL A   1     -32.612  -0.769  27.900  0.00  0.00    +0.015 A 
ATOM     18  C   UNL A   1     -33.173  -1.334  29.165  0.00  0.00    +0.005 A 
ATOM     19  C   UNL A   1     -32.564  -2.471  29.611  0.00  0.00    +0.042 A 
ATOM     20  C   UNL A   1     -31.509  -2.992  28.939  0.00  0.00    +0.197 A 
ATOM     21  C   UNL A   1     -31.058  -2.309  27.804  0.00  0.00    +0.057 A 
ATOM     22  O   UNL A   1     -30.856  -4.121  29.320  0.00  0.00    -0.286 OA
ENDBRANCH  14  16
ENDBRANCH   7  14
TORSDOF 3
