MODEL 4877
MODEL 1
REMARK VINA RESULT:    -7.990      0.000      0.000
REMARK INTER + INTRA:         -10.028
REMARK INTER:                  -9.391
REMARK INTRA:                  -0.637
REMARK UNBOUND:                -0.637
REMARK  Name = No_4877-gen_results/8p0m/2024-11-26-14-13-15/
REMARK  3 active torsions:
REMARK  status: ('A' for Active; 'I' for Inactive)
REMARK    1  A    between atoms: C_2  and  C_10
REMARK    2  A    between atoms: C_7  and  N_8
REMARK    3  A    between atoms: N_8  and  C_15
REMARK                            x       y       z     vdW  Elec       q    Type
REMARK                         _______ _______ _______ _____ _____    ______ ____
ROOT
ATOM      1  C   UNL A   1     -25.478   1.730  27.525  0.00  0.00    +0.007 A 
ATOM      2  C   UNL A   1     -24.701   2.490  26.994  0.00  0.00    +0.080 A 
ATOM      3  C   UNL A   1     -23.322   2.422  27.099  0.00  0.00    +0.007 A 
ATOM      4  C   UNL A   1     -22.783   1.351  27.872  0.00  0.00    +0.001 A 
ATOM      5  C   UNL A   1     -23.668   0.440  28.323  0.00  0.00    +0.014 A 
ATOM      6  C   UNL A   1     -24.977   0.555  28.089  0.00  0.00    +0.001 A 
ATOM      7  C   UNL A   1     -23.072  -0.679  29.078  0.00  0.00    +0.052 A 
ATOM      8  C   UNL A   1     -21.628  -0.774  29.251  0.00  0.00    +0.015 A 
ATOM      9  C   UNL A   1     -20.838  -0.219  28.484  0.00  0.00    +0.001 A 
ATOM     10  C   UNL A   1     -21.341   1.156  27.817  0.00  0.00    +0.000 A 
ENDROOT
BRANCH   2  11
ATOM     11  C   UNL A   1     -25.217   3.796  26.245  0.00  0.00    +0.388 C 
ATOM     12  O   UNL A   1     -24.608   4.484  25.803  0.00  0.00    -0.241 OA
ATOM     13  O   UNL A   1     -26.586   4.085  26.489  0.00  0.00    -0.241 OA
ENDBRANCH   2  11
BRANCH   7  14
ATOM     14  N   UNL A   1     -23.803  -1.435  29.632  0.00  0.00    -0.285 N 
ATOM     15  C   UNL A   1     -24.041  -1.152  31.098  0.00  0.00    +0.117 C 
BRANCH  14  16
ATOM     16  C   UNL A   1     -24.216  -2.580  29.438  0.00  0.00    +0.055 A 
ATOM     17  C   UNL A   1     -23.728  -3.350  28.994  0.00  0.00    +0.015 A 
ATOM     18  C   UNL A   1     -24.200  -4.716  28.611  0.00  0.00    +0.005 A 
ATOM     19  C   UNL A   1     -25.456  -5.035  29.038  0.00  0.00    +0.042 A 
ATOM     20  C   UNL A   1     -26.196  -4.132  29.726  0.00  0.00    +0.197 A 
ATOM     21  C   UNL A   1     -25.638  -2.869  29.951  0.00  0.00    +0.057 A 
ATOM     22  O   UNL A   1     -27.450  -4.379  30.185  0.00  0.00    -0.286 OA
ENDBRANCH  14  16
ENDBRANCH   7  14
TORSDOF 3
ENDMDL
ENDMDL
