MODEL 4878
MODEL 1
REMARK VINA RESULT:    -6.914      0.000      0.000
REMARK INTER + INTRA:         -16.182
REMARK INTER:                 -12.976
REMARK INTRA:                  -3.205
REMARK UNBOUND:                -3.205
REMARK  Name = No_4878-gen_results/8p0m/2024-11-26-14-13-15/
REMARK  15 active torsions:
REMARK  status: ('A' for Active; 'I' for Inactive)
REMARK    1  A    between atoms: C_1  and  O_16
REMARK    2  A    between atoms: C_2  and  O_8
REMARK    3  A    between atoms: C_4  and  C_9
REMARK    4  A    between atoms: C_5  and  O_7
REMARK    5  A    between atoms: O_7  and  C_33
REMARK    6  A    between atoms: O_8  and  C_27
REMARK    7  A    between atoms: C_9  and  C_10
REMARK    8  A    between atoms: C_10  and  C_11
REMARK    9  A    between atoms: C_11  and  C_12
REMARK   10  A    between atoms: C_12  and  C_13
REMARK   11  A    between atoms: C_13  and  O_14
REMARK   12  A    between atoms: O_16  and  C_18
REMARK   13  A    between atoms: C_19  and  C_20
REMARK   14  A    between atoms: C_20  and  C_21
REMARK   15  A    between atoms: C_33  and  C_34
REMARK                            x       y       z     vdW  Elec       q    Type
REMARK                         _______ _______ _______ _____ _____    ______ ____
ROOT
ATOM      1  C   UNL A   1     -25.730   1.491  26.568  0.00  0.00    +0.208 C 
ATOM      2  C   UNL A   1     -25.301   2.235  27.179  0.00  0.00    +0.232 C 
ATOM      3  C   UNL A   1     -27.163   1.738  26.153  0.00  0.00    +0.048 C 
ATOM      4  C   UNL A   1     -27.476   2.967  25.593  0.00  0.00    +0.006 C 
ATOM      5  C   UNL A   1     -25.211   3.723  26.687  0.00  0.00    +0.159 C 
ATOM      6  C   UNL A   1     -26.598   4.131  26.248  0.00  0.00    +0.034 C 
ENDROOT
BRANCH   5   7
ATOM      7  O   UNL A   1     -24.797   4.698  27.567  0.00  0.00    -0.348 OA
BRANCH   7   8
ATOM      8  C   UNL A   1     -25.603   5.185  28.519  0.00  0.00    +0.168 C 
BRANCH   8   9
ATOM      9  C   UNL A   1     -25.360   6.540  28.711  0.00  0.00    +0.006 C 
ATOM     10  C   UNL A   1     -25.858   7.267  29.430  0.00  0.00    -0.002 C 
ENDBRANCH   8   9
ENDBRANCH   7   8
ENDBRANCH   5   7
BRANCH   2  11
ATOM     11  O   UNL A   1     -23.797   2.070  27.539  0.00  0.00    -0.473 OA
BRANCH  11  12
ATOM     12  C   UNL A   1     -23.412   1.425  28.627  0.00  0.00    +0.139 A 
ATOM     13  C   UNL A   1     -23.713   1.572  29.606  0.00  0.00    +0.037 A 
ATOM     14  C   UNL A   1     -23.321   0.739  30.788  0.00  0.00    +0.003 A 
ATOM     15  C   UNL A   1     -22.396  -0.262  30.490  0.00  0.00    +0.000 A 
ATOM     16  C   UNL A   1     -22.428   0.393  28.295  0.00  0.00    +0.037 A 
ATOM     17  C   UNL A   1     -21.962  -0.436  29.254  0.00  0.00    +0.003 A 
ENDBRANCH  11  12
ENDBRANCH   2  11
BRANCH   4  18
ATOM     18  C   UNL A   1     -28.375   3.182  24.587  0.00  0.00    +0.000 C 
BRANCH  18  19
ATOM     19  C   UNL A   1     -28.560   2.160  23.604  0.00  0.00    +0.000 C 
BRANCH  19  20
ATOM     20  C   UNL A   1     -29.881   1.693  23.259  0.00  0.00    +0.005 C 
BRANCH  20  21
ATOM     21  C   UNL A   1     -30.128   0.287  23.402  0.00  0.00    +0.068 C 
BRANCH  21  22
ATOM     22  C   UNL A   1     -29.431  -0.464  24.356  0.00  0.00    +0.306 C 
ATOM     23  O   UNL A   1     -30.388  -1.115  25.140  0.00  0.00    -0.187 OA
BRANCH  22  24
ATOM     24  O   UNL A   1     -28.681  -1.279  23.746  0.00  0.00    -0.148 OA
ATOM     25  F   UNL A   1     -29.062  -1.895  22.882  0.00  0.00    -0.044 F 
ENDBRANCH  22  24
ENDBRANCH  21  22
ENDBRANCH  20  21
ENDBRANCH  19  20
ENDBRANCH  18  19
ENDBRANCH   4  18
BRANCH   1  26
ATOM     26  O   UNL A   1     -25.925   0.158  27.316  0.00  0.00    -0.473 OA
BRANCH  26  27
ATOM     27  C   UNL A   1     -26.882   0.006  28.101  0.00  0.00    +0.168 C 
ATOM     28  C   UNL A   1     -26.606  -0.880  29.060  0.00  0.00    +0.019 C 
BRANCH  28  29
ATOM     29  C   UNL A   1     -25.515  -1.553  29.134  0.00  0.00    +0.056 C 
BRANCH  29  30
ATOM     30  C   UNL A   1     -25.357  -2.644  28.999  0.00  0.00    -0.018 A 
ATOM     31  C   UNL A   1     -24.127  -3.334  28.523  0.00  0.00    -0.004 A 
ATOM     32  C   UNL A   1     -23.971  -4.709  28.492  0.00  0.00    -0.000 A 
ATOM     33  C   UNL A   1     -24.989  -5.502  29.143  0.00  0.00    -0.000 A 
ATOM     34  C   UNL A   1     -26.103  -4.912  29.710  0.00  0.00    -0.000 A 
ATOM     35  C   UNL A   1     -26.244  -3.513  29.695  0.00  0.00    -0.004 A 
ENDBRANCH  29  30
ENDBRANCH  28  29
ENDBRANCH  26  27
ENDBRANCH   1  26
TORSDOF 15
ENDMDL
ENDMDL
