REMARK  Name = No_4878-gen_results/8p0m/2024-11-26-14-13-15/
REMARK  15 active torsions:
REMARK  status: ('A' for Active; 'I' for Inactive)
REMARK    1  A    between atoms: C_1  and  O_16
REMARK    2  A    between atoms: C_2  and  O_8
REMARK    3  A    between atoms: C_4  and  C_9
REMARK    4  A    between atoms: C_5  and  O_7
REMARK    5  A    between atoms: O_7  and  C_33
REMARK    6  A    between atoms: O_8  and  C_27
REMARK    7  A    between atoms: C_9  and  C_10
REMARK    8  A    between atoms: C_10  and  C_11
REMARK    9  A    between atoms: C_11  and  C_12
REMARK   10  A    between atoms: C_12  and  C_13
REMARK   11  A    between atoms: C_13  and  O_14
REMARK   12  A    between atoms: O_16  and  C_18
REMARK   13  A    between atoms: C_19  and  C_20
REMARK   14  A    between atoms: C_20  and  C_21
REMARK   15  A    between atoms: C_33  and  C_34
REMARK                            x       y       z     vdW  Elec       q    Type
REMARK                         _______ _______ _______ _____ _____    ______ ____
ROOT
ATOM      1  C   UNL A   1     -28.016  -0.814  28.878  0.00  0.00    +0.208 C 
ATOM      2  C   UNL A   1     -28.469  -0.785  29.829  0.00  0.00    +0.232 C 
ATOM      3  C   UNL A   1     -26.504  -0.778  28.877  0.00  0.00    +0.048 C 
ATOM      4  C   UNL A   1     -25.831  -1.681  29.685  0.00  0.00    +0.006 C 
ATOM      5  C   UNL A   1     -28.149  -1.885  30.903  0.00  0.00    +0.159 C 
ATOM      6  C   UNL A   1     -26.646  -1.956  31.033  0.00  0.00    +0.034 C 
ENDROOT
BRANCH   5   7
ATOM      7  O   UNL A   1     -28.627  -1.731  32.186  0.00  0.00    -0.348 OA
BRANCH   7   8
ATOM      8  C   UNL A   1     -29.408  -2.650  32.768  0.00  0.00    +0.168 C 
BRANCH   8   9
ATOM      9  C   UNL A   1     -29.778  -2.232  34.041  0.00  0.00    +0.006 C 
ATOM     10  C   UNL A   1     -30.420  -2.762  34.816  0.00  0.00    -0.002 C 
ENDBRANCH   8   9
ENDBRANCH   7   8
ENDBRANCH   5   7
BRANCH   2  11
ATOM     11  O   UNL A   1     -30.017  -0.927  29.877  0.00  0.00    -0.473 OA
BRANCH  11  12
ATOM     12  C   UNL A   1     -30.774  -0.047  30.509  0.00  0.00    +0.139 A 
ATOM     13  C   UNL A   1     -30.562   0.489  31.368  0.00  0.00    +0.037 A 
ATOM     14  C   UNL A   1     -31.419   1.555  31.982  0.00  0.00    +0.003 A 
ATOM     15  C   UNL A   1     -32.642   1.736  31.336  0.00  0.00    +0.000 A 
ATOM     16  C   UNL A   1     -32.059   0.114  29.826  0.00  0.00    +0.037 A 
ATOM     17  C   UNL A   1     -32.953   1.027  30.265  0.00  0.00    +0.003 A 
ENDBRANCH  11  12
ENDBRANCH   2  11
BRANCH   4  18
ATOM     18  C   UNL A   1     -24.653  -2.303  29.381  0.00  0.00    +0.000 C 
BRANCH  18  19
ATOM     19  C   UNL A   1     -23.472  -1.507  29.250  0.00  0.00    +0.000 C 
BRANCH  19  20
ATOM     20  C   UNL A   1     -23.395  -0.193  29.840  0.00  0.00    +0.005 C 
BRANCH  20  21
ATOM     21  C   UNL A   1     -22.612   0.785  29.141  0.00  0.00    +0.068 C 
BRANCH  21  22
ATOM     22  C   UNL A   1     -23.224   1.899  28.554  0.00  0.00    +0.306 C 
ATOM     23  O   UNL A   1     -22.203   2.686  28.013  0.00  0.00    -0.187 OA
BRANCH  22  24
ATOM     24  O   UNL A   1     -24.028   1.488  27.669  0.00  0.00    -0.148 OA
ATOM     25  F   UNL A   1     -24.477   2.191  26.911  0.00  0.00    -0.044 F 
ENDBRANCH  22  24
ENDBRANCH  21  22
ENDBRANCH  20  21
ENDBRANCH  19  20
ENDBRANCH  18  19
ENDBRANCH   4  18
BRANCH   1  26
ATOM     26  O   UNL A   1     -28.285   0.464  28.061  0.00  0.00    -0.473 OA
BRANCH  26  27
ATOM     27  C   UNL A   1     -28.398   1.568  28.630  0.00  0.00    +0.168 C 
ATOM     28  C   UNL A   1     -28.855   2.512  27.804  0.00  0.00    +0.019 C 
BRANCH  28  29
ATOM     29  C   UNL A   1     -29.085   2.333  26.554  0.00  0.00    +0.056 C 
BRANCH  29  30
ATOM     30  C   UNL A   1     -29.795   1.632  26.067  0.00  0.00    -0.018 A 
ATOM     31  C   UNL A   1     -29.964   1.370  24.612  0.00  0.00    -0.004 A 
ATOM     32  C   UNL A   1     -30.794   0.394  24.090  0.00  0.00    -0.000 A 
ATOM     33  C   UNL A   1     -31.373  -0.546  25.023  0.00  0.00    -0.000 A 
ATOM     34  C   UNL A   1     -31.159  -0.428  26.383  0.00  0.00    -0.000 A 
ATOM     35  C   UNL A   1     -30.335   0.597  26.881  0.00  0.00    -0.004 A 
ENDBRANCH  29  30
ENDBRANCH  28  29
ENDBRANCH  26  27
ENDBRANCH   1  26
TORSDOF 15
