MODEL 4879
MODEL 1
REMARK VINA RESULT:    -7.379      0.000      0.000
REMARK INTER + INTRA:          -9.953
REMARK INTER:                  -9.104
REMARK INTRA:                  -0.849
REMARK UNBOUND:                -0.849
REMARK  Name = No_4879-gen_results/8p0m/2024-11-26-14-13-15/
REMARK  4 active torsions:
REMARK  status: ('A' for Active; 'I' for Inactive)
REMARK    1  A    between atoms: C_3  and  C_4
REMARK    2  A    between atoms: C_4  and  C_8
REMARK    3  A    between atoms: C_13  and  N_17
REMARK    4  A    between atoms: N_17  and  C_18
REMARK                            x       y       z     vdW  Elec       q    Type
REMARK                         _______ _______ _______ _____ _____    ______ ____
ROOT
ATOM      1  C   UNL A   1     -24.740  -2.429  29.737  0.00  0.00    -0.012 A 
ATOM      2  C   UNL A   1     -25.889  -2.801  29.967  0.00  0.00    +0.066 A 
ATOM      3  C   UNL A   1     -26.840  -1.897  30.669  0.00  0.00    +0.269 C 
ATOM      4  N   UNL A   1     -28.120  -2.348  30.860  0.00  0.00    -0.161 NA
ATOM      5  O   UNL A   1     -26.578  -0.804  31.106  0.00  0.00    -0.268 OA
ATOM      6  C   UNL A   1     -28.400  -3.701  30.903  0.00  0.00    +0.287 C 
ATOM      7  C   UNL A   1     -26.410  -4.104  29.663  0.00  0.00    +0.073 A 
ATOM      8  N   UNL A   1     -27.704  -4.482  30.034  0.00  0.00    -0.198 NA
ATOM      9  C   UNL A   1     -23.835  -3.256  28.957  0.00  0.00    -0.004 A 
ATOM     10  C   UNL A   1     -24.010  -4.631  28.607  0.00  0.00    +0.001 A 
ATOM     11  C   UNL A   1     -25.475  -5.023  29.002  0.00  0.00    +0.016 A 
ENDROOT
BRANCH   1  12
ATOM     12  C   UNL A   1     -24.198  -1.236  30.178  0.00  0.00    +0.053 C 
BRANCH  12  15
ATOM     13  C   UNL A   1     -21.783  -0.701  29.266  0.00  0.00    -0.004 A 
ATOM     14  C   UNL A   1     -21.261   0.009  28.690  0.00  0.00    -0.000 A 
ATOM     15  C   UNL A   1     -23.280  -0.500  29.345  0.00  0.00    -0.018 A 
ATOM     16  C   UNL A   1     -21.722   1.045  27.757  0.00  0.00    -0.000 A 
ATOM     17  C   UNL A   1     -23.082   1.270  27.752  0.00  0.00    -0.000 A 
ATOM     18  C   UNL A   1     -23.915   0.493  28.515  0.00  0.00    -0.004 A 
ENDBRANCH  12  15
ENDBRANCH   1  12
BRANCH   6  19
ATOM     19  N   UNL A   1     -29.690  -3.979  31.148  0.00  0.00    -0.197 NA
BRANCH  19  20
ATOM     20  C   UNL A   1     -30.017  -5.277  31.464  0.00  0.00    +0.088 A 
ATOM     21  C   UNL A   1     -30.785  -6.020  30.674  0.00  0.00    +0.115 A 
ATOM     22  N   UNL A   1     -30.722  -7.294  30.855  0.00  0.00    -0.241 NA
ATOM     23  C   UNL A   1     -29.561  -5.837  32.769  0.00  0.00    +0.019 A 
ATOM     24  C   UNL A   1     -29.653  -7.159  33.023  0.00  0.00    +0.022 A 
ATOM     25  C   UNL A   1     -30.296  -7.922  32.009  0.00  0.00    +0.099 A 
ENDBRANCH  19  20
ENDBRANCH   6  19
TORSDOF 4
ENDMDL
ENDMDL
