REMARK  Name = No_4879-gen_results/8p0m/2024-11-26-14-13-15/
REMARK  4 active torsions:
REMARK  status: ('A' for Active; 'I' for Inactive)
REMARK    1  A    between atoms: C_3  and  C_4
REMARK    2  A    between atoms: C_4  and  C_8
REMARK    3  A    between atoms: C_13  and  N_17
REMARK    4  A    between atoms: N_17  and  C_18
REMARK                            x       y       z     vdW  Elec       q    Type
REMARK                         _______ _______ _______ _____ _____    ______ ____
ROOT
ATOM      1  C   UNL A   1     -25.926   0.282  26.744  0.00  0.00    -0.012 A 
ATOM      2  C   UNL A   1     -25.626   1.472  26.819  0.00  0.00    +0.066 A 
ATOM      3  C   UNL A   1     -24.816   1.966  27.965  0.00  0.00    +0.269 C 
ATOM      4  N   UNL A   1     -24.474   3.293  27.975  0.00  0.00    -0.161 NA
ATOM      5  O   UNL A   1     -24.448   1.304  28.903  0.00  0.00    -0.268 OA
ATOM      6  C   UNL A   1     -25.235   4.230  27.300  0.00  0.00    +0.287 C 
ATOM      7  C   UNL A   1     -26.049   2.489  25.898  0.00  0.00    +0.073 A 
ATOM      8  N   UNL A   1     -25.737   3.837  26.099  0.00  0.00    -0.198 NA
ATOM      9  C   UNL A   1     -26.621  -0.235  25.577  0.00  0.00    -0.004 A 
ATOM     10  C   UNL A   1     -27.268   0.524  24.553  0.00  0.00    +0.001 A 
ATOM     11  C   UNL A   1     -26.879   2.026  24.779  0.00  0.00    +0.016 A 
ENDROOT
BRANCH   1  12
ATOM     12  C   UNL A   1     -25.654  -0.660  27.719  0.00  0.00    +0.053 C 
BRANCH  12  15
ATOM     13  C   UNL A   1     -28.016  -0.814  28.878  0.00  0.00    -0.004 A 
ATOM     14  C   UNL A   1     -28.469  -0.785  29.829  0.00  0.00    -0.000 A 
ATOM     15  C   UNL A   1     -26.504  -0.778  28.877  0.00  0.00    -0.018 A 
ATOM     16  C   UNL A   1     -27.918  -0.937  31.182  0.00  0.00    -0.000 A 
ATOM     17  C   UNL A   1     -26.542  -0.940  31.261  0.00  0.00    -0.000 A 
ATOM     18  C   UNL A   1     -25.783  -0.893  30.120  0.00  0.00    -0.004 A 
ENDBRANCH  12  15
ENDBRANCH   1  12
BRANCH   6  19
ATOM     19  N   UNL A   1     -24.799   5.490  27.449  0.00  0.00    -0.197 NA
BRANCH  19  20
ATOM     20  C   UNL A   1     -25.097   6.137  28.626  0.00  0.00    +0.088 A 
ATOM     21  C   UNL A   1     -25.727   5.525  29.623  0.00  0.00    +0.115 A 
ATOM     22  N   UNL A   1     -25.623   6.075  30.783  0.00  0.00    -0.241 NA
ATOM     23  C   UNL A   1     -24.773   7.587  28.752  0.00  0.00    +0.019 A 
ATOM     24  C   UNL A   1     -24.829   8.205  29.950  0.00  0.00    +0.022 A 
ATOM     25  C   UNL A   1     -25.308   7.399  31.020  0.00  0.00    +0.099 A 
ENDBRANCH  19  20
ENDBRANCH   6  19
TORSDOF 4
