MODEL 487
MODEL 1
REMARK VINA RESULT:    -6.941      0.000      0.000
REMARK INTER + INTRA:          -8.735
REMARK INTER:                  -8.158
REMARK INTRA:                  -0.577
REMARK UNBOUND:                -0.577
REMARK  Name = No_487-gen_results/8p0m/2024-11-26-14-13-15/
REMARK  3 active torsions:
REMARK  status: ('A' for Active; 'I' for Inactive)
REMARK    1  A    between atoms: C_3  and  C_13
REMARK    2  A    between atoms: C_5  and  C_8
REMARK    3  A    between atoms: C_14  and  C_19
REMARK                            x       y       z     vdW  Elec       q    Type
REMARK                         _______ _______ _______ _____ _____    ______ ____
ROOT
ATOM      1  C   UNL A   1     -24.974  -3.356  28.849  0.00  0.00    +0.058 A 
ATOM      2  C   UNL A   1     -24.454  -2.362  28.398  0.00  0.00    +0.011 A 
ATOM      3  C   UNL A   1     -25.004  -1.099  28.498  0.00  0.00    +0.001 A 
ATOM      4  C   UNL A   1     -26.230  -0.960  29.207  0.00  0.00    +0.005 A 
ATOM      5  C   UNL A   1     -26.683  -2.069  29.837  0.00  0.00    +0.054 A 
ATOM      6  C   UNL A   1     -26.068  -3.230  29.718  0.00  0.00    +0.016 A 
ATOM      7 CL   UNL A   1     -24.199  -4.905  28.704  0.00  0.00    -0.082 Cl
ENDROOT
BRANCH   3   8
ATOM      8  C   UNL A   1     -24.436   0.098  27.770  0.00  0.00    +0.006 A 
ATOM      9  C   UNL A   1     -23.268   0.704  28.415  0.00  0.00    +0.080 A 
ATOM     10  C   UNL A   1     -22.607   1.637  27.551  0.00  0.00    +0.007 A 
ATOM     11  C   UNL A   1     -23.087   1.894  26.239  0.00  0.00    +0.000 A 
ATOM     12  C   UNL A   1     -24.702   0.433  26.468  0.00  0.00    +0.000 A 
ATOM     13  C   UNL A   1     -24.125   1.292  25.765  0.00  0.00    +0.000 A 
BRANCH   9  14
ATOM     14  C   UNL A   1     -22.764   0.491  29.703  0.00  0.00    +0.388 C 
ATOM     15  O   UNL A   1     -21.962  -0.392  29.991  0.00  0.00    -0.241 OA
ATOM     16  O   UNL A   1     -23.411   1.148  30.669  0.00  0.00    -0.241 OA
ENDBRANCH   9  14
ENDBRANCH   3   8
BRANCH   5  17
ATOM     17  C   UNL A   1     -27.881  -2.121  30.684  0.00  0.00    +0.249 C 
ATOM     18  N   UNL A   1     -27.935  -1.541  31.774  0.00  0.00    -0.273 N 
ATOM     19  O   UNL A   1     -28.927  -2.685  30.303  0.00  0.00    -0.270 OA
ATOM     20  C   UNL A   1     -29.129  -1.378  32.660  0.00  0.00    +0.115 C 
ATOM     21  C   UNL A   1     -26.807  -0.738  32.438  0.00  0.00    +0.115 C 
ENDBRANCH   5  17
TORSDOF 3
ENDMDL
ENDMDL
