REMARK  Name = No_488-gen_results/8p0m/2024-11-26-14-13-15/
REMARK  6 active torsions:
REMARK  status: ('A' for Active; 'I' for Inactive)
REMARK    1  A    between atoms: C_1  and  C_2
REMARK    2  A    between atoms: C_1  and  N_8
REMARK    3  A    between atoms: N_8  and  C_9
REMARK    4  A    between atoms: N_8  and  C_10
REMARK    5  A    between atoms: C_10  and  C_12
REMARK    6  A    between atoms: C_12  and  C_13
REMARK                            x       y       z     vdW  Elec       q    Type
REMARK                         _______ _______ _______ _____ _____    ______ ____
ROOT
ATOM      1  N   UNL A   1     -29.188  -0.147  29.092  0.00  0.00    -0.302 N 
ENDROOT
BRANCH   1   2
ATOM      2  C   UNL A   1     -29.601   0.163  30.327  0.00  0.00    +0.057 C 
ATOM      3  C   UNL A   1     -29.989   1.414  30.584  0.00  0.00    -0.010 C 
ATOM      4  C   UNL A   1     -30.385   1.757  31.903  0.00  0.00    +0.032 C 
ENDBRANCH   1   2
BRANCH   1   5
ATOM      5  C   UNL A   1     -28.016  -0.814  28.878  0.00  0.00    +0.118 C 
BRANCH   5   6
ATOM      6  C   UNL A   1     -27.064  -0.119  28.608  0.00  0.00    -0.002 A 
ATOM      7  C   UNL A   1     -25.792  -0.430  29.076  0.00  0.00    -0.000 A 
ATOM      8  C   UNL A   1     -24.546   0.349  28.823  0.00  0.00    +0.029 A 
ATOM      9  C   UNL A   1     -24.659   1.420  27.888  0.00  0.00    +0.140 A 
ATOM     10  C   UNL A   1     -25.947   1.681  27.379  0.00  0.00    +0.029 A 
ATOM     11  C   UNL A   1     -27.044   0.974  27.687  0.00  0.00    -0.000 A 
ATOM     12  F   UNL A   1     -23.604   2.105  27.657  0.00  0.00    -0.204 F 
ENDBRANCH   5   6
ENDBRANCH   1   5
BRANCH   1  13
ATOM     13  C   UNL A   1     -30.047   0.027  27.984  0.00  0.00    +0.096 C 
BRANCH  13  14
ATOM     14  C   UNL A   1     -31.397  -0.299  28.193  0.00  0.00    +0.048 C 
BRANCH  14  15
ATOM     15  C   UNL A   1     -31.832  -1.387  28.177  0.00  0.00    -0.021 A 
ATOM     16  C   UNL A   1     -33.222  -1.780  28.372  0.00  0.00    -0.004 A 
ATOM     17  C   UNL A   1     -33.648  -3.104  28.274  0.00  0.00    -0.000 A 
ATOM     18  C   UNL A   1     -32.718  -4.086  27.941  0.00  0.00    -0.000 A 
ATOM     19  C   UNL A   1     -31.423  -3.880  27.767  0.00  0.00    -0.000 A 
ATOM     20  C   UNL A   1     -30.951  -2.556  27.900  0.00  0.00    -0.004 A 
ENDBRANCH  14  15
ENDBRANCH  13  14
ENDBRANCH   1  13
TORSDOF 6
