MODEL 4881
MODEL 1
REMARK VINA RESULT:    -8.674      0.000      0.000
REMARK INTER + INTRA:         -16.018
REMARK INTER:                 -11.716
REMARK INTRA:                  -4.302
REMARK UNBOUND:                -4.302
REMARK  Name = No_4881-gen_results/8p0m/2024-11-26-14-13-15/
REMARK  6 active torsions:
REMARK  status: ('A' for Active; 'I' for Inactive)
REMARK    1  A    between atoms: C_3  and  C_4
REMARK    2  A    between atoms: C_4  and  C_8
REMARK    3  A    between atoms: C_9  and  C_10
REMARK    4  A    between atoms: C_15  and  C_16
REMARK    5  A    between atoms: C_16  and  C_17
REMARK    6  A    between atoms: C_19  and  C_20
REMARK                            x       y       z     vdW  Elec       q    Type
REMARK                         _______ _______ _______ _____ _____    ______ ____
ROOT
ATOM      1  C   UNL A   1     -25.939   2.347  26.085  0.00  0.00    -0.012 A 
ATOM      2  C   UNL A   1     -27.156   2.059  25.675  0.00  0.00    -0.022 A 
ATOM      3  C   UNL A   1     -27.372   0.921  24.882  0.00  0.00    -0.004 A 
ATOM      4  C   UNL A   1     -26.334   0.027  24.714  0.00  0.00    -0.001 A 
ATOM      5  C   UNL A   1     -25.039   0.219  25.128  0.00  0.00    -0.004 A 
ATOM      6  C   UNL A   1     -24.844   1.434  25.897  0.00  0.00    -0.018 A 
ATOM      7  C   UNL A   1     -28.327   2.941  25.757  0.00  0.00    +0.031 C 
ENDROOT
BRANCH   1   9
ATOM      8  C   UNL A   1     -26.070   3.362  28.273  0.00  0.00    -0.043 C 
ATOM      9  C   UNL A   1     -25.701   3.459  27.010  0.00  0.00    -0.030 C 
ATOM     10  C   UNL A   1     -25.075   4.626  26.469  0.00  0.00    +0.030 C 
ATOM     11  C   UNL A   1     -26.009   4.479  29.141  0.00  0.00    +0.026 C 
BRANCH   8  12
ATOM     12  C   UNL A   1     -26.487   2.137  28.807  0.00  0.00    +0.048 C 
BRANCH  12  15
ATOM     13  C   UNL A   1     -24.567   1.883  30.574  0.00  0.00    -0.004 A 
ATOM     14  C   UNL A   1     -24.309   1.376  31.461  0.00  0.00    -0.000 A 
ATOM     15  C   UNL A   1     -25.935   1.677  30.072  0.00  0.00    -0.018 A 
ATOM     16  C   UNL A   1     -25.132   0.633  32.445  0.00  0.00    -0.000 A 
ATOM     17  C   UNL A   1     -26.444   0.402  32.046  0.00  0.00    -0.000 A 
ATOM     18  C   UNL A   1     -26.918   0.928  30.863  0.00  0.00    -0.004 A 
ENDBRANCH  12  15
ENDBRANCH   8  12
ENDBRANCH   1   9
BRANCH   6  19
ATOM     19  C   UNL A   1     -23.535   1.496  26.443  0.00  0.00    +0.053 C 
BRANCH  19  20
ATOM     20  C   UNL A   1     -23.285   0.707  27.547  0.00  0.00    -0.018 A 
ATOM     21  C   UNL A   1     -24.058  -0.328  27.822  0.00  0.00    -0.004 A 
ATOM     22  C   UNL A   1     -23.955  -1.174  28.520  0.00  0.00    -0.000 A 
ATOM     23  C   UNL A   1     -22.689  -1.351  29.361  0.00  0.00    -0.000 A 
ATOM     24  C   UNL A   1     -21.807  -0.261  29.156  0.00  0.00    -0.000 A 
ATOM     25  C   UNL A   1     -22.029   0.707  28.235  0.00  0.00    -0.004 A 
BRANCH  22  26
ATOM     26  C   UNL A   1     -24.824  -2.411  28.769  0.00  0.00    -0.000 A 
ATOM     27  C   UNL A   1     -26.019  -2.293  29.519  0.00  0.00    -0.000 A 
ATOM     28  C   UNL A   1     -26.631  -3.472  29.907  0.00  0.00    -0.000 A 
ATOM     29  C   UNL A   1     -25.977  -4.737  29.594  0.00  0.00    +0.000 A 
ATOM     30  C   UNL A   1     -24.752  -4.711  28.984  0.00  0.00    -0.000 A 
ATOM     31  C   UNL A   1     -24.147  -3.562  28.672  0.00  0.00    -0.000 A 
ENDBRANCH  22  26
ENDBRANCH  19  20
ENDBRANCH   6  19
TORSDOF 6
ENDMDL
ENDMDL
