REMARK  Name = No_4881-gen_results/8p0m/2024-11-26-14-13-15/
REMARK  6 active torsions:
REMARK  status: ('A' for Active; 'I' for Inactive)
REMARK    1  A    between atoms: C_3  and  C_4
REMARK    2  A    between atoms: C_4  and  C_8
REMARK    3  A    between atoms: C_9  and  C_10
REMARK    4  A    between atoms: C_15  and  C_16
REMARK    5  A    between atoms: C_16  and  C_17
REMARK    6  A    between atoms: C_19  and  C_20
REMARK                            x       y       z     vdW  Elec       q    Type
REMARK                         _______ _______ _______ _____ _____    ______ ____
ROOT
ATOM      1  C   UNL A   1     -24.892   1.830  28.258  0.00  0.00    -0.012 A 
ATOM      2  C   UNL A   1     -23.718   1.288  28.505  0.00  0.00    -0.022 A 
ATOM      3  C   UNL A   1     -23.083   1.533  29.733  0.00  0.00    -0.004 A 
ATOM      4  C   UNL A   1     -23.791   2.178  30.726  0.00  0.00    -0.001 A 
ATOM      5  C   UNL A   1     -25.030   2.752  30.579  0.00  0.00    -0.004 A 
ATOM      6  C   UNL A   1     -25.631   2.524  29.278  0.00  0.00    -0.018 A 
ATOM      7  C   UNL A   1     -22.854   0.617  27.526  0.00  0.00    +0.031 C 
ENDROOT
BRANCH   1   9
ATOM      8  C   UNL A   1     -25.898   0.239  26.745  0.00  0.00    -0.043 C 
ATOM      9  C   UNL A   1     -25.632   1.498  27.038  0.00  0.00    -0.030 C 
ATOM     10  C   UNL A   1     -26.023   2.591  26.202  0.00  0.00    +0.030 C 
ATOM     11  C   UNL A   1     -26.456  -0.119  25.494  0.00  0.00    +0.026 C 
BRANCH   8  12
ATOM     12  C   UNL A   1     -25.683  -0.777  27.683  0.00  0.00    +0.048 C 
BRANCH  12  15
ATOM     13  C   UNL A   1     -28.016  -0.814  28.878  0.00  0.00    -0.004 A 
ATOM     14  C   UNL A   1     -28.469  -0.785  29.829  0.00  0.00    -0.000 A 
ATOM     15  C   UNL A   1     -26.546  -0.876  28.850  0.00  0.00    -0.018 A 
ATOM     16  C   UNL A   1     -27.918  -1.003  31.188  0.00  0.00    -0.000 A 
ATOM     17  C   UNL A   1     -26.531  -1.079  31.246  0.00  0.00    -0.000 A 
ATOM     18  C   UNL A   1     -25.780  -1.046  30.090  0.00  0.00    -0.004 A 
ENDBRANCH  12  15
ENDBRANCH   8  12
ENDBRANCH   1   9
BRANCH   6  19
ATOM     19  C   UNL A   1     -26.973   2.987  29.240  0.00  0.00    +0.053 C 
BRANCH  19  20
ATOM     20  C   UNL A   1     -27.156   4.348  29.105  0.00  0.00    -0.018 A 
ATOM     21  C   UNL A   1     -26.126   5.173  29.158  0.00  0.00    -0.004 A 
ATOM     22  C   UNL A   1     -26.009   6.240  28.910  0.00  0.00    -0.000 A 
ATOM     23  C   UNL A   1     -27.168   7.042  28.316  0.00  0.00    -0.000 A 
ATOM     24  C   UNL A   1     -28.336   6.242  28.250  0.00  0.00    -0.000 A 
ATOM     25  C   UNL A   1     -28.346   4.921  28.551  0.00  0.00    -0.004 A 
BRANCH  22  26
ATOM     26  C   UNL A   1     -24.786   7.163  28.902  0.00  0.00    -0.000 A 
ATOM     27  C   UNL A   1     -24.648   8.158  29.899  0.00  0.00    -0.000 A 
ATOM     28  C   UNL A   1     -23.656   9.104  29.703  0.00  0.00    -0.000 A 
ATOM     29  C   UNL A   1     -22.883   9.064  28.468  0.00  0.00    +0.000 A 
ATOM     30  C   UNL A   1     -23.208   8.132  27.519  0.00  0.00    -0.000 A 
ATOM     31  C   UNL A   1     -24.210   7.267  27.698  0.00  0.00    -0.000 A 
ENDBRANCH  22  26
ENDBRANCH  19  20
ENDBRANCH   6  19
TORSDOF 6
