MODEL 4882
MODEL 1
REMARK VINA RESULT:    -6.828      0.000      0.000
REMARK INTER + INTRA:          -8.311
REMARK INTER:                  -8.025
REMARK INTRA:                  -0.285
REMARK UNBOUND:                -0.285
REMARK  Name = No_4882-gen_results/8p0m/2024-11-26-14-13-15/
REMARK  3 active torsions:
REMARK  status: ('A' for Active; 'I' for Inactive)
REMARK    1  A    between atoms: C_2  and  C_14
REMARK    2  A    between atoms: C_14  and  O_15
REMARK    3  A    between atoms: O_15  and  C_20
REMARK                            x       y       z     vdW  Elec       q    Type
REMARK                         _______ _______ _______ _____ _____    ______ ____
ROOT
ATOM      1  C   UNL A   1     -28.151 -11.611  31.803  0.00  0.00    +0.006 A 
ATOM      2  C   UNL A   1     -28.519 -11.112  32.655  0.00  0.00    +0.076 A 
ATOM      3  C   UNL A   1     -28.885 -11.322  30.513  0.00  0.00    -0.000 A 
ATOM      4  C   UNL A   1     -28.678 -11.980  29.247  0.00  0.00    -0.004 A 
ATOM      5  C   UNL A   1     -29.479 -10.011  32.807  0.00  0.00    +0.006 A 
ATOM      6  C   UNL A   1     -30.171  -9.670  31.665  0.00  0.00    +0.000 A 
ATOM      7  C   UNL A   1     -29.884 -10.284  30.473  0.00  0.00    +0.000 A 
ATOM      8  C   UNL A   1     -29.624 -11.876  28.224  0.00  0.00    -0.013 A 
ATOM      9  C   UNL A   1     -30.559 -10.819  28.245  0.00  0.00    +0.052 A 
ATOM     10  C   UNL A   1     -30.748 -10.103  29.343  0.00  0.00    +0.004 A 
ATOM     11  C   UNL A   1     -31.422 -10.661  27.040  0.00  0.00    +0.269 C 
ATOM     12  N   UNL A   1     -32.157 -11.288  26.233  0.00  0.00    -0.174 NA
ATOM     13  O   UNL A   1     -31.703  -9.350  26.898  0.00  0.00    -0.268 OA
ATOM     14  C   UNL A   1     -32.038 -12.758  26.189  0.00  0.00    +0.085 C 
ATOM     15  C   UNL A   1     -31.318 -13.354  27.013  0.00  0.00    -0.004 C 
ATOM     16  C   UNL A   1     -30.135 -13.035  27.746  0.00  0.00    +0.054 C 
ENDROOT
BRANCH   2  17
ATOM     17  C   UNL A   1     -27.730 -11.343  34.030  0.00  0.00    +0.346 C 
ATOM     18  O   UNL A   1     -27.590 -12.509  34.564  0.00  0.00    -0.244 OA
BRANCH  17  19
ATOM     19  O   UNL A   1     -26.984 -10.493  34.219  0.00  0.00    -0.418 OA
BRANCH  19  20
ATOM     20  C   UNL A   1     -26.736  -9.666  34.936  0.00  0.00    +0.178 C 
ATOM     21  C   UNL A   1     -27.562  -8.803  35.456  0.00  0.00    +0.015 C 
ATOM     22  C   UNL A   1     -27.200  -7.754  36.397  0.00  0.00    +0.034 C 
ENDBRANCH  19  20
ENDBRANCH  17  19
ENDBRANCH   2  17
TORSDOF 3
ENDMDL
ENDMDL
