REMARK  Name = No_4882-gen_results/8p0m/2024-11-26-14-13-15/
REMARK  3 active torsions:
REMARK  status: ('A' for Active; 'I' for Inactive)
REMARK    1  A    between atoms: C_2  and  C_14
REMARK    2  A    between atoms: C_14  and  O_15
REMARK    3  A    between atoms: O_15  and  C_20
REMARK                            x       y       z     vdW  Elec       q    Type
REMARK                         _______ _______ _______ _____ _____    ______ ____
ROOT
ATOM      1  C   UNL A   1     -28.016  -0.814  28.878  0.00  0.00    +0.006 A 
ATOM      2  C   UNL A   1     -28.469  -0.785  29.829  0.00  0.00    +0.076 A 
ATOM      3  C   UNL A   1     -26.504  -0.778  28.877  0.00  0.00    -0.000 A 
ATOM      4  C   UNL A   1     -25.654  -0.660  27.719  0.00  0.00    -0.004 A 
ATOM      5  C   UNL A   1     -27.918  -0.937  31.182  0.00  0.00    +0.006 A 
ATOM      6  C   UNL A   1     -26.542  -0.940  31.261  0.00  0.00    +0.000 A 
ATOM      7  C   UNL A   1     -25.783  -0.893  30.120  0.00  0.00    +0.000 A 
ATOM      8  C   UNL A   1     -24.310  -0.301  27.853  0.00  0.00    -0.013 A 
ATOM      9  C   UNL A   1     -23.667  -0.460  29.099  0.00  0.00    +0.052 A 
ATOM     10  C   UNL A   1     -24.370  -0.664  30.203  0.00  0.00    +0.004 A 
ATOM     11  C   UNL A   1     -22.195  -0.229  29.131  0.00  0.00    +0.269 C 
ATOM     12  N   UNL A   1     -21.288   0.567  28.771  0.00  0.00    -0.174 NA
ATOM     13  O   UNL A   1     -21.667  -1.032  30.076  0.00  0.00    -0.268 OA
ATOM     14  C   UNL A   1     -21.614   1.560  27.729  0.00  0.00    +0.085 C 
ATOM     15  C   UNL A   1     -22.783   1.674  27.315  0.00  0.00    -0.004 C 
ATOM     16  C   UNL A   1     -23.902   0.798  27.175  0.00  0.00    +0.054 C 
ENDROOT
BRANCH   2  17
ATOM     17  C   UNL A   1     -30.067  -0.884  29.876  0.00  0.00    +0.346 C 
ATOM     18  O   UNL A   1     -30.717  -1.137  30.961  0.00  0.00    -0.244 OA
BRANCH  17  19
ATOM     19  O   UNL A   1     -30.537  -0.301  29.007  0.00  0.00    -0.418 OA
BRANCH  19  20
ATOM     20  C   UNL A   1     -30.806   0.735  28.670  0.00  0.00    +0.178 C 
ATOM     21  C   UNL A   1     -31.805   1.079  27.908  0.00  0.00    +0.015 C 
ATOM     22  C   UNL A   1     -32.128   2.440  27.507  0.00  0.00    +0.034 C 
ENDBRANCH  19  20
ENDBRANCH  17  19
ENDBRANCH   2  17
TORSDOF 3
