MODEL 4883
MODEL 1
REMARK VINA RESULT:    -6.374      0.000      0.000
REMARK INTER + INTRA:          -7.667
REMARK INTER:                  -7.119
REMARK INTRA:                  -0.548
REMARK UNBOUND:                -0.548
REMARK  Name = No_4883-gen_results/8p0m/2024-11-26-14-13-15/
REMARK  2 active torsions:
REMARK  status: ('A' for Active; 'I' for Inactive)
REMARK    1  A    between atoms: C_3  and  C_4
REMARK    2  A    between atoms: C_4  and  C_8
REMARK                            x       y       z     vdW  Elec       q    Type
REMARK                         _______ _______ _______ _____ _____    ______ ____
ROOT
ATOM      1  C   UNL A   1     -24.438  -1.180  29.786  0.00  0.00    +0.053 C 
ENDROOT
BRANCH   1   4
ATOM      2  C   UNL A   1     -24.773  -0.052  27.505  0.00  0.00    -0.004 A 
ATOM      3  C   UNL A   1     -24.393   0.641  26.808  0.00  0.00    -0.000 A 
ATOM      4  C   UNL A   1     -24.001  -0.317  28.658  0.00  0.00    -0.018 A 
ATOM      5  C   UNL A   1     -23.142   1.419  26.792  0.00  0.00    -0.000 A 
ATOM      6  C   UNL A   1     -22.325   1.205  27.903  0.00  0.00    -0.000 A 
ATOM      7  C   UNL A   1     -22.749   0.371  28.886  0.00  0.00    -0.004 A 
ENDBRANCH   1   4
BRANCH   1   8
ATOM      8  C   UNL A   1     -24.821  -2.521  29.478  0.00  0.00    -0.018 A 
ATOM      9  C   UNL A   1     -25.927  -3.012  29.899  0.00  0.00    -0.004 A 
ATOM     10  C   UNL A   1     -26.163  -4.527  29.693  0.00  0.00    -0.000 A 
ATOM     11  C   UNL A   1     -25.170  -5.271  29.030  0.00  0.00    -0.000 A 
ATOM     12  C   UNL A   1     -24.062  -4.640  28.555  0.00  0.00    -0.000 A 
ATOM     13  C   UNL A   1     -23.789  -3.299  28.864  0.00  0.00    -0.004 A 
ENDBRANCH   1   8
TORSDOF 2
ENDMDL
ENDMDL
