REMARK  Name = No_4883-gen_results/8p0m/2024-11-26-14-13-15/
REMARK  2 active torsions:
REMARK  status: ('A' for Active; 'I' for Inactive)
REMARK    1  A    between atoms: C_3  and  C_4
REMARK    2  A    between atoms: C_4  and  C_8
REMARK                            x       y       z     vdW  Elec       q    Type
REMARK                         _______ _______ _______ _____ _____    ______ ____
ROOT
ATOM      1  C   UNL A   1     -26.335   0.290  27.284  0.00  0.00    +0.053 C 
ENDROOT
BRANCH   1   4
ATOM      2  C   UNL A   1     -28.016  -0.814  28.878  0.00  0.00    -0.004 A 
ATOM      3  C   UNL A   1     -28.469  -0.785  29.829  0.00  0.00    -0.000 A 
ATOM      4  C   UNL A   1     -27.136   0.236  28.535  0.00  0.00    -0.018 A 
ATOM      5  C   UNL A   1     -28.369   0.196  30.924  0.00  0.00    -0.000 A 
ATOM      6  C   UNL A   1     -27.516   1.266  30.654  0.00  0.00    -0.000 A 
ATOM      7  C   UNL A   1     -26.841   1.294  29.476  0.00  0.00    -0.004 A 
ENDBRANCH   1   4
BRANCH   1   8
ATOM      8  C   UNL A   1     -25.677   1.520  26.977  0.00  0.00    -0.018 A 
ATOM      9  C   UNL A   1     -24.651   1.554  26.210  0.00  0.00    -0.004 A 
ATOM     10  C   UNL A   1     -23.884   2.893  26.098  0.00  0.00    -0.000 A 
ATOM     11  C   UNL A   1     -24.371   4.001  26.816  0.00  0.00    -0.000 A 
ATOM     12  C   UNL A   1     -25.514   3.880  27.545  0.00  0.00    -0.000 A 
ATOM     13  C   UNL A   1     -26.126   2.635  27.753  0.00  0.00    -0.004 A 
ENDBRANCH   1   8
TORSDOF 2
