MODEL 4884
MODEL 1
REMARK VINA RESULT:    -5.364      0.000      0.000
REMARK INTER + INTRA:          -6.318
REMARK INTER:                  -5.991
REMARK INTRA:                  -0.327
REMARK UNBOUND:                -0.327
REMARK  Name = No_4884-gen_results/8p0m/2024-11-26-14-13-15/
REMARK  2 active torsions:
REMARK  status: ('A' for Active; 'I' for Inactive)
REMARK    1  A    between atoms: C_5  and  C_6
REMARK    2  A    between atoms: C_8  and  C_9
REMARK                            x       y       z     vdW  Elec       q    Type
REMARK                         _______ _______ _______ _____ _____    ______ ____
ROOT
ATOM      1  C   UNL A   1     -26.328  -3.692  29.670  0.00  0.00    -0.000 A 
ATOM      2  C   UNL A   1     -26.087  -4.877  29.672  0.00  0.00    +0.000 A 
ATOM      3  C   UNL A   1     -24.964  -5.423  29.139  0.00  0.00    +0.000 A 
ATOM      4  C   UNL A   1     -24.020  -4.564  28.545  0.00  0.00    +0.000 A 
ATOM      5  C   UNL A   1     -25.364  -2.748  29.166  0.00  0.00    -0.000 A 
ATOM      6  C   UNL A   1     -24.221  -3.235  28.619  0.00  0.00    -0.000 A 
ENDROOT
BRANCH   5   7
ATOM      7  C   UNL A   1     -25.603  -1.327  29.210  0.00  0.00    -0.000 C 
ATOM      8  C   UNL A   1     -25.197  -0.645  30.169  0.00  0.00    -0.000 C 
BRANCH   8   9
ATOM      9  C   UNL A   1     -24.559  -1.292  31.274  0.00  0.00    -0.005 C 
ATOM     10  C   UNL A   1     -23.093  -1.123  31.438  0.00  0.00    -0.026 C 
ATOM     11  C   UNL A   1     -22.457  -0.329  30.473  0.00  0.00    +0.031 C 
ENDBRANCH   8   9
ENDBRANCH   5   7
TORSDOF 2
ENDMDL
ENDMDL
