REMARK  Name = No_4885-gen_results/8p0m/2024-11-26-14-13-15/
REMARK  0 active torsions:
REMARK  status: ('A' for Active; 'I' for Inactive)
REMARK                            x       y       z     vdW  Elec       q    Type
REMARK                         _______ _______ _______ _____ _____    ______ ____
ROOT
ATOM      1  C   UNL A   1     -28.016  -0.814  28.878  0.00  0.00    +0.008 A 
ATOM      2  C   UNL A   1     -28.469  -0.785  29.829  0.00  0.00    +0.069 A 
ATOM      3  C   UNL A   1     -26.546  -0.876  28.850  0.00  0.00    +0.030 A 
ATOM      4  C   UNL A   1     -25.804  -1.032  30.057  0.00  0.00    +0.141 A 
ATOM      5  C   UNL A   1     -30.006  -0.746  29.898  0.00  0.00    +0.251 C 
ATOM      6  C   UNL A   1     -26.575  -1.056  31.201  0.00  0.00    +0.046 A 
ATOM      7  C   UNL A   1     -27.925  -0.974  31.168  0.00  0.00    +0.074 A 
ATOM      8  O   UNL A   1     -30.634  -0.099  29.160  0.00  0.00    -0.270 OA
ATOM      9  N   UNL A   1     -30.663  -1.281  31.026  0.00  0.00    -0.260 N 
ATOM     10  C   UNL A   1     -32.101  -1.268  31.088  0.00  0.00    +0.095 C 
ATOM     11  F   UNL A   1     -24.513  -1.083  30.055  0.00  0.00    -0.204 F 
ATOM     12  C   UNL A   1     -32.586  -2.011  31.936  0.00  0.00    +0.022 C 
ATOM     13  C   UNL A   1     -31.828  -2.749  32.925  0.00  0.00    +0.005 C 
ATOM     14  C   UNL A   1     -30.425  -2.766  32.810  0.00  0.00    +0.042 C 
ATOM     15  C   UNL A   1     -29.869  -2.139  31.819  0.00  0.00    +0.169 C 
ATOM     16  N   UNL A   1     -28.531  -1.970  31.912  0.00  0.00    -0.219 NA
ENDROOT
TORSDOF 0
