MODEL 4885
MODEL 1
REMARK VINA RESULT:    -7.196      0.000      0.000
REMARK INTER + INTRA:          -7.196
REMARK INTER:                  -7.196
REMARK INTRA:                   0.000
REMARK UNBOUND:                 0.000
REMARK  Name = No_4885-gen_results/8p0m/2024-11-26-14-13-15/
REMARK  0 active torsions:
REMARK  status: ('A' for Active; 'I' for Inactive)
REMARK                            x       y       z     vdW  Elec       q    Type
REMARK                         _______ _______ _______ _____ _____    ______ ____
ROOT
ATOM      1  C   UNL A   1     -24.618   0.639  28.211  0.00  0.00    +0.008 A 
ATOM      2  C   UNL A   1     -24.420  -0.230  28.773  0.00  0.00    +0.069 A 
ATOM      3  C   UNL A   1     -23.451   1.433  27.792  0.00  0.00    +0.030 A 
ATOM      4  C   UNL A   1     -22.129   0.954  28.023  0.00  0.00    +0.141 A 
ATOM      5  C   UNL A   1     -25.613  -1.100  29.207  0.00  0.00    +0.251 C 
ATOM      6  C   UNL A   1     -22.066  -0.245  28.703  0.00  0.00    +0.046 A 
ATOM      7  C   UNL A   1     -23.174  -0.922  29.082  0.00  0.00    +0.074 A 
ATOM      8  O   UNL A   1     -26.609  -0.625  29.582  0.00  0.00    -0.270 OA
ATOM      9  N   UNL A   1     -25.425  -2.483  29.412  0.00  0.00    -0.260 N 
ATOM     10  C   UNL A   1     -26.542  -3.306  29.796  0.00  0.00    +0.095 C 
ATOM     11  F   UNL A   1     -21.091   1.638  27.668  0.00  0.00    -0.204 F 
ATOM     12  C   UNL A   1     -26.364  -4.512  29.656  0.00  0.00    +0.022 C 
ATOM     13  C   UNL A   1     -25.107  -5.128  29.284  0.00  0.00    +0.005 C 
ATOM     14  C   UNL A   1     -24.050  -4.291  28.881  0.00  0.00    +0.042 C 
ATOM     15  C   UNL A   1     -24.245  -3.009  28.840  0.00  0.00    +0.169 C 
ATOM     16  N   UNL A   1     -23.133  -2.252  28.706  0.00  0.00    -0.219 NA
ENDROOT
TORSDOF 0
ENDMDL
ENDMDL
