REMARK  Name = No_4886-gen_results/8p0m/2024-11-26-14-13-15/
REMARK  1 active torsions:
REMARK  status: ('A' for Active; 'I' for Inactive)
REMARK    1  A    between atoms: C_5  and  C_10
REMARK                            x       y       z     vdW  Elec       q    Type
REMARK                         _______ _______ _______ _____ _____    ______ ____
ROOT
ATOM      1  C   UNL A   1     -28.016  -0.814  28.878  0.00  0.00    +0.051 A 
ATOM      2  C   UNL A   1     -27.064  -0.119  28.608  0.00  0.00    -0.009 A 
ATOM      3  C   UNL A   1     -26.972   0.714  27.506  0.00  0.00    +0.035 A 
ATOM      4  C   UNL A   1     -28.105   0.774  26.642  0.00  0.00    +0.007 A 
ATOM      5  C   UNL A   1     -29.201   0.104  27.053  0.00  0.00    +0.072 A 
ATOM      6  C   UNL A   1     -28.022  -1.590  30.088  0.00  0.00    +0.265 C 
ATOM      7  C   UNL A   1     -29.164  -0.639  28.148  0.00  0.00    +0.008 A 
ATOM      8  O   UNL A   1     -28.845  -1.957  30.662  0.00  0.00    -0.268 OA
ATOM      9  N   UNL A   1     -26.693  -2.197  30.382  0.00  0.00    -0.201 NA
ATOM     10  C   UNL A   1     -25.710   1.444  27.109  0.00  0.00    +0.195 C 
ATOM     11  C   UNL A   1     -24.622   1.188  27.743  0.00  0.00    +0.035 A 
ATOM     12  C   UNL A   1     -23.365   1.825  27.479  0.00  0.00    -0.001 A 
ATOM     13  C   UNL A   1     -22.161   1.633  28.172  0.00  0.00    -0.022 A 
ATOM     14  C   UNL A   1     -20.997   2.142  27.806  0.00  0.00    +0.031 C 
ATOM     15  C   UNL A   1     -22.354   0.686  29.312  0.00  0.00    -0.005 A 
ATOM     16  C   UNL A   1     -23.504   0.053  29.709  0.00  0.00    -0.004 A 
ATOM     17  C   UNL A   1     -24.561   0.312  28.919  0.00  0.00    -0.014 A 
ATOM     18  C   UNL A   1     -25.758  -0.322  29.310  0.00  0.00    +0.067 C 
ATOM     19  C   UNL A   1     -25.674  -1.346  30.251  0.00  0.00    +0.124 C 
ATOM     20  O   UNL A   1     -25.784   2.280  26.129  0.00  0.00    -0.287 OA
ENDROOT
BRANCH   5  21
ATOM     21  C   UNL A   1     -30.379   0.215  26.173  0.00  0.00    +0.419 C 
ATOM     22  F   UNL A   1     -30.263   0.257  25.006  0.00  0.00    -0.166 F 
ATOM     23  F   UNL A   1     -31.164   1.221  26.656  0.00  0.00    -0.166 F 
ATOM     24  F   UNL A   1     -31.426  -0.705  26.365  0.00  0.00    -0.166 F 
ENDBRANCH   5  21
TORSDOF 1
