MODEL 4886
MODEL 1
REMARK VINA RESULT:    -7.448      0.000      0.000
REMARK INTER + INTRA:          -8.157
REMARK INTER:                  -7.884
REMARK INTRA:                  -0.274
REMARK UNBOUND:                -0.274
REMARK  Name = No_4886-gen_results/8p0m/2024-11-26-14-13-15/
REMARK  1 active torsions:
REMARK  status: ('A' for Active; 'I' for Inactive)
REMARK    1  A    between atoms: C_5  and  C_10
REMARK                            x       y       z     vdW  Elec       q    Type
REMARK                         _______ _______ _______ _____ _____    ______ ____
ROOT
ATOM      1  C   UNL A   1     -28.111 -11.231  32.737  0.00  0.00    +0.051 A 
ATOM      2  C   UNL A   1     -28.762 -10.229  32.919  0.00  0.00    -0.009 A 
ATOM      3  C   UNL A   1     -29.639  -9.671  32.004  0.00  0.00    +0.035 A 
ATOM      4  C   UNL A   1     -29.802 -10.354  30.763  0.00  0.00    +0.007 A 
ATOM      5  C   UNL A   1     -29.177 -11.544  30.653  0.00  0.00    +0.072 A 
ATOM      6  C   UNL A   1     -27.281 -11.752  33.789  0.00  0.00    +0.265 C 
ATOM      7  C   UNL A   1     -28.384 -11.978  31.620  0.00  0.00    +0.008 A 
ATOM      8  O   UNL A   1     -26.935 -12.749  33.958  0.00  0.00    -0.268 OA
ATOM      9  N   UNL A   1     -26.587 -10.677  34.553  0.00  0.00    -0.201 NA
ATOM     10  C   UNL A   1     -30.314  -8.333  32.196  0.00  0.00    +0.195 C 
ATOM     11  C   UNL A   1     -29.968  -7.604  33.196  0.00  0.00    +0.035 A 
ATOM     12  C   UNL A   1     -30.544  -6.327  33.502  0.00  0.00    -0.001 A 
ATOM     13  C   UNL A   1     -30.252  -5.514  34.607  0.00  0.00    -0.022 A 
ATOM     14  C   UNL A   1     -30.711  -4.285  34.774  0.00  0.00    +0.031 C 
ATOM     15  C   UNL A   1     -29.266  -6.183  35.509  0.00  0.00    -0.005 A 
ATOM     16  C   UNL A   1     -28.682  -7.416  35.368  0.00  0.00    -0.004 A 
ATOM     17  C   UNL A   1     -29.036  -8.053  34.238  0.00  0.00    -0.014 A 
ATOM     18  C   UNL A   1     -28.454  -9.326  34.072  0.00  0.00    +0.067 C 
ATOM     19  C   UNL A   1     -27.384  -9.665  34.899  0.00  0.00    +0.124 C 
ATOM     20  O   UNL A   1     -31.197  -7.976  31.326  0.00  0.00    -0.287 OA
ENDROOT
BRANCH   5  21
ATOM     21  C   UNL A   1     -29.395 -12.260  29.383  0.00  0.00    +0.419 C 
ATOM     22  F   UNL A   1     -29.412 -13.433  29.343  0.00  0.00    -0.166 F 
ATOM     23  F   UNL A   1     -28.557 -11.718  28.452  0.00  0.00    -0.166 F 
ATOM     24  F   UNL A   1     -30.509 -11.890  28.608  0.00  0.00    -0.166 F 
ENDBRANCH   5  21
TORSDOF 1
ENDMDL
ENDMDL
