REMARK  Name = No_4887-gen_results/8p0m/2024-11-26-14-13-15/
REMARK  1 active torsions:
REMARK  status: ('A' for Active; 'I' for Inactive)
REMARK    1  A    between atoms: C_3  and  C_7
REMARK                            x       y       z     vdW  Elec       q    Type
REMARK                         _______ _______ _______ _____ _____    ______ ____
ROOT
ATOM      1  C   UNL A   1     -28.016  -0.814  28.878  0.00  0.00    +0.005 A 
ATOM      2  C   UNL A   1     -28.469  -0.785  29.829  0.00  0.00    +0.000 A 
ATOM      3  C   UNL A   1     -28.196   0.348  28.055  0.00  0.00    +0.058 A 
ATOM      4  C   UNL A   1     -29.019   1.350  28.378  0.00  0.00    +0.005 A 
ATOM      5  C   UNL A   1     -29.411   0.180  30.378  0.00  0.00    +0.000 A 
ATOM      6  C   UNL A   1     -29.606   1.250  29.619  0.00  0.00    +0.000 A 
ENDROOT
BRANCH   3   7
ATOM      7  C   UNL A   1     -27.460   0.380  26.709  0.00  0.00    +0.275 C 
ATOM      8  N   UNL A   1     -27.883   0.539  25.707  0.00  0.00    -0.232 NA
ATOM      9  O   UNL A   1     -26.084   0.169  26.781  0.00  0.00    -0.266 OA
ATOM     10  C   UNL A   1     -27.208   0.471  24.392  0.00  0.00    +0.155 C 
ENDBRANCH   3   7
TORSDOF 1
