MODEL 4888
MODEL 1
REMARK VINA RESULT:    -5.231      0.000      0.000
REMARK INTER + INTRA:          -5.709
REMARK INTER:                  -5.537
REMARK INTRA:                  -0.172
REMARK UNBOUND:                -0.172
REMARK  Name = No_4888-gen_results/8p0m/2024-11-26-14-13-15/
REMARK  1 active torsions:
REMARK  status: ('A' for Active; 'I' for Inactive)
REMARK    1  A    between atoms: C_3  and  C_7
REMARK                            x       y       z     vdW  Elec       q    Type
REMARK                         _______ _______ _______ _____ _____    ______ ____
ROOT
ATOM      1  C   UNL A   1     -26.362  -3.462  29.883  0.00  0.00    -0.000 A 
ATOM      2  C   UNL A   1     -25.501  -2.644  29.656  0.00  0.00    -0.000 A 
ATOM      3  C   UNL A   1     -24.288  -2.950  29.041  0.00  0.00    -0.000 A 
ATOM      4  C   UNL A   1     -23.998  -4.330  28.699  0.00  0.00    -0.000 A 
ATOM      5  C   UNL A   1     -25.009  -5.242  28.996  0.00  0.00    -0.000 A 
ATOM      6  C   UNL A   1     -26.125  -4.866  29.590  0.00  0.00    -0.000 A 
ENDROOT
BRANCH   3   7
ATOM      7  C   UNL A   1     -23.248  -1.937  28.943  0.00  0.00    -0.005 C 
ATOM      8  C   UNL A   1     -23.612  -0.668  28.572  0.00  0.00    -0.026 C 
ATOM      9  C   UNL A   1     -22.664   0.362  28.544  0.00  0.00    +0.031 C 
ENDBRANCH   3   7
TORSDOF 1
ENDMDL
ENDMDL
