MODEL 4889
MODEL 1
REMARK VINA RESULT:    -6.233      0.000      0.000
REMARK INTER + INTRA:          -8.116
REMARK INTER:                  -7.690
REMARK INTRA:                  -0.426
REMARK UNBOUND:                -0.426
REMARK  Name = No_4889-gen_results/8p0m/2024-11-26-14-13-15/
REMARK  4 active torsions:
REMARK  status: ('A' for Active; 'I' for Inactive)
REMARK    1  A    between atoms: C_1  and  C_3
REMARK    2  A    between atoms: C_2  and  C_6
REMARK    3  A    between atoms: C_7  and  C_11
REMARK    4  A    between atoms: C_11  and  C_12
REMARK                            x       y       z     vdW  Elec       q    Type
REMARK                         _______ _______ _______ _____ _____    ______ ____
ROOT
ATOM      1  C   UNL A   1     -23.240  -1.573  28.969  0.00  0.00    -0.060 C 
ATOM      2  C   UNL A   1     -23.205  -0.586  28.602  0.00  0.00    -0.059 C 
ENDROOT
BRANCH   1   3
ATOM      3  C   UNL A   1     -24.046  -2.735  29.064  0.00  0.00    +0.042 A 
ATOM      4  C   UNL A   1     -23.951  -3.949  28.709  0.00  0.00    +0.008 A 
ATOM      5  C   UNL A   1     -24.961  -5.045  29.051  0.00  0.00    +0.001 A 
ATOM      6  C   UNL A   1     -26.109  -4.707  29.609  0.00  0.00    +0.000 A 
ATOM      7  C   UNL A   1     -26.348  -3.390  29.931  0.00  0.00    +0.001 A 
ATOM      8  C   UNL A   1     -25.470  -2.397  29.692  0.00  0.00    +0.008 A 
ENDBRANCH   1   3
BRANCH   2   9
ATOM      9  C   UNL A   1     -22.143   0.361  28.502  0.00  0.00    +0.048 C 
ATOM     10  C   UNL A   1     -22.303   1.561  27.832  0.00  0.00    +0.027 C 
BRANCH  10  11
ATOM     11  C   UNL A   1     -23.400   1.745  27.132  0.00  0.00    +0.277 C 
ATOM     12  O   UNL A   1     -23.128   1.931  25.741  0.00  0.00    -0.206 OA
BRANCH  11  13
ATOM     13  C   UNL A   1     -24.410   2.554  27.554  0.00  0.00    +0.399 C 
ATOM     14  O   UNL A   1     -24.308   3.624  27.809  0.00  0.00    -0.242 OA
ATOM     15  O   UNL A   1     -25.656   1.988  27.679  0.00  0.00    -0.242 OA
ENDBRANCH  11  13
ENDBRANCH  10  11
ENDBRANCH   2   9
TORSDOF 4
ENDMDL
ENDMDL
