REMARK  Name = No_4889-gen_results/8p0m/2024-11-26-14-13-15/
REMARK  4 active torsions:
REMARK  status: ('A' for Active; 'I' for Inactive)
REMARK    1  A    between atoms: C_1  and  C_3
REMARK    2  A    between atoms: C_2  and  C_6
REMARK    3  A    between atoms: C_7  and  C_11
REMARK    4  A    between atoms: C_11  and  C_12
REMARK                            x       y       z     vdW  Elec       q    Type
REMARK                         _______ _______ _______ _____ _____    ______ ____
ROOT
ATOM      1  C   UNL A   1     -28.016  -0.814  28.878  0.00  0.00    -0.060 C 
ATOM      2  C   UNL A   1     -28.469  -0.785  29.829  0.00  0.00    -0.059 C 
ENDROOT
BRANCH   1   3
ATOM      3  C   UNL A   1     -27.217  -0.083  27.964  0.00  0.00    +0.042 A 
ATOM      4  C   UNL A   1     -26.509  -0.350  26.946  0.00  0.00    +0.008 A 
ATOM      5  C   UNL A   1     -25.822   0.687  26.058  0.00  0.00    +0.001 A 
ATOM      6  C   UNL A   1     -25.803   1.950  26.444  0.00  0.00    +0.000 A 
ATOM      7  C   UNL A   1     -26.454   2.318  27.600  0.00  0.00    +0.001 A 
ATOM      8  C   UNL A   1     -27.112   1.448  28.390  0.00  0.00    +0.008 A 
ENDBRANCH   1   3
BRANCH   2   9
ATOM      9  C   UNL A   1     -29.121  -1.786  30.610  0.00  0.00    +0.048 C 
ATOM     10  C   UNL A   1     -30.499  -1.832  30.724  0.00  0.00    +0.027 C 
BRANCH  10  11
ATOM     11  C   UNL A   1     -31.200  -0.830  30.242  0.00  0.00    +0.277 C 
ATOM     12  O   UNL A   1     -30.707   0.436  30.687  0.00  0.00    -0.206 OA
BRANCH  11  13
ATOM     13  C   UNL A   1     -32.560  -0.845  30.194  0.00  0.00    +0.399 C 
ATOM     14  O   UNL A   1     -33.166  -1.118  29.312  0.00  0.00    -0.242 OA
ATOM     15  O   UNL A   1     -33.231  -0.483  31.338  0.00  0.00    -0.242 OA
ENDBRANCH  11  13
ENDBRANCH  10  11
ENDBRANCH   2   9
TORSDOF 4
