MODEL 488
MODEL 1
REMARK VINA RESULT:    -6.875      0.000      0.000
REMARK INTER + INTRA:          -9.968
REMARK INTER:                  -9.287
REMARK INTRA:                  -0.682
REMARK UNBOUND:                -0.682
REMARK  Name = No_488-gen_results/8p0m/2024-11-26-14-13-15/
REMARK  6 active torsions:
REMARK  status: ('A' for Active; 'I' for Inactive)
REMARK    1  A    between atoms: C_1  and  C_2
REMARK    2  A    between atoms: C_1  and  N_8
REMARK    3  A    between atoms: N_8  and  C_9
REMARK    4  A    between atoms: N_8  and  C_10
REMARK    5  A    between atoms: C_10  and  C_12
REMARK    6  A    between atoms: C_12  and  C_13
REMARK                            x       y       z     vdW  Elec       q    Type
REMARK                         _______ _______ _______ _____ _____    ______ ____
ROOT
ATOM      1  N   UNL A   1     -23.795   0.714  28.635  0.00  0.00    -0.302 N 
ENDROOT
BRANCH   1   2
ATOM      2  C   UNL A   1     -23.003   1.286  27.720  0.00  0.00    +0.057 C 
ATOM      3  C   UNL A   1     -23.532   1.667  26.555  0.00  0.00    -0.010 C 
ATOM      4  C   UNL A   1     -22.686   2.233  25.566  0.00  0.00    +0.032 C 
ENDBRANCH   1   2
BRANCH   1   5
ATOM      5  C   UNL A   1     -24.047   1.313  29.836  0.00  0.00    +0.118 C 
BRANCH   5   6
ATOM      6  C   UNL A   1     -24.042   0.578  30.795  0.00  0.00    -0.002 A 
ATOM      7  C   UNL A   1     -22.891  -0.107  31.170  0.00  0.00    -0.000 A 
ATOM      8  C   UNL A   1     -22.761  -1.046  32.320  0.00  0.00    +0.029 A 
ATOM      9  C   UNL A   1     -23.883  -1.118  33.197  0.00  0.00    +0.140 A 
ATOM     10  C   UNL A   1     -25.020  -0.369  32.832  0.00  0.00    +0.029 A 
ATOM     11  C   UNL A   1     -25.094   0.420  31.750  0.00  0.00    -0.000 A 
ATOM     12  F   UNL A   1     -23.796  -1.920  34.190  0.00  0.00    -0.204 F 
ENDBRANCH   5   6
ENDBRANCH   1   5
BRANCH   1  13
ATOM     13  C   UNL A   1     -24.556  -0.431  28.310  0.00  0.00    +0.096 C 
BRANCH  13  14
ATOM     14  C   UNL A   1     -23.954  -1.670  28.585  0.00  0.00    +0.048 C 
BRANCH  14  15
ATOM     15  C   UNL A   1     -24.538  -2.656  28.833  0.00  0.00    -0.021 A 
ATOM     16  C   UNL A   1     -24.094  -4.023  28.593  0.00  0.00    -0.004 A 
ATOM     17  C   UNL A   1     -24.841  -5.134  28.983  0.00  0.00    -0.000 A 
ATOM     18  C   UNL A   1     -26.041  -4.932  29.660  0.00  0.00    -0.000 A 
ATOM     19  C   UNL A   1     -26.580  -3.752  29.918  0.00  0.00    -0.000 A 
ATOM     20  C   UNL A   1     -25.869  -2.606  29.500  0.00  0.00    -0.004 A 
ENDBRANCH  14  15
ENDBRANCH  13  14
ENDBRANCH   1  13
TORSDOF 6
ENDMDL
ENDMDL
