REMARK  Name = No_489-gen_results/8p0m/2024-11-26-14-13-15/
REMARK  1 active torsions:
REMARK  status: ('A' for Active; 'I' for Inactive)
REMARK    1  A    between atoms: C_3  and  C_8
REMARK                            x       y       z     vdW  Elec       q    Type
REMARK                         _______ _______ _______ _____ _____    ______ ____
ROOT
ATOM      1  O   UNL A   1     -28.123  -1.335  28.487  0.00  0.00    -0.271 OA
ATOM      2  C   UNL A   1     -27.481  -0.404  28.709  0.00  0.00    +0.267 C 
ATOM      3  C   UNL A   1     -27.190   0.246  29.527  0.00  0.00    +0.228 C 
ATOM      4  N   UNL A   1     -26.602  -0.158  27.552  0.00  0.00    -0.178 NA
ATOM      5  C   UNL A   1     -25.642   0.903  27.582  0.00  0.00    +0.070 A 
ATOM      6  C   UNL A   1     -24.641   1.099  26.616  0.00  0.00    +0.016 A 
ATOM      7  C   UNL A   1     -25.474   1.619  28.825  0.00  0.00    -0.005 A 
ATOM      8  C   UNL A   1     -26.254   1.334  29.854  0.00  0.00    +0.060 C 
ATOM      9  C   UNL A   1     -23.585   2.007  26.789  0.00  0.00    +0.001 A 
ATOM     10  C   UNL A   1     -23.468   2.693  28.020  0.00  0.00    -0.000 A 
ATOM     11  C   UNL A   1     -24.330   2.506  28.945  0.00  0.00    -0.003 A 
ATOM     12 CL   UNL A   1     -28.072   0.723  29.632  0.00  0.00    -0.098 Cl
ENDROOT
BRANCH   3  13
ATOM     13  C   UNL A   1     -28.040  -0.054  30.867  0.00  0.00    +0.418 C 
ATOM     14  F   UNL A   1     -27.325  -0.587  31.736  0.00  0.00    -0.168 F 
ATOM     15  F   UNL A   1     -28.533   1.103  31.310  0.00  0.00    -0.168 F 
ATOM     16  F   UNL A   1     -29.074  -0.828  30.489  0.00  0.00    -0.168 F 
ENDBRANCH   3  13
TORSDOF 1
