MODEL 4890
MODEL 1
REMARK VINA RESULT:    -6.707      0.000      0.000
REMARK INTER + INTRA:          -8.560
REMARK INTER:                  -7.883
REMARK INTRA:                  -0.677
REMARK UNBOUND:                -0.677
REMARK  Name = No_4890-gen_results/8p0m/2024-11-26-14-13-15/
REMARK  3 active torsions:
REMARK  status: ('A' for Active; 'I' for Inactive)
REMARK    1  A    between atoms: C_3  and  C_4
REMARK    2  A    between atoms: C_4  and  C_8
REMARK    3  A    between atoms: C_4  and  C_14
REMARK                            x       y       z     vdW  Elec       q    Type
REMARK                         _______ _______ _______ _____ _____    ______ ____
ROOT
ATOM      1  C   UNL A   1     -23.571  -1.182  30.086  0.00  0.00    +0.064 C 
ENDROOT
BRANCH   1   4
ATOM      2  C   UNL A   1     -23.827  -3.499  28.947  0.00  0.00    -0.004 A 
ATOM      3  C   UNL A   1     -24.502  -4.301  28.844  0.00  0.00    -0.000 A 
ATOM      4  C   UNL A   1     -24.363  -2.377  29.717  0.00  0.00    -0.017 A 
ATOM      5  C   UNL A   1     -25.863  -4.565  29.292  0.00  0.00    -0.000 A 
ATOM      6  C   UNL A   1     -26.409  -3.522  30.012  0.00  0.00    -0.000 A 
ATOM      7  C   UNL A   1     -25.662  -2.437  30.284  0.00  0.00    -0.004 A 
ENDBRANCH   1   4
BRANCH   1   8
ATOM      8  C   UNL A   1     -22.933  -0.530  29.176  0.00  0.00    -0.017 A 
ATOM      9  C   UNL A   1     -23.674   0.426  28.349  0.00  0.00    -0.004 A 
ATOM     10  C   UNL A   1     -22.964   1.400  27.575  0.00  0.00    -0.000 A 
ATOM     11  C   UNL A   1     -21.583   1.380  27.532  0.00  0.00    -0.000 A 
ATOM     12  C   UNL A   1     -20.883   0.434  28.221  0.00  0.00    -0.000 A 
ATOM     13  C   UNL A   1     -21.520  -0.487  29.065  0.00  0.00    -0.004 A 
ENDBRANCH   1   8
BRANCH   1  14
ATOM     14  C   UNL A   1     -23.732  -0.713  31.431  0.00  0.00    +0.118 C 
ATOM     15  N   UNL A   1     -22.897  -1.207  32.294  0.00  0.00    -0.131 NA
ENDBRANCH   1  14
TORSDOF 3
ENDMDL
ENDMDL
