MODEL 4891
MODEL 1
REMARK VINA RESULT:    -6.661      0.000      0.000
REMARK INTER + INTRA:          -7.666
REMARK INTER:                  -7.440
REMARK INTRA:                  -0.226
REMARK UNBOUND:                -0.226
REMARK  Name = No_4891-gen_results/8p0m/2024-11-26-14-13-15/
REMARK  2 active torsions:
REMARK  status: ('A' for Active; 'I' for Inactive)
REMARK    1  A    between atoms: C_2  and  C_13
REMARK    2  A    between atoms: C_4  and  C_7
REMARK                            x       y       z     vdW  Elec       q    Type
REMARK                         _______ _______ _______ _____ _____    ______ ____
ROOT
ATOM      1  C   UNL A   1     -23.881   0.460  27.504  0.00  0.00    +0.076 C 
ATOM      2  C   UNL A   1     -22.937   0.635  27.938  0.00  0.00    +0.111 C 
ATOM      3  C   UNL A   1     -24.516  -0.832  27.809  0.00  0.00    +0.155 C 
ATOM      4  C   UNL A   1     -23.932  -1.721  28.757  0.00  0.00    +0.080 C 
ATOM      5  C   UNL A   1     -22.729  -1.329  29.288  0.00  0.00    +0.012 C 
ATOM      6  C   UNL A   1     -22.177  -0.143  28.953  0.00  0.00    +0.013 C 
ATOM      7  O   UNL A   1     -25.662  -1.176  27.220  0.00  0.00    -0.296 OA
ENDROOT
BRANCH   4   8
ATOM      8  C   UNL A   1     -24.549  -2.982  29.082  0.00  0.00    -0.015 A 
ATOM      9  C   UNL A   1     -24.204  -3.919  28.890  0.00  0.00    -0.004 A 
ATOM     10  C   UNL A   1     -24.962  -5.254  29.050  0.00  0.00    -0.000 A 
ATOM     11  C   UNL A   1     -26.216  -5.073  29.603  0.00  0.00    -0.000 A 
ATOM     12  C   UNL A   1     -25.857  -2.773  29.834  0.00  0.00    -0.004 A 
ATOM     13  C   UNL A   1     -26.667  -3.884  29.966  0.00  0.00    -0.000 A 
ENDBRANCH   4   8
BRANCH   2  14
ATOM     14  C   UNL A   1     -22.180   2.001  27.599  0.00  0.00    +0.365 C 
ATOM     15  O   UNL A   1     -22.885   2.899  27.604  0.00  0.00    -0.246 OA
ATOM     16  O   UNL A   1     -20.920   2.057  27.322  0.00  0.00    -0.246 OA
ENDBRANCH   2  14
TORSDOF 2
ENDMDL
ENDMDL
