REMARK  Name = No_4892-gen_results/8p0m/2024-11-26-14-13-15/
REMARK  4 active torsions:
REMARK  status: ('A' for Active; 'I' for Inactive)
REMARK    1  A    between atoms: C_3  and  N_7
REMARK    2  A    between atoms: C_6  and  C_16
REMARK    3  A    between atoms: C_9  and  C_10
REMARK    4  A    between atoms: C_10  and  C_19
REMARK                            x       y       z     vdW  Elec       q    Type
REMARK                         _______ _______ _______ _____ _____    ______ ____
ROOT
ATOM      1  N   UNL A   1     -24.627   0.369  28.754  0.00  0.00    -0.281 N 
ATOM      2  C   UNL A   1     -24.503   1.149  27.739  0.00  0.00    +0.158 C 
ATOM      3  C   UNL A   1     -23.231   1.789  27.510  0.00  0.00    +0.068 C 
ATOM      4 CL   UNL A   1     -25.820   1.675  26.909  0.00  0.00    -0.093 Cl
ATOM      5  C   UNL A   1     -22.103   1.303  28.301  0.00  0.00    +0.168 C 
ATOM      6  N   UNL A   1     -21.041   1.224  28.178  0.00  0.00    -0.114 NA
ATOM      7  N   UNL A   1     -22.503   0.429  29.378  0.00  0.00    -0.179 NA
ATOM      8  C   UNL A   1     -23.649  -0.074  29.569  0.00  0.00    +0.185 C 
ENDROOT
BRANCH   1  11
ATOM      9  C   UNL A   1     -28.016  -0.814  28.878  0.00  0.00    +0.008 A 
ATOM     10  C   UNL A   1     -27.064  -0.119  28.608  0.00  0.00    +0.015 A 
ATOM     11  C   UNL A   1     -25.765  -0.390  29.036  0.00  0.00    +0.050 A 
ATOM     12  C   UNL A   1     -25.530  -1.530  29.901  0.00  0.00    +0.015 A 
ATOM     13  C   UNL A   1     -26.689  -2.289  30.181  0.00  0.00    +0.008 A 
ATOM     14  C   UNL A   1     -27.873  -1.951  29.737  0.00  0.00    +0.080 A 
BRANCH  14  15
ATOM     15  C   UNL A   1     -29.052  -2.791  30.107  0.00  0.00    +0.388 C 
ATOM     16  O   UNL A   1     -30.096  -2.485  29.888  0.00  0.00    -0.241 OA
ATOM     17  O   UNL A   1     -28.700  -4.086  30.443  0.00  0.00    -0.241 OA
ENDBRANCH  14  15
ENDBRANCH   1  11
BRANCH   3  18
ATOM     18  C   UNL A   1     -22.941   2.724  26.558  0.00  0.00    +0.006 C 
BRANCH  18  19
ATOM     19  C   UNL A   1     -24.023   3.542  26.192  0.00  0.00    +0.000 C 
ATOM     20  C   UNL A   1     -24.967   3.897  27.045  0.00  0.00    +0.000 C 
ENDBRANCH  18  19
ENDBRANCH   3  18
TORSDOF 4
