MODEL 4892
MODEL 1
REMARK VINA RESULT:    -6.062      0.000      0.000
REMARK INTER + INTRA:          -8.184
REMARK INTER:                  -7.480
REMARK INTRA:                  -0.704
REMARK UNBOUND:                -0.704
REMARK  Name = No_4892-gen_results/8p0m/2024-11-26-14-13-15/
REMARK  4 active torsions:
REMARK  status: ('A' for Active; 'I' for Inactive)
REMARK    1  A    between atoms: C_3  and  N_7
REMARK    2  A    between atoms: C_6  and  C_16
REMARK    3  A    between atoms: C_9  and  C_10
REMARK    4  A    between atoms: C_10  and  C_19
REMARK                            x       y       z     vdW  Elec       q    Type
REMARK                         _______ _______ _______ _____ _____    ______ ____
ROOT
ATOM      1  N   UNL A   1     -26.291   1.100  26.346  0.00  0.00    -0.281 N 
ATOM      2  C   UNL A   1     -26.608   0.633  25.191  0.00  0.00    +0.158 C 
ATOM      3  C   UNL A   1     -27.753   1.187  24.511  0.00  0.00    +0.068 C 
ATOM      4 CL   UNL A   1     -25.952  -0.767  24.634  0.00  0.00    -0.093 Cl
ATOM      5  C   UNL A   1     -28.315   2.414  25.071  0.00  0.00    +0.168 C 
ATOM      6  N   UNL A   1     -28.839   3.271  24.700  0.00  0.00    -0.114 NA
ATOM      7  N   UNL A   1     -27.787   2.733  26.376  0.00  0.00    -0.179 NA
ATOM      8  C   UNL A   1     -26.804   2.185  26.958  0.00  0.00    +0.185 C 
ENDROOT
BRANCH   1  11
ATOM      9  C   UNL A   1     -22.950   0.981  27.660  0.00  0.00    +0.008 A 
ATOM     10  C   UNL A   1     -23.903   1.342  27.009  0.00  0.00    +0.015 A 
ATOM     11  C   UNL A   1     -25.154   0.728  27.067  0.00  0.00    +0.050 A 
ATOM     12  C   UNL A   1     -25.327  -0.445  27.903  0.00  0.00    +0.015 A 
ATOM     13  C   UNL A   1     -24.169  -0.813  28.625  0.00  0.00    +0.008 A 
ATOM     14  C   UNL A   1     -23.032  -0.176  28.500  0.00  0.00    +0.080 A 
BRANCH  14  15
ATOM     15  C   UNL A   1     -21.847  -0.651  29.277  0.00  0.00    +0.388 C 
ATOM     16  O   UNL A   1     -20.844  -0.777  28.818  0.00  0.00    -0.241 OA
ATOM     17  O   UNL A   1     -22.051  -0.604  30.644  0.00  0.00    -0.241 OA
ENDBRANCH  14  15
ENDBRANCH   1  11
BRANCH   3  18
ATOM     18  C   UNL A   1     -28.303   0.752  23.340  0.00  0.00    +0.006 C 
BRANCH  18  19
ATOM     19  C   UNL A   1     -29.368  -0.151  23.492  0.00  0.00    +0.000 C 
ATOM     20  C   UNL A   1     -29.211  -1.459  23.399  0.00  0.00    +0.000 C 
ENDBRANCH  18  19
ENDBRANCH   3  18
TORSDOF 4
ENDMDL
ENDMDL
