MODEL 4893
MODEL 1
REMARK VINA RESULT:    -7.226      0.000      0.000
REMARK INTER + INTRA:          -7.731
REMARK INTER:                  -7.648
REMARK INTRA:                  -0.083
REMARK UNBOUND:                -0.083
REMARK  Name = No_4893-gen_results/8p0m/2024-11-26-14-13-15/
REMARK  1 active torsions:
REMARK  status: ('A' for Active; 'I' for Inactive)
REMARK    1  A    between atoms: C_5  and  C_16
REMARK                            x       y       z     vdW  Elec       q    Type
REMARK                         _______ _______ _______ _____ _____    ______ ____
ROOT
ATOM      1  C   UNL A   1     -24.830  -2.576  29.411  0.00  0.00    +0.021 A 
ATOM      2  C   UNL A   1     -24.227  -1.652  28.917  0.00  0.00    +0.006 A 
ATOM      3  C   UNL A   1     -22.890  -1.397  29.154  0.00  0.00    +0.000 A 
ATOM      4  C   UNL A   1     -22.143  -0.261  28.648  0.00  0.00    +0.007 A 
ATOM      5  C   UNL A   1     -22.806   0.680  27.829  0.00  0.00    +0.080 A 
ATOM      6  C   UNL A   1     -24.204   0.433  27.586  0.00  0.00    +0.011 A 
ATOM      7  C   UNL A   1     -24.902  -0.631  28.106  0.00  0.00    +0.058 A 
ATOM      8  C   UNL A   1     -24.414  -3.908  28.898  0.00  0.00    +0.043 A 
ATOM      9  C   UNL A   1     -25.208  -5.006  29.331  0.00  0.00    +0.196 A 
ATOM     10  C   UNL A   1     -26.464  -4.791  29.853  0.00  0.00    +0.044 A 
ATOM     11  C   UNL A   1     -27.023  -3.547  30.012  0.00  0.00    +0.022 A 
ATOM     12  C   UNL A   1     -26.273  -2.454  29.673  0.00  0.00    +0.085 A 
ATOM     13  N   UNL A   1     -26.819  -1.202  29.656  0.00  0.00    -0.208 NA
ATOM     14  C   UNL A   1     -26.197  -0.214  28.828  0.00  0.00    +0.279 A 
ATOM     15  O   UNL A   1     -26.844   0.819  28.561  0.00  0.00    -0.265 OA
ATOM     16  O   UNL A   1     -24.718  -6.253  29.210  0.00  0.00    -0.287 OA
ENDROOT
BRANCH   5  17
ATOM     17  C   UNL A   1     -22.132   1.810  27.217  0.00  0.00    +0.388 C 
ATOM     18  O   UNL A   1     -20.953   1.993  27.497  0.00  0.00    -0.241 OA
ATOM     19  O   UNL A   1     -22.644   2.396  26.189  0.00  0.00    -0.241 OA
ENDBRANCH   5  17
TORSDOF 1
ENDMDL
ENDMDL
