REMARK  Name = No_4893-gen_results/8p0m/2024-11-26-14-13-15/
REMARK  1 active torsions:
REMARK  status: ('A' for Active; 'I' for Inactive)
REMARK    1  A    between atoms: C_5  and  C_16
REMARK                            x       y       z     vdW  Elec       q    Type
REMARK                         _______ _______ _______ _____ _____    ______ ____
ROOT
ATOM      1  C   UNL A   1     -28.016  -0.814  28.878  0.00  0.00    +0.021 A 
ATOM      2  C   UNL A   1     -27.064  -0.119  28.608  0.00  0.00    +0.006 A 
ATOM      3  C   UNL A   1     -27.001   0.691  27.491  0.00  0.00    +0.000 A 
ATOM      4  C   UNL A   1     -25.855   1.482  27.083  0.00  0.00    +0.007 A 
ATOM      5  C   UNL A   1     -24.690   1.453  27.881  0.00  0.00    +0.080 A 
ATOM      6  C   UNL A   1     -24.738   0.601  29.042  0.00  0.00    +0.011 A 
ATOM      7  C   UNL A   1     -25.823  -0.169  29.389  0.00  0.00    +0.058 A 
ATOM      8  C   UNL A   1     -29.225  -0.047  29.280  0.00  0.00    +0.043 A 
ATOM      9  C   UNL A   1     -30.313  -0.827  29.761  0.00  0.00    +0.196 A 
ATOM     10  C   UNL A   1     -30.107  -2.124  30.176  0.00  0.00    +0.044 A 
ATOM     11  C   UNL A   1     -28.887  -2.753  30.140  0.00  0.00    +0.022 A 
ATOM     12  C   UNL A   1     -27.822  -2.068  29.622  0.00  0.00    +0.085 A 
ATOM     13  N   UNL A   1     -26.554  -2.571  29.701  0.00  0.00    -0.208 NA
ATOM     14  C   UNL A   1     -25.464  -1.646  29.640  0.00  0.00    +0.279 A 
ATOM     15  O   UNL A   1     -24.341  -2.038  30.014  0.00  0.00    -0.265 OA
ATOM     16  O   UNL A   1     -31.538  -0.274  29.817  0.00  0.00    -0.287 OA
ENDROOT
BRANCH   5  17
ATOM     17  C   UNL A   1     -23.517   2.261  27.599  0.00  0.00    +0.388 C 
ATOM     18  O   UNL A   1     -22.659   2.346  28.470  0.00  0.00    -0.241 OA
ATOM     19  O   UNL A   1     -23.237   2.603  26.388  0.00  0.00    -0.241 OA
ENDBRANCH   5  17
TORSDOF 1
