REMARK  Name = No_4894-gen_results/8p0m/2024-11-26-14-13-15/
REMARK  6 active torsions:
REMARK  status: ('A' for Active; 'I' for Inactive)
REMARK    1  A    between atoms: C_1  and  C_2
REMARK    2  A    between atoms: C_1  and  N_8
REMARK    3  A    between atoms: C_5  and  C_9
REMARK    4  A    between atoms: N_8  and  C_11
REMARK    5  A    between atoms: C_11  and  C_12
REMARK    6  A    between atoms: C_24  and  C_25
REMARK                            x       y       z     vdW  Elec       q    Type
REMARK                         _______ _______ _______ _____ _____    ______ ____
ROOT
ATOM      1  C   UNL A   1     -27.763   1.212  30.795  0.00  0.00    -0.005 A 
ATOM      2  C   UNL A   1     -27.438   2.135  31.943  0.00  0.00    -0.003 A 
ATOM      3  C   UNL A   1     -26.774   3.411  31.774  0.00  0.00    -0.000 A 
ATOM      4  C   UNL A   1     -26.356   3.730  30.448  0.00  0.00    -0.000 A 
ATOM      5  C   UNL A   1     -26.671   2.885  29.395  0.00  0.00    -0.000 A 
ATOM      6  C   UNL A   1     -27.352   1.772  29.632  0.00  0.00    -0.001 A 
ATOM      7  C   UNL A   1     -28.555   2.207  29.239  0.00  0.00    +0.019 A 
ATOM      8  C   UNL A   1     -27.284   3.862  28.384  0.00  0.00    +0.002 A 
ATOM      9  C   UNL A   1     -28.989   3.238  29.133  0.00  0.00    +0.081 A 
ATOM     10  C   UNL A   1     -28.344   3.964  28.044  0.00  0.00    +0.019 A 
ATOM     11  C   UNL A   1     -29.622   1.202  28.748  0.00  0.00    +0.021 A 
ATOM     12  C   UNL A   1     -30.945   1.916  28.574  0.00  0.00    +0.081 A 
ATOM     13  N   UNL A   1     -30.471   3.320  29.017  0.00  0.00    -0.245 NA
ENDROOT
BRANCH  12  14
ATOM     14  C   UNL A   1     -31.831   1.316  28.270  0.00  0.00    +0.019 C 
ATOM     15  C   UNL A   1     -33.184   1.891  28.046  0.00  0.00    +0.002 C 
ENDBRANCH  12  14
BRANCH   1  16
ATOM     16  C   UNL A   1     -28.275   0.227  30.846  0.00  0.00    +0.115 C 
BRANCH  16  17
ATOM     17  N   UNL A   1     -28.625  -0.580  30.097  0.00  0.00    -0.208 NA
BRANCH  17  18
ATOM     18  C   UNL A   1     -28.016  -0.814  28.878  0.00  0.00    +0.115 C 
BRANCH  18  19
ATOM     19  C   UNL A   1     -27.064  -0.119  28.608  0.00  0.00    -0.009 A 
ATOM     20  C   UNL A   1     -25.765  -0.390  29.036  0.00  0.00    -0.004 A 
ATOM     21  C   UNL A   1     -24.552   0.406  28.765  0.00  0.00    -0.005 A 
ATOM     22  C   UNL A   1     -24.696   1.448  27.799  0.00  0.00    -0.022 A 
ATOM     23  C   UNL A   1     -25.976   1.725  27.308  0.00  0.00    -0.009 A 
ATOM     24  C   UNL A   1     -27.072   1.013  27.654  0.00  0.00    -0.025 A 
ATOM     25  C   UNL A   1     -27.340  -0.003  26.307  0.00  0.00    +0.031 C 
BRANCH  22  26
ATOM     26  C   UNL A   1     -23.494   2.168  27.476  0.00  0.00    +0.026 C 
ATOM     27  C   UNL A   1     -22.613   1.357  26.468  0.00  0.00    +0.005 C 
ENDBRANCH  22  26
ENDBRANCH  18  19
ENDBRANCH  17  18
ENDBRANCH  16  17
ENDBRANCH   1  16
TORSDOF 6
