MODEL 4894
MODEL 1
REMARK VINA RESULT:    -7.254      0.000      0.000
REMARK INTER + INTRA:         -11.243
REMARK INTER:                  -9.798
REMARK INTRA:                  -1.444
REMARK UNBOUND:                -1.444
REMARK  Name = No_4894-gen_results/8p0m/2024-11-26-14-13-15/
REMARK  6 active torsions:
REMARK  status: ('A' for Active; 'I' for Inactive)
REMARK    1  A    between atoms: C_1  and  C_2
REMARK    2  A    between atoms: C_1  and  N_8
REMARK    3  A    between atoms: C_5  and  C_9
REMARK    4  A    between atoms: N_8  and  C_11
REMARK    5  A    between atoms: C_11  and  C_12
REMARK    6  A    between atoms: C_24  and  C_25
REMARK                            x       y       z     vdW  Elec       q    Type
REMARK                         _______ _______ _______ _____ _____    ______ ____
ROOT
ATOM      1  C   UNL A   1     -23.867   1.445  27.546  0.00  0.00    -0.005 A 
ATOM      2  C   UNL A   1     -23.058   2.352  26.652  0.00  0.00    -0.003 A 
ATOM      3  C   UNL A   1     -23.044   2.238  25.208  0.00  0.00    -0.000 A 
ATOM      4  C   UNL A   1     -23.784   1.150  24.657  0.00  0.00    -0.000 A 
ATOM      5  C   UNL A   1     -24.537   0.329  25.483  0.00  0.00    -0.000 A 
ATOM      6  C   UNL A   1     -24.553   0.555  26.789  0.00  0.00    -0.001 A 
ATOM      7  C   UNL A   1     -25.734   1.183  26.851  0.00  0.00    +0.019 A 
ATOM      8  C   UNL A   1     -25.894   0.331  24.769  0.00  0.00    +0.002 A 
ATOM      9  C   UNL A   1     -26.344   1.724  26.078  0.00  0.00    +0.081 A 
ATOM     10  C   UNL A   1     -26.863   0.794  25.080  0.00  0.00    +0.019 A 
ATOM     11  C   UNL A   1     -26.549   1.177  28.164  0.00  0.00    +0.021 A 
ATOM     12  C   UNL A   1     -27.720   2.126  28.035  0.00  0.00    +0.081 A 
ATOM     13  N   UNL A   1     -27.428   2.604  26.593  0.00  0.00    -0.245 NA
ENDROOT
BRANCH  12  14
ATOM     14  C   UNL A   1     -28.380   2.273  28.919  0.00  0.00    +0.019 C 
ATOM     15  C   UNL A   1     -28.836   1.168  29.804  0.00  0.00    +0.002 C 
ENDBRANCH  12  14
BRANCH   1  16
ATOM     16  C   UNL A   1     -23.934   1.476  28.655  0.00  0.00    +0.115 C 
BRANCH  16  17
ATOM     17  N   UNL A   1     -23.197   1.457  29.544  0.00  0.00    -0.208 NA
BRANCH  17  18
ATOM     18  C   UNL A   1     -22.834   0.305  30.218  0.00  0.00    +0.115 C 
BRANCH  18  19
ATOM     19  C   UNL A   1     -23.534  -0.666  30.042  0.00  0.00    -0.009 A 
ATOM     20  C   UNL A   1     -23.156  -1.757  29.260  0.00  0.00    -0.004 A 
ATOM     21  C   UNL A   1     -23.947  -2.972  28.983  0.00  0.00    -0.005 A 
ATOM     22  C   UNL A   1     -25.136  -3.130  29.759  0.00  0.00    -0.022 A 
ATOM     23  C   UNL A   1     -25.528  -2.077  30.592  0.00  0.00    -0.009 A 
ATOM     24  C   UNL A   1     -24.805  -0.946  30.747  0.00  0.00    -0.025 A 
ATOM     25  C   UNL A   1     -24.029  -1.162  32.254  0.00  0.00    +0.031 C 
BRANCH  22  26
ATOM     26  C   UNL A   1     -25.860  -4.353  29.546  0.00  0.00    +0.026 C 
ATOM     27  C   UNL A   1     -24.917  -5.468  28.984  0.00  0.00    +0.005 C 
ENDBRANCH  22  26
ENDBRANCH  18  19
ENDBRANCH  17  18
ENDBRANCH  16  17
ENDBRANCH   1  16
TORSDOF 6
ENDMDL
ENDMDL
