MODEL 4895
MODEL 1
REMARK VINA RESULT:    -4.355      0.000      0.000
REMARK INTER + INTRA:          -4.355
REMARK INTER:                  -4.355
REMARK INTRA:                   0.000
REMARK UNBOUND:                 0.000
REMARK  Name = No_4895-gen_results/8p0m/2024-11-26-14-13-15/
REMARK  0 active torsions:
REMARK  status: ('A' for Active; 'I' for Inactive)
REMARK                            x       y       z     vdW  Elec       q    Type
REMARK                         _______ _______ _______ _____ _____    ______ ____
ROOT
ATOM      1  C   UNL A   1     -24.933  -5.410  29.013  0.00  0.00    +0.000 A 
ATOM      2  C   UNL A   1     -24.195  -4.745  28.661  0.00  0.00    +0.000 A 
ATOM      3  C   UNL A   1     -26.106  -4.733  29.581  0.00  0.00    +0.000 A 
ATOM      4  C   UNL A   1     -26.140  -3.417  29.795  0.00  0.00    +0.000 A 
ATOM      5  C   UNL A   1     -24.003  -3.322  28.795  0.00  0.00    +0.000 A 
ATOM      6  C   UNL A   1     -25.092  -2.715  29.347  0.00  0.00    +0.000 A 
ENDROOT
TORSDOF 0
ENDMDL
ENDMDL
