REMARK  Name = No_4896-gen_results/8p0m/2024-11-26-14-13-15/
REMARK  6 active torsions:
REMARK  status: ('A' for Active; 'I' for Inactive)
REMARK    1  A    between atoms: C_2  and  N_7
REMARK    2  A    between atoms: C_4  and  C_17
REMARK    3  A    between atoms: C_5  and  C_25
REMARK    4  A    between atoms: C_21  and  C_22
REMARK    5  A    between atoms: C_22  and  C_23
REMARK    6  A    between atoms: C_31  and  C_33
REMARK                            x       y       z     vdW  Elec       q    Type
REMARK                         _______ _______ _______ _____ _____    ______ ____
ROOT
ATOM      1  C   UNL A   1     -28.016  -0.814  28.878  0.00  0.00    +0.015 A 
ATOM      2  C   UNL A   1     -28.469  -0.785  29.829  0.00  0.00    +0.052 A 
ATOM      3  C   UNL A   1     -26.504  -0.778  28.877  0.00  0.00    +0.001 A 
ATOM      4  C   UNL A   1     -25.810  -0.853  30.103  0.00  0.00    -0.003 A 
ATOM      5  C   UNL A   1     -27.991  -0.892  31.226  0.00  0.00    +0.067 A 
ATOM      6  C   UNL A   1     -26.604  -0.868  31.265  0.00  0.00    +0.005 A 
ENDROOT
BRANCH   2   7
ATOM      7  N   UNL A   1     -29.954  -0.789  29.642  0.00  0.00    -0.303 N 
ATOM      8  C   UNL A   1     -30.679   0.269  30.037  0.00  0.00    +0.096 C 
ATOM      9  C   UNL A   1     -31.448   0.847  29.526  0.00  0.00    +0.048 C 
ATOM     10  C   UNL A   1     -31.918   0.475  28.156  0.00  0.00    -0.023 A 
ATOM     11  C   UNL A   1     -32.721   1.132  27.366  0.00  0.00    -0.004 A 
ATOM     12  C   UNL A   1     -33.014   0.708  26.063  0.00  0.00    -0.000 A 
ATOM     13  C   UNL A   1     -32.403  -0.533  25.600  0.00  0.00    -0.000 A 
ATOM     14  C   UNL A   1     -31.556  -1.223  26.419  0.00  0.00    -0.003 A 
ATOM     15  C   UNL A   1     -31.266  -0.751  27.649  0.00  0.00    -0.006 A 
ATOM     16  C   UNL A   1     -30.462  -1.447  28.581  0.00  0.00    +0.117 C 
ENDBRANCH   2   7
BRANCH   5  17
ATOM     17  C   UNL A   1     -28.792  -0.986  32.418  0.00  0.00    +0.250 C 
ATOM     18  N   UNL A   1     -29.856  -0.491  32.702  0.00  0.00    -0.276 N 
ATOM     19  C   UNL A   1     -29.801   0.676  33.446  0.00  0.00    +0.094 C 
ATOM     20  C   UNL A   1     -31.083  -1.178  32.590  0.00  0.00    +0.099 C 
ATOM     21  C   UNL A   1     -30.193   0.640  34.768  0.00  0.00    +0.022 C 
ATOM     22  C   UNL A   1     -31.653   0.511  34.876  0.00  0.00    +0.009 C 
ATOM     23  C   UNL A   1     -32.083  -0.660  34.016  0.00  0.00    +0.087 C 
ATOM     24  O   UNL A   1     -28.307  -1.920  33.249  0.00  0.00    -0.270 OA
BRANCH  23  25
ATOM     25  C   UNL A   1     -33.509  -0.506  33.443  0.00  0.00    +0.320 C 
ATOM     26  F   UNL A   1     -33.823  -1.244  32.695  0.00  0.00    -0.198 F 
ATOM     27  F   UNL A   1     -34.202  -0.690  34.618  0.00  0.00    -0.198 F 
ENDBRANCH  23  25
ENDBRANCH   5  17
BRANCH   4  28
ATOM     28  C   UNL A   1     -24.365  -0.867  30.148  0.00  0.00    -0.018 C 
ATOM     29  C   UNL A   1     -23.666  -1.355  30.751  0.00  0.00    -0.004 C 
ATOM     30  C   UNL A   1     -22.172  -1.182  30.788  0.00  0.00    -0.005 C 
ATOM     31  C   UNL A   1     -21.731  -0.434  29.709  0.00  0.00    -0.022 C 
ATOM     32  C   UNL A   1     -23.418  -0.057  29.083  0.00  0.00    +0.045 C 
BRANCH  32  33
ATOM     33  C   UNL A   1     -23.581   0.723  28.039  0.00  0.00    +0.021 C 
BRANCH  33  34
ATOM     34  C   UNL A   1     -22.661   1.784  27.901  0.00  0.00    +0.068 C 
ATOM     35 BR   UNL A   1     -22.978   2.907  26.413  0.00  0.00    -0.081 Br
ENDBRANCH  33  34
ENDBRANCH  32  33
ENDBRANCH   4  28
TORSDOF 6
