MODEL 4896
MODEL 1
REMARK VINA RESULT:    -7.609      0.000      0.000
REMARK INTER + INTRA:         -12.356
REMARK INTER:                 -10.277
REMARK INTRA:                  -2.079
REMARK UNBOUND:                -2.079
REMARK  Name = No_4896-gen_results/8p0m/2024-11-26-14-13-15/
REMARK  6 active torsions:
REMARK  status: ('A' for Active; 'I' for Inactive)
REMARK    1  A    between atoms: C_2  and  N_7
REMARK    2  A    between atoms: C_4  and  C_17
REMARK    3  A    between atoms: C_5  and  C_25
REMARK    4  A    between atoms: C_21  and  C_22
REMARK    5  A    between atoms: C_22  and  C_23
REMARK    6  A    between atoms: C_31  and  C_33
REMARK                            x       y       z     vdW  Elec       q    Type
REMARK                         _______ _______ _______ _____ _____    ______ ____
ROOT
ATOM      1  C   UNL A   1     -31.287  -9.352  10.232  0.00  0.00    +0.015 A 
ATOM      2  C   UNL A   1     -30.317  -9.306   9.824  0.00  0.00    +0.052 A 
ATOM      3  C   UNL A   1     -31.866  -8.029  10.681  0.00  0.00    +0.001 A 
ATOM      4  C   UNL A   1     -31.163  -6.837  10.405  0.00  0.00    -0.003 A 
ATOM      5  C   UNL A   1     -29.402  -8.221   9.403  0.00  0.00    +0.067 A 
ATOM      6  C   UNL A   1     -29.904  -6.988   9.794  0.00  0.00    +0.005 A 
ENDROOT
BRANCH   2   7
ATOM      7  N   UNL A   1     -29.889 -10.697   9.472  0.00  0.00    -0.303 N 
ATOM      8  C   UNL A   1     -29.041 -11.357  10.276  0.00  0.00    +0.096 C 
ATOM      9  C   UNL A   1     -29.078 -12.363  10.693  0.00  0.00    +0.048 C 
ATOM     10  C   UNL A   1     -30.188 -13.305  10.353  0.00  0.00    -0.023 A 
ATOM     11  C   UNL A   1     -30.447 -14.475  10.865  0.00  0.00    -0.004 A 
ATOM     12  C   UNL A   1     -31.578 -15.223  10.512  0.00  0.00    -0.000 A 
ATOM     13  C   UNL A   1     -32.477 -14.660   9.511  0.00  0.00    -0.000 A 
ATOM     14  C   UNL A   1     -32.217 -13.431   8.974  0.00  0.00    -0.003 A 
ATOM     15  C   UNL A   1     -31.141 -12.727   9.380  0.00  0.00    -0.006 A 
ATOM     16  C   UNL A   1     -30.763 -11.487   8.816  0.00  0.00    +0.117 C 
ENDBRANCH   2   7
BRANCH   5  17
ATOM     17  C   UNL A   1     -28.148  -8.356   8.709  0.00  0.00    +0.250 C 
ATOM     18  N   UNL A   1     -27.872  -8.252   7.538  0.00  0.00    -0.276 N 
ATOM     19  C   UNL A   1     -27.810  -9.437   6.824  0.00  0.00    +0.094 C 
ATOM     20  C   UNL A   1     -27.331  -7.079   6.973  0.00  0.00    +0.099 C 
ATOM     21  C   UNL A   1     -26.578  -9.901   6.412  0.00  0.00    +0.022 C 
ATOM     22  C   UNL A   1     -26.056  -9.082   5.309  0.00  0.00    +0.009 C 
ATOM     23  C   UNL A   1     -26.118  -7.629   5.736  0.00  0.00    +0.087 C 
ATOM     24  O   UNL A   1     -27.128  -8.449   9.575  0.00  0.00    -0.270 OA
BRANCH  23  25
ATOM     25  C   UNL A   1     -26.313  -6.653   4.555  0.00  0.00    +0.320 C 
ATOM     26  F   UNL A   1     -25.403  -6.277   4.071  0.00  0.00    -0.198 F 
ATOM     27  F   UNL A   1     -26.983  -7.512   3.713  0.00  0.00    -0.198 F 
ENDBRANCH  23  25
ENDBRANCH   5  17
BRANCH   4  28
ATOM     28  C   UNL A   1     -31.698  -5.547  10.775  0.00  0.00    -0.018 C 
ATOM     29  C   UNL A   1     -32.054  -5.142  11.670  0.00  0.00    -0.004 C 
ATOM     30  C   UNL A   1     -32.720  -3.813  11.902  0.00  0.00    -0.005 C 
ATOM     31  C   UNL A   1     -32.606  -2.998  10.788  0.00  0.00    -0.022 C 
ATOM     32  C   UNL A   1     -31.813  -4.282   9.738  0.00  0.00    +0.045 C 
BRANCH  32  33
ATOM     33  C   UNL A   1     -31.529  -4.031   8.481  0.00  0.00    +0.021 C 
BRANCH  33  34
ATOM     34  C   UNL A   1     -30.213  -3.599   8.211  0.00  0.00    +0.068 C 
ATOM     35 BR   UNL A   1     -29.955  -1.732   8.363  0.00  0.00    -0.081 Br
ENDBRANCH  33  34
ENDBRANCH  32  33
ENDBRANCH   4  28
TORSDOF 6
ENDMDL
ENDMDL
