REMARK  Name = No_4897-gen_results/8p0m/2024-11-26-14-13-15/
REMARK  1 active torsions:
REMARK  status: ('A' for Active; 'I' for Inactive)
REMARK    1  A    between atoms: C_4  and  C_5
REMARK                            x       y       z     vdW  Elec       q    Type
REMARK                         _______ _______ _______ _____ _____    ______ ____
ROOT
ATOM      1  C   UNL A   1     -28.016  -0.814  28.878  0.00  0.00    -0.000 A 
ATOM      2  C   UNL A   1     -27.064  -0.119  28.608  0.00  0.00    -0.000 A 
ATOM      3  C   UNL A   1     -25.765  -0.390  29.036  0.00  0.00    +0.004 A 
ATOM      4  C   UNL A   1     -25.530  -1.530  29.901  0.00  0.00    +0.071 A 
ATOM      5  C   UNL A   1     -27.927  -1.923  29.790  0.00  0.00    -0.000 A 
ATOM      6  C   UNL A   1     -26.691  -2.281  30.295  0.00  0.00    +0.004 A 
ENDROOT
BRANCH   4   7
ATOM      7  C   UNL A   1     -24.324  -1.908  30.432  0.00  0.00    +0.419 C 
ATOM      8  F   UNL A   1     -24.068  -1.470  31.610  0.00  0.00    -0.166 F 
ATOM      9  F   UNL A   1     -23.243  -1.366  29.643  0.00  0.00    -0.166 F 
ATOM     10  F   UNL A   1     -24.115  -3.220  30.311  0.00  0.00    -0.166 F 
ENDBRANCH   4   7
TORSDOF 1
