MODEL 4897
MODEL 1
REMARK VINA RESULT:    -5.177      0.000      0.000
REMARK INTER + INTRA:          -5.631
REMARK INTER:                  -5.480
REMARK INTRA:                  -0.152
REMARK UNBOUND:                -0.152
REMARK  Name = No_4897-gen_results/8p0m/2024-11-26-14-13-15/
REMARK  1 active torsions:
REMARK  status: ('A' for Active; 'I' for Inactive)
REMARK    1  A    between atoms: C_4  and  C_5
REMARK                            x       y       z     vdW  Elec       q    Type
REMARK                         _______ _______ _______ _____ _____    ______ ____
ROOT
ATOM      1  C   UNL A   1     -25.754  -4.897  29.475  0.00  0.00    -0.000 A 
ATOM      2  C   UNL A   1     -24.687  -4.996  28.916  0.00  0.00    -0.000 A 
ATOM      3  C   UNL A   1     -23.834  -3.917  28.686  0.00  0.00    +0.004 A 
ATOM      4  C   UNL A   1     -24.257  -2.587  29.080  0.00  0.00    +0.071 A 
ATOM      5  C   UNL A   1     -26.319  -3.626  29.840  0.00  0.00    -0.000 A 
ATOM      6  C   UNL A   1     -25.573  -2.478  29.647  0.00  0.00    +0.004 A 
ENDROOT
BRANCH   4   7
ATOM      7  C   UNL A   1     -23.553  -1.425  28.893  0.00  0.00    +0.419 C 
ATOM      8  F   UNL A   1     -22.275  -1.536  28.906  0.00  0.00    -0.166 F 
ATOM      9  F   UNL A   1     -23.809  -0.509  29.979  0.00  0.00    -0.166 F 
ATOM     10  F   UNL A   1     -24.001  -0.733  27.844  0.00  0.00    -0.166 F 
ENDBRANCH   4   7
TORSDOF 1
ENDMDL
ENDMDL
