MODEL 4898
MODEL 1
REMARK VINA RESULT:    -4.338      0.000      0.000
REMARK INTER + INTRA:          -4.338
REMARK INTER:                  -4.338
REMARK INTRA:                   0.000
REMARK UNBOUND:                 0.000
REMARK  Name = No_4898-gen_results/8p0m/2024-11-26-14-13-15/
REMARK  0 active torsions:
REMARK  status: ('A' for Active; 'I' for Inactive)
REMARK                            x       y       z     vdW  Elec       q    Type
REMARK                         _______ _______ _______ _____ _____    ______ ____
ROOT
ATOM      1  C   UNL A   1     -24.212  -4.955  28.624  0.00  0.00    +0.000 A 
ATOM      2  C   UNL A   1     -25.072  -5.328  29.106  0.00  0.00    +0.000 A 
ATOM      3  C   UNL A   1     -24.065  -3.499  28.735  0.00  0.00    +0.000 A 
ATOM      4  C   UNL A   1     -25.024  -2.718  29.235  0.00  0.00    +0.000 A 
ATOM      5  C   UNL A   1     -26.234  -4.695  29.682  0.00  0.00    +0.000 A 
ATOM      6  C   UNL A   1     -26.089  -3.341  29.753  0.00  0.00    +0.000 A 
ENDROOT
TORSDOF 0
ENDMDL
ENDMDL
