MODEL 4899
MODEL 1
REMARK VINA RESULT:    -5.377      0.000      0.000
REMARK INTER + INTRA:          -6.675
REMARK INTER:                  -6.634
REMARK INTRA:                  -0.041
REMARK UNBOUND:                -0.041
REMARK  Name = No_4899-gen_results/8p0m/2024-11-26-14-13-15/
REMARK  4 active torsions:
REMARK  status: ('A' for Active; 'I' for Inactive)
REMARK    1  A    between atoms: C_2  and  C_3
REMARK    2  A    between atoms: C_3  and  C_5
REMARK    3  A    between atoms: C_7  and  C_8
REMARK    4  A    between atoms: C_9  and  C_10
REMARK                            x       y       z     vdW  Elec       q    Type
REMARK                         _______ _______ _______ _____ _____    ______ ____
ROOT
ATOM      1  C   UNL A   1     -28.057 -11.904  31.648  0.00  0.00    -0.017 C 
ATOM      2  C   UNL A   1     -28.510 -11.702  30.634  0.00  0.00    -0.004 C 
ENDROOT
BRANCH   1   3
ATOM      3  C   UNL A   1     -28.098 -11.267  32.819  0.00  0.00    +0.102 C 
ATOM      4  C   UNL A   1     -29.028 -10.195  33.049  0.00  0.00    +0.014 C 
BRANCH   3   6
ATOM      5  O   UNL A   1     -26.761 -12.726  33.810  0.00  0.00    -0.271 OA
ATOM      6  C   UNL A   1     -27.218 -11.668  33.804  0.00  0.00    +0.264 C 
ATOM      7  N   UNL A   1     -26.808 -10.600  34.735  0.00  0.00    -0.087 NA
ENDBRANCH   3   6
ENDBRANCH   1   3
BRANCH   2   8
ATOM      8  C   UNL A   1     -29.294 -11.062  29.999  0.00  0.00    -0.000 C 
ATOM      9  C   UNL A   1     -29.898 -11.078  28.687  0.00  0.00    -0.000 C 
BRANCH   9  10
ATOM     10  C   UNL A   1     -29.523 -12.172  27.977  0.00  0.00    -0.000 C 
ATOM     11  C   UNL A   1     -28.995 -12.133  26.673  0.00  0.00    -0.000 C 
ENDBRANCH   9  10
ENDBRANCH   2   8
TORSDOF 4
ENDMDL
ENDMDL
