REMARK  Name = No_4899-gen_results/8p0m/2024-11-26-14-13-15/
REMARK  4 active torsions:
REMARK  status: ('A' for Active; 'I' for Inactive)
REMARK    1  A    between atoms: C_2  and  C_3
REMARK    2  A    between atoms: C_3  and  C_5
REMARK    3  A    between atoms: C_7  and  C_8
REMARK    4  A    between atoms: C_9  and  C_10
REMARK                            x       y       z     vdW  Elec       q    Type
REMARK                         _______ _______ _______ _____ _____    ______ ____
ROOT
ATOM      1  C   UNL A   1     -25.177  -0.439  28.395  0.00  0.00    -0.017 C 
ATOM      2  C   UNL A   1     -24.181   0.089  28.457  0.00  0.00    -0.004 C 
ENDROOT
BRANCH   1   3
ATOM      3  C   UNL A   1     -26.380  -0.087  27.939  0.00  0.00    +0.102 C 
ATOM      4  C   UNL A   1     -26.526   0.604  26.687  0.00  0.00    +0.014 C 
BRANCH   3   6
ATOM      5  O   UNL A   1     -28.123  -1.335  28.487  0.00  0.00    -0.271 OA
ATOM      6  C   UNL A   1     -27.481  -0.404  28.709  0.00  0.00    +0.264 C 
ATOM      7  N   UNL A   1     -27.666   0.447  29.899  0.00  0.00    -0.087 NA
ENDBRANCH   3   6
ENDBRANCH   1   3
BRANCH   2   8
ATOM      8  C   UNL A   1     -23.526   1.029  28.120  0.00  0.00    -0.000 C 
ATOM      9  C   UNL A   1     -22.156   1.481  28.197  0.00  0.00    -0.000 C 
BRANCH   9  10
ATOM     10  C   UNL A   1     -21.351   0.544  28.759  0.00  0.00    -0.000 C 
ATOM     11  C   UNL A   1     -21.789  -0.713  29.216  0.00  0.00    -0.000 C 
ENDBRANCH   9  10
ENDBRANCH   2   8
TORSDOF 4
