MODEL 489
MODEL 1
REMARK VINA RESULT:    -6.878      0.000      0.000
REMARK INTER + INTRA:          -5.418
REMARK INTER:                  -6.878
REMARK INTRA:                   1.460
REMARK UNBOUND:                 1.460
REMARK  Name = No_489-gen_results/8p0m/2024-11-26-14-13-15/
REMARK  1 active torsions:
REMARK  status: ('A' for Active; 'I' for Inactive)
REMARK    1  A    between atoms: C_3  and  C_8
REMARK                            x       y       z     vdW  Elec       q    Type
REMARK                         _______ _______ _______ _____ _____    ______ ____
ROOT
ATOM      1  O   UNL A   1     -22.496  -0.842  30.988  0.00  0.00    -0.271 OA
ATOM      2  C   UNL A   1     -22.967  -0.748  29.941  0.00  0.00    +0.267 C 
ATOM      3  C   UNL A   1     -23.827  -1.078  29.368  0.00  0.00    +0.228 C 
ATOM      4  N   UNL A   1     -22.296   0.353  29.226  0.00  0.00    -0.178 NA
ATOM      5  C   UNL A   1     -22.729   0.739  27.918  0.00  0.00    +0.070 A 
ATOM      6  C   UNL A   1     -22.284   1.885  27.238  0.00  0.00    +0.016 A 
ATOM      7  C   UNL A   1     -23.920   0.113  27.394  0.00  0.00    -0.005 A 
ATOM      8  C   UNL A   1     -24.517  -0.840  28.090  0.00  0.00    +0.060 C 
ATOM      9  C   UNL A   1     -22.888   2.353  26.060  0.00  0.00    +0.001 A 
ATOM     10  C   UNL A   1     -24.046   1.700  25.580  0.00  0.00    -0.000 A 
ATOM     11  C   UNL A   1     -24.514   0.683  26.197  0.00  0.00    -0.003 A 
ATOM     12 CL   UNL A   1     -23.541  -2.037  29.249  0.00  0.00    -0.098 Cl
ENDROOT
BRANCH   3  13
ATOM     13  C   UNL A   1     -24.675  -2.207  30.152  0.00  0.00    +0.418 C 
ATOM     14  F   UNL A   1     -24.855  -1.882  31.340  0.00  0.00    -0.168 F 
ATOM     15  F   UNL A   1     -25.842  -2.355  29.524  0.00  0.00    -0.168 F 
ATOM     16  F   UNL A   1     -23.984  -3.354  30.018  0.00  0.00    -0.168 F 
ENDBRANCH   3  13
TORSDOF 1
ENDMDL
ENDMDL
