MODEL 48
MODEL 1
REMARK VINA RESULT:    -5.443      0.000      0.000
REMARK INTER + INTRA:          -5.443
REMARK INTER:                  -5.443
REMARK INTRA:                   0.000
REMARK UNBOUND:                 0.000
REMARK  Name = No_48-gen_results/8p0m/2024-11-26-14-13-15/
REMARK  0 active torsions:
REMARK  status: ('A' for Active; 'I' for Inactive)
REMARK                            x       y       z     vdW  Elec       q    Type
REMARK                         _______ _______ _______ _____ _____    ______ ____
ROOT
ATOM      1  C   UNL A   1     -26.471  -3.876  29.924  0.00  0.00    +0.000 A 
ATOM      2  C   UNL A   1     -26.187  -4.840  29.606  0.00  0.00    +0.000 A 
ATOM      3  C   UNL A   1     -25.555  -2.820  29.723  0.00  0.00    +0.000 A 
ATOM      4  C   UNL A   1     -24.319  -3.025  29.142  0.00  0.00    +0.000 A 
ATOM      5  C   UNL A   1     -24.031  -4.321  28.746  0.00  0.00    +0.000 A 
ATOM      6  C   UNL A   1     -24.970  -5.314  28.930  0.00  0.00    +0.000 A 
ATOM      7  C   UNL A   1     -25.839  -1.399  30.107  0.00  0.00    +0.000 A 
ATOM      8  C   UNL A   1     -24.784  -0.473  30.035  0.00  0.00    +0.000 A 
ATOM      9  C   UNL A   1     -23.605  -0.734  29.368  0.00  0.00    +0.000 A 
ATOM     10  C   UNL A   1     -23.312  -2.046  28.999  0.00  0.00    +0.000 A 
ENDROOT
TORSDOF 0
ENDMDL
ENDMDL
