REMARK  Name = No_49-gen_results/8p0m/2024-11-26-14-13-15/
REMARK  5 active torsions:
REMARK  status: ('A' for Active; 'I' for Inactive)
REMARK    1  A    between atoms: C_5  and  C_11
REMARK    2  A    between atoms: C_17  and  C_18
REMARK    3  A    between atoms: C_26  and  C_28
REMARK    4  A    between atoms: C_28  and  C_29
REMARK    5  A    between atoms: C_28  and  C_34
REMARK                            x       y       z     vdW  Elec       q    Type
REMARK                         _______ _______ _______ _____ _____    ______ ____
ROOT
ATOM      1  C   UNL A   1     -26.930   2.457  31.247  0.00  0.00    -0.017 A 
ATOM      2  C   UNL A   1     -25.880   2.338  32.141  0.00  0.00    -0.004 A 
ATOM      3  C   UNL A   1     -27.662   3.611  31.068  0.00  0.00    -0.004 A 
ATOM      4  C   UNL A   1     -28.577   3.925  30.342  0.00  0.00    -0.000 A 
ATOM      5  C   UNL A   1     -29.273   5.084  30.282  0.00  0.00    -0.000 A 
ATOM      6  C   UNL A   1     -28.821   6.088  31.100  0.00  0.00    -0.000 A 
ATOM      7  C   UNL A   1     -27.718   5.969  31.899  0.00  0.00    -0.000 A 
ATOM      8  C   UNL A   1     -27.093   4.736  31.957  0.00  0.00    -0.004 A 
ATOM      9  C   UNL A   1     -25.962   4.526  32.795  0.00  0.00    -0.015 A 
ATOM     10  C   UNL A   1     -25.346   3.328  32.939  0.00  0.00    -0.004 A 
ENDROOT
BRANCH   1  24
ATOM     11  C   UNL A   1     -28.016  -0.814  28.878  0.00  0.00    +0.099 C 
ATOM     12  C   UNL A   1     -27.064  -0.119  28.608  0.00  0.00    -0.010 A 
ATOM     13  C   UNL A   1     -26.929   1.171  29.008  0.00  0.00    -0.020 A 
ATOM     14  C   UNL A   1     -25.770   2.034  28.688  0.00  0.00    +0.000 A 
ATOM     15  C   UNL A   1     -24.714   1.443  27.919  0.00  0.00    +0.056 A 
ATOM     16  C   UNL A   1     -24.859   0.078  27.584  0.00  0.00    +0.004 A 
ATOM     17  C   UNL A   1     -25.965  -0.661  27.916  0.00  0.00    -0.003 A 
ATOM     18  N   UNL A   1     -28.700  -0.644  30.077  0.00  0.00    -0.270 NA
ATOM     19  C   UNL A   1     -29.803  -1.365  30.506  0.00  0.00    +0.072 C 
ATOM     20  C   UNL A   1     -30.377  -1.047  31.741  0.00  0.00    +0.017 C 
ATOM     21  C   UNL A   1     -29.986  -0.300  32.292  0.00  0.00    +0.003 C 
ATOM     22  C   UNL A   1     -28.842   0.581  32.155  0.00  0.00    +0.017 C 
ATOM     23  C   UNL A   1     -28.198   0.341  30.954  0.00  0.00    +0.066 C 
ATOM     24  C   UNL A   1     -27.250   1.259  30.407  0.00  0.00    +0.059 C 
BRANCH  15  25
ATOM     25  C   UNL A   1     -23.547   2.176  27.560  0.00  0.00    +0.284 C 
ATOM     26  N   UNL A   1     -22.415   1.693  27.226  0.00  0.00    -0.084 NA
ATOM     27  O   UNL A   1     -23.785   3.366  27.049  0.00  0.00    -0.267 OA
ENDBRANCH  15  25
ENDBRANCH   1  24
BRANCH   9  28
ATOM     28  C   UNL A   1     -25.421   5.705  33.607  0.00  0.00    +0.093 C 
BRANCH  28  29
ATOM     29  C   UNL A   1     -24.572   6.540  32.970  0.00  0.00    +0.054 C 
ATOM     30  C   UNL A   1     -24.042   6.500  31.982  0.00  0.00    +0.067 C 
ATOM     31  N   UNL A   1     -23.222   7.563  31.601  0.00  0.00    -0.274 NA
ATOM     32  C   UNL A   1     -24.114   7.790  33.750  0.00  0.00    +0.033 C 
ATOM     33  C   UNL A   1     -23.197   8.286  32.801  0.00  0.00    +0.126 C 
ENDBRANCH  28  29
BRANCH  28  34
ATOM     34  C   UNL A   1     -25.908   5.720  35.038  0.00  0.00    +0.212 C 
ATOM     35  O   UNL A   1     -25.244   5.315  35.955  0.00  0.00    -0.288 OA
ENDBRANCH  28  34
ENDBRANCH   9  28
TORSDOF 5
