REMARK  Name = No_490-gen_results/8p0m/2024-11-26-14-13-15/
REMARK  1 active torsions:
REMARK  status: ('A' for Active; 'I' for Inactive)
REMARK    1  A    between atoms: C_7  and  C_17
REMARK                            x       y       z     vdW  Elec       q    Type
REMARK                         _______ _______ _______ _____ _____    ______ ____
ROOT
ATOM      1  C   UNL A   1     -28.016  -0.814  28.878  0.00  0.00    -0.000 A 
ATOM      2  C   UNL A   1     -27.064  -0.119  28.608  0.00  0.00    -0.000 A 
ATOM      3  C   UNL A   1     -25.792  -0.430  29.076  0.00  0.00    -0.004 A 
ATOM      4  C   UNL A   1     -25.576  -1.565  29.936  0.00  0.00    -0.000 A 
ATOM      5  C   UNL A   1     -26.735  -2.300  30.217  0.00  0.00    -0.000 A 
ATOM      6  C   UNL A   1     -27.918  -1.954  29.763  0.00  0.00    -0.000 A 
ATOM      7  C   UNL A   1     -27.324   1.085  27.819  0.00  0.00    +0.000 A 
ATOM      8  C   UNL A   1     -26.267   1.909  27.570  0.00  0.00    +0.004 A 
ATOM      9  C   UNL A   1     -24.887   1.548  28.039  0.00  0.00    +0.051 A 
ATOM     10  C   UNL A   1     -24.663   0.445  28.804  0.00  0.00    -0.016 A 
ATOM     11  C   UNL A   1     -23.295   0.164  29.250  0.00  0.00    +0.044 C 
ATOM     12  C   UNL A   1     -22.994  -0.027  30.498  0.00  0.00    +0.006 C 
ATOM     13  C   UNL A   1     -22.193   1.028  28.625  0.00  0.00    +0.120 C 
ATOM     14  N   UNL A   1     -22.349   1.860  27.701  0.00  0.00    -0.201 NA
ATOM     15  C   UNL A   1     -23.707   2.182  27.244  0.00  0.00    +0.265 C 
ATOM     16  O   UNL A   1     -23.834   3.056  26.385  0.00  0.00    -0.268 OA
ENDROOT
BRANCH   7  17
ATOM     17  C   UNL A   1     -28.582   1.466  27.342  0.00  0.00    +0.000 A 
ATOM     18  C   UNL A   1     -29.425   2.188  28.122  0.00  0.00    +0.000 A 
ATOM     19  C   UNL A   1     -30.718   2.349  27.739  0.00  0.00    +0.000 A 
ATOM     20  C   UNL A   1     -29.006   0.978  26.124  0.00  0.00    +0.000 A 
ATOM     21  C   UNL A   1     -30.280   1.207  25.657  0.00  0.00    +0.000 A 
ATOM     22  C   UNL A   1     -31.142   1.968  26.460  0.00  0.00    +0.000 A 
ENDBRANCH   7  17
TORSDOF 1
