MODEL 4900
MODEL 1
REMARK VINA RESULT:    -4.280      0.000      0.000
REMARK INTER + INTRA:          -4.280
REMARK INTER:                  -4.280
REMARK INTRA:                   0.000
REMARK UNBOUND:                 0.000
REMARK  Name = No_4900-gen_results/8p0m/2024-11-26-14-13-15/
REMARK  0 active torsions:
REMARK  status: ('A' for Active; 'I' for Inactive)
REMARK                            x       y       z     vdW  Elec       q    Type
REMARK                         _______ _______ _______ _____ _____    ______ ____
ROOT
ATOM      1  C   UNL A   1     -26.068  -4.808  29.676  0.00  0.00    +0.000 A 
ATOM      2  C   UNL A   1     -26.178  -3.606  29.736  0.00  0.00    +0.000 A 
ATOM      3  C   UNL A   1     -25.196  -2.727  29.324  0.00  0.00    +0.000 A 
ATOM      4  C   UNL A   1     -24.006  -3.271  28.763  0.00  0.00    +0.000 A 
ATOM      5  C   UNL A   1     -24.002  -4.609  28.561  0.00  0.00    +0.000 A 
ATOM      6  C   UNL A   1     -25.007  -5.370  28.951  0.00  0.00    +0.000 A 
ENDROOT
TORSDOF 0
ENDMDL
ENDMDL
