MODEL 4901
MODEL 1
REMARK VINA RESULT:    -5.357      0.000      0.000
REMARK INTER + INTRA:          -7.227
REMARK INTER:                  -6.610
REMARK INTRA:                  -0.617
REMARK UNBOUND:                -0.617
REMARK  Name = No_4901-gen_results/8p0m/2024-11-26-14-13-15/
REMARK  4 active torsions:
REMARK  status: ('A' for Active; 'I' for Inactive)
REMARK    1  A    between atoms: C_3  and  O_7
REMARK    2  A    between atoms: C_6  and  N_10
REMARK    3  A    between atoms: O_7  and  C_8
REMARK    4  A    between atoms: C_9  and  C_16
REMARK                            x       y       z     vdW  Elec       q    Type
REMARK                         _______ _______ _______ _____ _____    ______ ____
ROOT
ATOM      1  C   UNL A   1      -7.720   1.463   8.999  0.00  0.00    +0.018 A 
ATOM      2  C   UNL A   1      -6.980   0.638   8.515  0.00  0.00    +0.039 A 
ATOM      3  C   UNL A   1      -6.617  -0.544   9.158  0.00  0.00    +0.145 A 
ATOM      4  C   UNL A   1      -7.094  -0.791  10.505  0.00  0.00    +0.039 A 
ATOM      5  C   UNL A   1      -7.927   0.195  11.032  0.00  0.00    +0.018 A 
ATOM      6  C   UNL A   1      -8.211   1.292  10.357  0.00  0.00    +0.048 A 
ENDROOT
BRANCH   6   7
ATOM      7  N   UNL A   1      -9.026   2.242  10.983  0.00  0.00    -0.307 N 
ATOM      8  C   UNL A   1      -9.159   3.473  10.560  0.00  0.00    +0.091 C 
ATOM      9  C   UNL A   1     -10.097   4.307  11.285  0.00  0.00    +0.021 C 
ATOM     10  C   UNL A   1      -9.724   1.948  12.184  0.00  0.00    +0.091 C 
ATOM     11  C   UNL A   1     -10.573   2.705  12.893  0.00  0.00    +0.021 C 
ATOM     12  C   UNL A   1     -10.677   3.973  12.438  0.00  0.00    +0.004 C 
ENDBRANCH   6   7
BRANCH   3  13
ATOM     13  O   UNL A   1      -5.766  -1.507   8.668  0.00  0.00    -0.450 OA
BRANCH  13  14
ATOM     14  C   UNL A   1      -5.140  -1.477   7.495  0.00  0.00    +0.179 C 
ATOM     15  C   UNL A   1      -3.807  -1.546   7.460  0.00  0.00    +0.041 C 
BRANCH  15  16
ATOM     16  C   UNL A   1      -3.160  -1.631   8.757  0.00  0.00    +0.003 C 
ATOM     17  C   UNL A   1      -2.405  -2.712   8.925  0.00  0.00    +0.000 C 
ENDBRANCH  15  16
ENDBRANCH  13  14
ENDBRANCH   3  13
TORSDOF 4
ENDMDL
ENDMDL
