REMARK  Name = No_4901-gen_results/8p0m/2024-11-26-14-13-15/
REMARK  4 active torsions:
REMARK  status: ('A' for Active; 'I' for Inactive)
REMARK    1  A    between atoms: C_3  and  O_7
REMARK    2  A    between atoms: C_6  and  N_10
REMARK    3  A    between atoms: O_7  and  C_8
REMARK    4  A    between atoms: C_9  and  C_16
REMARK                            x       y       z     vdW  Elec       q    Type
REMARK                         _______ _______ _______ _____ _____    ______ ____
ROOT
ATOM      1  C   UNL A   1     -28.016  -0.814  28.878  0.00  0.00    +0.018 A 
ATOM      2  C   UNL A   1     -27.064  -0.119  28.608  0.00  0.00    +0.039 A 
ATOM      3  C   UNL A   1     -25.765  -0.390  29.036  0.00  0.00    +0.145 A 
ATOM      4  C   UNL A   1     -25.530  -1.530  29.901  0.00  0.00    +0.039 A 
ATOM      5  C   UNL A   1     -26.658  -2.292  30.203  0.00  0.00    +0.018 A 
ATOM      6  C   UNL A   1     -27.855  -1.956  29.763  0.00  0.00    +0.048 A 
ENDROOT
BRANCH   6   7
ATOM      7  N   UNL A   1     -28.933  -2.761  30.149  0.00  0.00    -0.307 N 
ATOM      8  C   UNL A   1     -30.109  -2.289  30.473  0.00  0.00    +0.091 C 
ATOM      9  C   UNL A   1     -31.135  -3.266  30.781  0.00  0.00    +0.021 C 
ATOM     10  C   UNL A   1     -28.799  -4.168  30.285  0.00  0.00    +0.091 C 
ATOM     11  C   UNL A   1     -29.718  -5.093  30.596  0.00  0.00    +0.021 C 
ATOM     12  C   UNL A   1     -30.917  -4.572  30.939  0.00  0.00    +0.004 C 
ENDBRANCH   6   7
BRANCH   3  13
ATOM     13  O   UNL A   1     -24.650   0.373  28.780  0.00  0.00    -0.450 OA
BRANCH  13  14
ATOM     14  C   UNL A   1     -23.398   0.067  29.108  0.00  0.00    +0.179 C 
ATOM     15  C   UNL A   1     -22.436   0.979  28.949  0.00  0.00    +0.041 C 
BRANCH  15  16
ATOM     16  C   UNL A   1     -22.875   2.248  28.397  0.00  0.00    +0.003 C 
ATOM     17  C   UNL A   1     -23.749   2.142  27.401  0.00  0.00    +0.000 C 
ENDBRANCH  15  16
ENDBRANCH  13  14
ENDBRANCH   3  13
TORSDOF 4
