REMARK  Name = No_4902-gen_results/8p0m/2024-11-26-14-13-15/
REMARK  4 active torsions:
REMARK  status: ('A' for Active; 'I' for Inactive)
REMARK    1  A    between atoms: C_3  and  C_4
REMARK    2  A    between atoms: C_10  and  O_13
REMARK    3  A    between atoms: O_13  and  C_14
REMARK    4  A    between atoms: C_18  and  C_20
REMARK                            x       y       z     vdW  Elec       q    Type
REMARK                         _______ _______ _______ _____ _____    ______ ____
ROOT
ATOM      1  C   UNL A   1     -28.016  -0.814  28.878  0.00  0.00    +0.037 A 
ATOM      2  C   UNL A   1     -27.064  -0.119  28.608  0.00  0.00    +0.003 A 
ATOM      3  C   UNL A   1     -25.792  -0.430  29.076  0.00  0.00    +0.000 A 
ATOM      4  C   UNL A   1     -27.955  -1.877  29.873  0.00  0.00    +0.145 A 
ATOM      5  C   UNL A   1     -26.726  -2.330  30.311  0.00  0.00    +0.037 A 
ATOM      6  C   UNL A   1     -25.602  -1.564  29.967  0.00  0.00    +0.003 A 
ENDROOT
BRANCH   3   7
ATOM      7  C   UNL A   1     -24.546   0.349  28.823  0.00  0.00    +0.001 A 
ATOM      8  C   UNL A   1     -24.659   1.420  27.888  0.00  0.00    +0.011 A 
ATOM      9  C   UNL A   1     -23.540   2.179  27.550  0.00  0.00    +0.058 A 
ATOM     10  C   UNL A   1     -22.293   1.743  28.047  0.00  0.00    +0.011 A 
ATOM     11  C   UNL A   1     -22.171   0.708  28.928  0.00  0.00    +0.001 A 
ATOM     12  C   UNL A   1     -23.334  -0.062  29.308  0.00  0.00    +0.000 A 
ATOM     13 CL   UNL A   1     -23.517   3.327  26.338  0.00  0.00    -0.082 Cl
ENDBRANCH   3   7
BRANCH   4  14
ATOM     14  O   UNL A   1     -29.050  -2.614  30.192  0.00  0.00    -0.454 OA
BRANCH  14  15
ATOM     15  C   UNL A   1     -30.189  -1.989  30.571  0.00  0.00    +0.145 A 
ATOM     16  C   UNL A   1     -30.753  -2.611  31.666  0.00  0.00    +0.037 A 
ATOM     17  C   UNL A   1     -31.895  -2.047  32.135  0.00  0.00    +0.003 A 
ATOM     18  C   UNL A   1     -32.448  -0.917  31.475  0.00  0.00    +0.007 A 
ATOM     19  C   UNL A   1     -31.844  -0.391  30.408  0.00  0.00    +0.083 A 
ATOM     20  C   UNL A   1     -30.662  -0.909  29.946  0.00  0.00    +0.044 A 
BRANCH  19  21
ATOM     21  C   UNL A   1     -32.409   0.828  29.727  0.00  0.00    +0.388 C 
ATOM     22  O   UNL A   1     -32.764   1.747  30.204  0.00  0.00    -0.241 OA
ATOM     23  O   UNL A   1     -32.352   0.723  28.320  0.00  0.00    -0.241 OA
ENDBRANCH  19  21
ENDBRANCH  14  15
ENDBRANCH   4  14
TORSDOF 4
