MODEL 4903
MODEL 1
REMARK VINA RESULT:    -6.234      0.000      0.000
REMARK INTER + INTRA:          -7.721
REMARK INTER:                  -7.328
REMARK INTRA:                  -0.393
REMARK UNBOUND:                -0.393
REMARK  Name = No_4903-gen_results/8p0m/2024-11-26-14-13-15/
REMARK  3 active torsions:
REMARK  status: ('A' for Active; 'I' for Inactive)
REMARK    1  A    between atoms: C_2  and  O_7
REMARK    2  A    between atoms: O_7  and  C_8
REMARK    3  A    between atoms: C_12  and  C_14
REMARK                            x       y       z     vdW  Elec       q    Type
REMARK                         _______ _______ _______ _____ _____    ______ ____
ROOT
ATOM      1  C   UNL A   1     -24.502  -0.477  28.434  0.00  0.00    +0.145 A 
ATOM      2  C   UNL A   1     -23.512   0.261  28.547  0.00  0.00    +0.037 A 
ATOM      3  C   UNL A   1     -23.129   1.139  27.444  0.00  0.00    +0.003 A 
ATOM      4  C   UNL A   1     -23.913   1.087  26.267  0.00  0.00    +0.002 A 
ATOM      5  C   UNL A   1     -24.992   0.229  26.233  0.00  0.00    +0.024 A 
ATOM      6  C   UNL A   1     -25.352  -0.544  27.263  0.00  0.00    +0.039 A 
ENDROOT
BRANCH   5   7
ATOM      7  C   UNL A   1     -25.829   0.167  24.991  0.00  0.00    +0.122 C 
ATOM      8  N   UNL A   1     -26.895   0.828  24.918  0.00  0.00    -0.146 NA
ENDBRANCH   5   7
BRANCH   1   9
ATOM      9  O   UNL A   1     -24.824  -1.223  29.488  0.00  0.00    -0.454 OA
BRANCH   9  11
ATOM     10  C   UNL A   1     -25.919  -3.046  29.791  0.00  0.00    +0.037 A 
ATOM     11  C   UNL A   1     -25.043  -2.669  29.342  0.00  0.00    +0.145 A 
ATOM     12  C   UNL A   1     -26.140  -4.534  29.637  0.00  0.00    +0.003 A 
ATOM     13  C   UNL A   1     -25.129  -5.326  29.053  0.00  0.00    +0.000 A 
ATOM     14  C   UNL A   1     -23.839  -3.266  28.721  0.00  0.00    +0.037 A 
ATOM     15  C   UNL A   1     -24.002  -4.635  28.569  0.00  0.00    +0.003 A 
ENDBRANCH   9  11
ENDBRANCH   1   9
TORSDOF 3
ENDMDL
ENDMDL
