REMARK  Name = No_4904-gen_results/8p0m/2024-11-26-14-13-15/
REMARK  3 active torsions:
REMARK  status: ('A' for Active; 'I' for Inactive)
REMARK    1  A    between atoms: C_3  and  O_9
REMARK    2  A    between atoms: O_9  and  C_10
REMARK    3  A    between atoms: C_11  and  C_13
REMARK                            x       y       z     vdW  Elec       q    Type
REMARK                         _______ _______ _______ _____ _____    ______ ____
ROOT
ATOM      1  C   UNL A   1     -28.016  -0.814  28.878  0.00  0.00    +0.050 A 
ATOM      2  C   UNL A   1     -28.469  -0.785  29.829  0.00  0.00    +0.061 A 
ATOM      3  C   UNL A   1     -26.546  -0.876  28.850  0.00  0.00    +0.156 A 
ATOM      4  C   UNL A   1     -25.804  -1.032  30.057  0.00  0.00    +0.092 A 
ATOM      5  C   UNL A   1     -27.944  -0.987  31.207  0.00  0.00    +0.013 A 
ATOM      6  C   UNL A   1     -26.582  -1.039  31.223  0.00  0.00    +0.015 A 
ATOM      7 CL   UNL A   1     -30.306  -0.804  29.970  0.00  0.00    -0.082 Cl
ATOM      8 CL   UNL A   1     -24.127  -1.108  30.059  0.00  0.00    -0.079 Cl
ENDROOT
BRANCH   3   9
ATOM      9  O   UNL A   1     -25.772  -0.839  27.709  0.00  0.00    -0.457 OA
BRANCH   9  10
ATOM     10  C   UNL A   1     -26.207   0.218  26.858  0.00  0.00    +0.123 C 
ATOM     11  C   UNL A   1     -25.744   1.496  26.974  0.00  0.00    +0.033 C 
ATOM     12  C   UNL A   1     -26.967  -0.128  25.693  0.00  0.00    +0.072 C 
BRANCH  11  13
ATOM     13  C   UNL A   1     -24.776   1.873  28.046  0.00  0.00    -0.002 C 
ATOM     14  C   UNL A   1     -24.274   3.169  28.127  0.00  0.00    -0.026 C 
ATOM     15  C   UNL A   1     -24.619   4.050  27.017  0.00  0.00    +0.031 C 
ENDBRANCH  11  13
ENDBRANCH   9  10
ENDBRANCH   3   9
TORSDOF 3
