MODEL 4904
MODEL 1
REMARK VINA RESULT:    -5.387      0.000      0.000
REMARK INTER + INTRA:          -6.959
REMARK INTER:                  -6.332
REMARK INTRA:                  -0.627
REMARK UNBOUND:                -0.627
REMARK  Name = No_4904-gen_results/8p0m/2024-11-26-14-13-15/
REMARK  3 active torsions:
REMARK  status: ('A' for Active; 'I' for Inactive)
REMARK    1  A    between atoms: C_3  and  O_9
REMARK    2  A    between atoms: O_9  and  C_10
REMARK    3  A    between atoms: C_11  and  C_13
REMARK                            x       y       z     vdW  Elec       q    Type
REMARK                         _______ _______ _______ _____ _____    ______ ____
ROOT
ATOM      1  C   UNL A   1     -24.930   0.042  27.270  0.00  0.00    +0.050 A 
ATOM      2  C   UNL A   1     -25.359   0.660  26.532  0.00  0.00    +0.061 A 
ATOM      3  C   UNL A   1     -23.532   0.322  27.633  0.00  0.00    +0.156 A 
ATOM      4  C   UNL A   1     -22.861   1.464  27.105  0.00  0.00    +0.092 A 
ATOM      5  C   UNL A   1     -24.909   1.921  25.881  0.00  0.00    +0.013 A 
ATOM      6  C   UNL A   1     -23.612   2.209  26.186  0.00  0.00    +0.015 A 
ATOM      7 CL   UNL A   1     -27.133   0.451  26.079  0.00  0.00    -0.082 Cl
ATOM      8 CL   UNL A   1     -21.267   1.812  27.501  0.00  0.00    -0.079 Cl
ENDROOT
BRANCH   3   9
ATOM      9  O   UNL A   1     -22.777  -0.423  28.514  0.00  0.00    -0.457 OA
BRANCH   9  10
ATOM     10  C   UNL A   1     -23.495  -0.620  29.729  0.00  0.00    +0.123 C 
ATOM     11  C   UNL A   1     -24.001  -1.831  30.098  0.00  0.00    +0.033 C 
ATOM     12  C   UNL A   1     -23.469   0.433  30.701  0.00  0.00    +0.072 C 
BRANCH  11  13
ATOM     13  C   UNL A   1     -23.869  -3.027  29.214  0.00  0.00    -0.002 C 
ATOM     14  C   UNL A   1     -24.961  -3.854  28.969  0.00  0.00    -0.026 C 
ATOM     15  C   UNL A   1     -26.156  -3.572  29.756  0.00  0.00    +0.031 C 
ENDBRANCH  11  13
ENDBRANCH   9  10
ENDBRANCH   3   9
TORSDOF 3
ENDMDL
ENDMDL
