REMARK  Name = No_4905-gen_results/8p0m/2024-11-26-14-13-15/
REMARK  6 active torsions:
REMARK  status: ('A' for Active; 'I' for Inactive)
REMARK    1  A    between atoms: C_5  and  C_8
REMARK    2  A    between atoms: C_13  and  C_16
REMARK    3  A    between atoms: C_16  and  C_17
REMARK    4  A    between atoms: C_18  and  C_19
REMARK    5  A    between atoms: C_19  and  C_21
REMARK    6  A    between atoms: C_22  and  C_23
REMARK                            x       y       z     vdW  Elec       q    Type
REMARK                         _______ _______ _______ _____ _____    ______ ____
ROOT
ATOM      1  C   UNL A   1     -28.016  -0.814  28.878  0.00  0.00    +0.044 C 
ATOM      2  C   UNL A   1     -27.064  -0.119  28.608  0.00  0.00    +0.002 A 
ATOM      3  C   UNL A   1     -25.792  -0.430  29.076  0.00  0.00    -0.020 A 
ATOM      4  C   UNL A   1     -25.270  -0.049  30.012  0.00  0.00    +0.052 C 
ATOM      5  C   UNL A   1     -27.885  -1.668  30.112  0.00  0.00    +0.129 C 
ATOM      6  C   UNL A   1     -26.925  -1.604  31.180  0.00  0.00    -0.019 C 
ATOM      7  C   UNL A   1     -25.941  -0.674  31.039  0.00  0.00    -0.025 C 
ATOM      8  C   UNL A   1     -24.825  -0.980  28.030  0.00  0.00    -0.004 A 
ATOM      9  C   UNL A   1     -27.171   0.694  27.421  0.00  0.00    +0.132 A 
ATOM     10  C   UNL A   1     -26.305   0.548  26.324  0.00  0.00    +0.009 A 
ATOM     11  C   UNL A   1     -24.935  -0.114  26.720  0.00  0.00    -0.002 A 
ATOM     12  F   UNL A   1     -28.325   1.147  27.072  0.00  0.00    -0.205 F 
ENDROOT
BRANCH   5  13
ATOM     13  C   UNL A   1     -29.098  -2.488  30.508  0.00  0.00    +0.369 C 
ATOM     14  O   UNL A   1     -29.354  -2.538  31.751  0.00  0.00    -0.245 OA
ATOM     15  O   UNL A   1     -29.606  -3.249  29.680  0.00  0.00    -0.245 OA
ENDBRANCH   5  13
BRANCH  10  16
ATOM     16  C   UNL A   1     -26.371   1.086  25.101  0.00  0.00    +0.054 C 
BRANCH  16  17
ATOM     17  C   UNL A   1     -27.213   2.108  24.962  0.00  0.00    -0.026 C 
ATOM     18  C   UNL A   1     -27.070   3.282  25.677  0.00  0.00    -0.026 C 
BRANCH  18  19
ATOM     19  C   UNL A   1     -25.977   3.558  26.470  0.00  0.00    +0.044 C 
ATOM     20  C   UNL A   1     -24.678   3.339  26.256  0.00  0.00    +0.009 C 
BRANCH  19  21
ATOM     21  C   UNL A   1     -26.247   4.511  27.589  0.00  0.00    -0.022 C 
ATOM     22  C   UNL A   1     -26.592   4.280  28.588  0.00  0.00    -0.004 C 
BRANCH  22  23
ATOM     23  C   UNL A   1     -26.728   5.178  29.758  0.00  0.00    -0.000 C 
ATOM     24  C   UNL A   1     -26.241   6.420  29.631  0.00  0.00    -0.000 C 
ENDBRANCH  22  23
ENDBRANCH  19  21
ENDBRANCH  18  19
ENDBRANCH  16  17
ENDBRANCH  10  16
TORSDOF 6
