MODEL 4906
MODEL 1
REMARK VINA RESULT:    -6.164      0.000      0.000
REMARK INTER + INTRA:         -10.852
REMARK INTER:                  -9.408
REMARK INTRA:                  -1.445
REMARK UNBOUND:                -1.445
REMARK  Name = No_4906-gen_results/8p0m/2024-11-26-14-13-15/
REMARK  9 active torsions:
REMARK  status: ('A' for Active; 'I' for Inactive)
REMARK    1  A    between atoms: C_1  and  C_6
REMARK    2  A    between atoms: C_3  and  C_17
REMARK    3  A    between atoms: C_5  and  C_9
REMARK    4  A    between atoms: C_6  and  O_12
REMARK    5  A    between atoms: O_12  and  C_13
REMARK    6  A    between atoms: C_13  and  C_14
REMARK    7  A    between atoms: C_17  and  C_19
REMARK    8  A    between atoms: C_19  and  C_20
REMARK    9  A    between atoms: C_20  and  C_22
REMARK                            x       y       z     vdW  Elec       q    Type
REMARK                         _______ _______ _______ _____ _____    ______ ____
ROOT
ATOM      1  C   UNL A   1     -13.139   2.400  36.790  0.00  0.00    +0.020 A 
ATOM      2  C   UNL A   1     -12.072   1.877  37.018  0.00  0.00    -0.004 A 
ATOM      3  C   UNL A   1     -11.277   1.246  36.077  0.00  0.00    -0.007 A 
ATOM      4  C   UNL A   1     -11.744   1.243  34.729  0.00  0.00    +0.004 A 
ATOM      5  C   UNL A   1     -12.859   1.962  34.486  0.00  0.00    +0.079 A 
ATOM      6  C   UNL A   1     -13.514   2.543  35.479  0.00  0.00    +0.006 A 
ENDROOT
BRANCH   5   7
ATOM      7  C   UNL A   1     -13.303   1.951  33.072  0.00  0.00    +0.388 C 
ATOM      8  O   UNL A   1     -12.898   1.248  32.344  0.00  0.00    -0.241 OA
ATOM      9  O   UNL A   1     -14.181   2.851  32.606  0.00  0.00    -0.241 OA
ENDBRANCH   5   7
BRANCH   1  10
ATOM     10  C   UNL A   1     -13.845   3.083  37.839  0.00  0.00    +0.218 C 
ATOM     11 CL   UNL A   1     -14.127   3.088  38.909  0.00  0.00    -0.077 Cl
BRANCH  10  12
ATOM     12  O   UNL A   1     -14.558   4.268  37.109  0.00  0.00    -0.325 OA
BRANCH  12  13
ATOM     13  C   UNL A   1     -15.775   4.599  37.654  0.00  0.00    +0.258 C 
BRANCH  13  14
ATOM     14  C   UNL A   1     -16.776   4.384  36.621  0.00  0.00    +0.395 C 
ATOM     15  O   UNL A   1     -16.680   3.786  35.761  0.00  0.00    -0.243 OA
ATOM     16  O   UNL A   1     -17.996   4.925  36.872  0.00  0.00    -0.243 OA
ENDBRANCH  13  14
ENDBRANCH  12  13
ENDBRANCH  10  12
ENDBRANCH   1  10
BRANCH   3  17
ATOM     17  C   UNL A   1     -10.090   0.419  36.480  0.00  0.00    +0.102 C 
ATOM     18 CL   UNL A   1      -8.965   0.587  35.487  0.00  0.00    -0.110 Cl
BRANCH  17  19
ATOM     19  C   UNL A   1     -10.032  -0.352  37.605  0.00  0.00    +0.019 C 
ATOM     20  C   UNL A   1      -9.318   0.043  38.766  0.00  0.00    +0.002 C 
BRANCH  19  21
ATOM     21  C   UNL A   1     -10.700  -1.556  37.609  0.00  0.00    +0.002 C 
BRANCH  21  22
ATOM     22  C   UNL A   1     -11.859  -1.698  38.291  0.00  0.00    +0.000 C 
ATOM     23  C   UNL A   1     -12.202  -2.567  39.341  0.00  0.00    +0.000 C 
ENDBRANCH  21  22
ENDBRANCH  19  21
ENDBRANCH  17  19
ENDBRANCH   3  17
TORSDOF 9
ENDMDL
ENDMDL
