REMARK  Name = No_4906-gen_results/8p0m/2024-11-26-14-13-15/
REMARK  9 active torsions:
REMARK  status: ('A' for Active; 'I' for Inactive)
REMARK    1  A    between atoms: C_1  and  C_6
REMARK    2  A    between atoms: C_3  and  C_17
REMARK    3  A    between atoms: C_5  and  C_9
REMARK    4  A    between atoms: C_6  and  O_12
REMARK    5  A    between atoms: O_12  and  C_13
REMARK    6  A    between atoms: C_13  and  C_14
REMARK    7  A    between atoms: C_17  and  C_19
REMARK    8  A    between atoms: C_19  and  C_20
REMARK    9  A    between atoms: C_20  and  C_22
REMARK                            x       y       z     vdW  Elec       q    Type
REMARK                         _______ _______ _______ _____ _____    ______ ____
ROOT
ATOM      1  C   UNL A   1     -28.016  -0.814  28.878  0.00  0.00    +0.020 A 
ATOM      2  C   UNL A   1     -27.064  -0.119  28.608  0.00  0.00    -0.004 A 
ATOM      3  C   UNL A   1     -26.972   0.714  27.506  0.00  0.00    -0.007 A 
ATOM      4  C   UNL A   1     -28.105   0.774  26.642  0.00  0.00    +0.004 A 
ATOM      5  C   UNL A   1     -29.201   0.104  27.053  0.00  0.00    +0.079 A 
ATOM      6  C   UNL A   1     -29.164  -0.639  28.148  0.00  0.00    +0.006 A 
ENDROOT
BRANCH   5   7
ATOM      7  C   UNL A   1     -30.364   0.206  26.139  0.00  0.00    +0.388 C 
ATOM      8  O   UNL A   1     -31.248  -0.421  26.255  0.00  0.00    -0.241 OA
ATOM      9  O   UNL A   1     -30.355   1.033  25.084  0.00  0.00    -0.241 OA
ENDBRANCH   5   7
BRANCH   1  10
ATOM     10  C   UNL A   1     -28.022  -1.590  30.088  0.00  0.00    +0.218 C 
ATOM     11 CL   UNL A   1     -27.430  -1.975  30.939  0.00  0.00    -0.077 Cl
BRANCH  10  12
ATOM     12  O   UNL A   1     -29.471  -2.176  30.157  0.00  0.00    -0.325 OA
BRANCH  12  13
ATOM     13  C   UNL A   1     -29.521  -3.466  30.626  0.00  0.00    +0.258 C 
BRANCH  13  14
ATOM     14  C   UNL A   1     -30.627  -4.123  29.947  0.00  0.00    +0.395 C 
ATOM     15  O   UNL A   1     -31.055  -3.851  29.026  0.00  0.00    -0.243 OA
ATOM     16  O   UNL A   1     -31.060  -5.275  30.521  0.00  0.00    -0.243 OA
ENDBRANCH  13  14
ENDBRANCH  12  13
ENDBRANCH  10  12
ENDBRANCH   1  10
BRANCH   3  17
ATOM     17  C   UNL A   1     -25.673   1.358  27.115  0.00  0.00    +0.102 C 
ATOM     18 CL   UNL A   1     -24.530   0.769  27.905  0.00  0.00    -0.110 Cl
BRANCH  17  19
ATOM     19  C   UNL A   1     -25.547   2.322  26.156  0.00  0.00    +0.019 C 
ATOM     20  C   UNL A   1     -26.660   3.031  25.635  0.00  0.00    +0.002 C 
BRANCH  19  21
ATOM     21  C   UNL A   1     -24.287   2.617  25.685  0.00  0.00    +0.002 C 
BRANCH  21  22
ATOM     22  C   UNL A   1     -23.243   2.731  26.536  0.00  0.00    +0.000 C 
ATOM     23  C   UNL A   1     -22.647   1.782  27.385  0.00  0.00    +0.000 C 
ENDBRANCH  21  22
ENDBRANCH  19  21
ENDBRANCH  17  19
ENDBRANCH   3  17
TORSDOF 9
