REMARK  Name = No_4907-gen_results/8p0m/2024-11-26-14-13-15/
REMARK  0 active torsions:
REMARK  status: ('A' for Active; 'I' for Inactive)
REMARK                            x       y       z     vdW  Elec       q    Type
REMARK                         _______ _______ _______ _____ _____    ______ ____
ROOT
ATOM      1  C   UNL A   1     -28.016  -0.814  28.878  0.00  0.00    +0.000 A 
ATOM      2  C   UNL A   1     -27.064  -0.119  28.608  0.00  0.00    +0.000 A 
ATOM      3  C   UNL A   1     -26.876   1.133  28.913  0.00  0.00    +0.009 A 
ATOM      4  C   UNL A   1     -27.901   1.807  29.644  0.00  0.00    +0.056 A 
ATOM      5  C   UNL A   1     -28.945   1.039  30.036  0.00  0.00    +0.005 A 
ATOM      6  C   UNL A   1     -29.027  -0.289  29.705  0.00  0.00    +0.000 A 
ATOM      7  C   UNL A   1     -25.696   1.950  28.476  0.00  0.00    +0.056 A 
ATOM      8  C   UNL A   1     -24.705   1.724  28.139  0.00  0.00    +0.004 A 
ATOM      9  C   UNL A   1     -23.539   2.167  27.822  0.00  0.00    +0.000 A 
ATOM     10  C   UNL A   1     -22.329   1.452  27.562  0.00  0.00    +0.000 A 
ATOM     11  C   UNL A   1     -22.342   0.139  27.922  0.00  0.00    +0.000 A 
ATOM     12  C   UNL A   1     -23.471  -0.459  28.430  0.00  0.00    +0.000 A 
ATOM     13  C   UNL A   1     -24.475   0.208  28.639  0.00  0.00    +0.000 A 
ATOM     14  C   UNL A   1     -25.676  -0.731  28.265  0.00  0.00    +0.000 A 
ATOM     15  C   UNL A   1     -26.006   3.578  28.506  0.00  0.00    +0.272 C 
ATOM     16  O   UNL A   1     -25.218   4.276  27.939  0.00  0.00    -0.268 OA
ATOM     17  N   UNL A   1     -27.263   4.053  28.837  0.00  0.00    -0.137 NA
ATOM     18  C   UNL A   1     -28.201   3.222  29.462  0.00  0.00    +0.272 C 
ATOM     19  O   UNL A   1     -29.260   3.766  29.756  0.00  0.00    -0.268 OA
ENDROOT
TORSDOF 0
