MODEL 4907
MODEL 1
REMARK VINA RESULT:    -7.519      0.000      0.000
REMARK INTER + INTRA:          -7.519
REMARK INTER:                  -7.519
REMARK INTRA:                   0.000
REMARK UNBOUND:                 0.000
REMARK  Name = No_4907-gen_results/8p0m/2024-11-26-14-13-15/
REMARK  0 active torsions:
REMARK  status: ('A' for Active; 'I' for Inactive)
REMARK                            x       y       z     vdW  Elec       q    Type
REMARK                         _______ _______ _______ _____ _____    ______ ____
ROOT
ATOM      1  C   UNL A   1     -27.661  -0.092  30.671  0.00  0.00    +0.000 A 
ATOM      2  C   UNL A   1     -26.787  -0.802  30.230  0.00  0.00    +0.000 A 
ATOM      3  C   UNL A   1     -25.499  -0.656  30.354  0.00  0.00    +0.009 A 
ATOM      4  C   UNL A   1     -25.019   0.475  31.082  0.00  0.00    +0.056 A 
ATOM      5  C   UNL A   1     -25.968   1.247  31.661  0.00  0.00    +0.005 A 
ATOM      6  C   UNL A   1     -27.305   0.980  31.512  0.00  0.00    +0.000 A 
ATOM      7  C   UNL A   1     -24.473  -1.543  29.711  0.00  0.00    +0.056 A 
ATOM      8  C   UNL A   1     -24.477  -2.539  29.318  0.00  0.00    +0.004 A 
ATOM      9  C   UNL A   1     -23.794  -3.521  28.843  0.00  0.00    +0.000 A 
ATOM     10  C   UNL A   1     -24.195  -4.865  28.569  0.00  0.00    +0.000 A 
ATOM     11  C   UNL A   1     -25.397  -5.230  29.093  0.00  0.00    +0.000 A 
ATOM     12  C   UNL A   1     -26.190  -4.336  29.773  0.00  0.00    +0.000 A 
ATOM     13  C   UNL A   1     -25.788  -3.200  29.985  0.00  0.00    +0.000 A 
ATOM     14  C   UNL A   1     -27.055  -2.284  29.844  0.00  0.00    +0.000 A 
ATOM     15  C   UNL A   1     -22.999  -0.801  29.561  0.00  0.00    +0.272 C 
ATOM     16  O   UNL A   1     -22.209  -1.337  28.840  0.00  0.00    -0.268 OA
ATOM     17  N   UNL A   1     -22.829   0.519  29.940  0.00  0.00    -0.137 NA
ATOM     18  C   UNL A   1     -23.776   1.160  30.748  0.00  0.00    +0.272 C 
ATOM     19  O   UNL A   1     -23.493   2.311  31.065  0.00  0.00    -0.268 OA
ENDROOT
TORSDOF 0
ENDMDL
ENDMDL
