REMARK  Name = No_4908-gen_results/8p0m/2024-11-26-14-13-15/
REMARK  9 active torsions:
REMARK  status: ('A' for Active; 'I' for Inactive)
REMARK    1  A    between atoms: C_2  and  C_17
REMARK    2  A    between atoms: C_4  and  C_6
REMARK    3  A    between atoms: C_8  and  C_14
REMARK    4  A    between atoms: C_14  and  O_16
REMARK    5  A    between atoms: O_16  and  C_20
REMARK    6  A    between atoms: C_20  and  C_21
REMARK    7  A    between atoms: C_20  and  C_23
REMARK    8  A    between atoms: C_23  and  N_24
REMARK    9  A    between atoms: N_24  and  C_25
REMARK                            x       y       z     vdW  Elec       q    Type
REMARK                         _______ _______ _______ _____ _____    ______ ____
ROOT
ATOM      1  C   UNL A   1     -24.398  -0.836  30.177  0.00  0.00    +0.006 A 
ATOM      2  C   UNL A   1     -23.796   0.436  29.909  0.00  0.00    +0.076 A 
ATOM      3  C   UNL A   1     -22.494   0.476  29.363  0.00  0.00    +0.006 A 
ATOM      4  C   UNL A   1     -21.776  -0.720  29.186  0.00  0.00    +0.000 A 
ATOM      5  C   UNL A   1     -23.612  -2.004  29.927  0.00  0.00    +0.000 A 
ATOM      6  C   UNL A   1     -22.340  -1.901  29.347  0.00  0.00    +0.000 A 
ENDROOT
BRANCH   1  10
ATOM      7  C   UNL A   1     -28.016  -0.814  28.878  0.00  0.00    +0.002 A 
ATOM      8  C   UNL A   1     -28.469  -0.785  29.829  0.00  0.00    +0.080 A 
ATOM      9  C   UNL A   1     -26.504  -0.778  28.877  0.00  0.00    -0.022 A 
ATOM     10  C   UNL A   1     -25.810  -0.853  30.103  0.00  0.00    -0.004 A 
ATOM     11  C   UNL A   1     -27.991  -0.892  31.226  0.00  0.00    +0.007 A 
ATOM     12  C   UNL A   1     -26.575  -0.890  31.266  0.00  0.00    -0.000 A 
ATOM     13  C   UNL A   1     -25.697  -0.719  27.642  0.00  0.00    +0.031 C 
BRANCH   8  14
ATOM     14  C   UNL A   1     -30.062  -0.890  30.012  0.00  0.00    +0.388 C 
ATOM     15  O   UNL A   1     -30.622  -0.354  30.792  0.00  0.00    -0.241 OA
ATOM     16  O   UNL A   1     -30.595  -1.523  29.022  0.00  0.00    -0.241 OA
ENDBRANCH   8  14
ENDBRANCH   1  10
BRANCH   2  17
ATOM     17  C   UNL A   1     -24.535   1.667  30.191  0.00  0.00    +0.341 C 
ATOM     18  O   UNL A   1     -24.632   2.124  31.326  0.00  0.00    -0.245 OA
BRANCH  17  19
ATOM     19  O   UNL A   1     -25.226   2.200  29.230  0.00  0.00    -0.445 OA
BRANCH  19  20
ATOM     20  C   UNL A   1     -26.013   3.301  29.461  0.00  0.00    +0.223 C 
BRANCH  20  21
ATOM     21  C   UNL A   1     -26.001   4.134  28.365  0.00  0.00    +0.227 C 
ATOM     22  O   UNL A   1     -25.575   3.733  27.353  0.00  0.00    -0.216 OA
ENDBRANCH  20  21
BRANCH  20  23
ATOM     23  C   UNL A   1     -27.150   3.219  30.322  0.00  0.00    +0.158 C 
BRANCH  23  24
ATOM     24  N   UNL A   1     -28.330   3.188  29.805  0.00  0.00    -0.233 NA
BRANCH  24  25
ATOM     25  C   UNL A   1     -29.424   2.958  30.554  0.00  0.00    +0.076 C 
ATOM     26  C   UNL A   1     -30.674   2.966  29.850  0.00  0.00    -0.008 C 
ATOM     27  C   UNL A   1     -31.776   3.168  30.384  0.00  0.00    +0.032 C 
ENDBRANCH  24  25
ENDBRANCH  23  24
ENDBRANCH  20  23
ENDBRANCH  19  20
ENDBRANCH  17  19
ENDBRANCH   2  17
TORSDOF 9
