MODEL 4908
MODEL 1
REMARK VINA RESULT:    -5.629      0.000      0.000
REMARK INTER + INTRA:         -10.822
REMARK INTER:                  -8.591
REMARK INTRA:                  -2.231
REMARK UNBOUND:                -2.231
REMARK  Name = No_4908-gen_results/8p0m/2024-11-26-14-13-15/
REMARK  9 active torsions:
REMARK  status: ('A' for Active; 'I' for Inactive)
REMARK    1  A    between atoms: C_2  and  C_17
REMARK    2  A    between atoms: C_4  and  C_6
REMARK    3  A    between atoms: C_8  and  C_14
REMARK    4  A    between atoms: C_14  and  O_16
REMARK    5  A    between atoms: O_16  and  C_20
REMARK    6  A    between atoms: C_20  and  C_21
REMARK    7  A    between atoms: C_20  and  C_23
REMARK    8  A    between atoms: C_23  and  N_24
REMARK    9  A    between atoms: N_24  and  C_25
REMARK                            x       y       z     vdW  Elec       q    Type
REMARK                         _______ _______ _______ _____ _____    ______ ____
ROOT
ATOM      1  C   UNL A   1     -29.691 -12.144  29.070  0.00  0.00    +0.006 A 
ATOM      2  C   UNL A   1     -30.403 -13.385  28.982  0.00  0.00    +0.076 A 
ATOM      3  C   UNL A   1     -30.409 -14.085  27.756  0.00  0.00    +0.006 A 
ATOM      4  C   UNL A   1     -29.806 -13.511  26.622  0.00  0.00    +0.000 A 
ATOM      5  C   UNL A   1     -29.070 -11.654  27.879  0.00  0.00    +0.000 A 
ATOM      6  C   UNL A   1     -29.077 -12.415  26.702  0.00  0.00    +0.000 A 
ENDROOT
BRANCH   1  10
ATOM      7  C   UNL A   1     -29.070 -10.455  32.467  0.00  0.00    +0.002 A 
ATOM      8  C   UNL A   1     -28.275 -11.085  32.753  0.00  0.00    +0.080 A 
ATOM      9  C   UNL A   1     -29.641 -10.715  31.090  0.00  0.00    -0.022 A 
ATOM     10  C   UNL A   1     -29.194 -11.834  30.357  0.00  0.00    -0.004 A 
ATOM     11  C   UNL A   1     -27.658 -12.315  32.208  0.00  0.00    +0.007 A 
ATOM     12  C   UNL A   1     -28.188 -12.609  30.928  0.00  0.00    -0.000 A 
ATOM     13  C   UNL A   1     -30.694  -9.879  30.480  0.00  0.00    +0.031 C 
BRANCH   8  14
ATOM     14  C   UNL A   1     -27.605 -10.992  34.211  0.00  0.00    +0.388 C 
ATOM     15  O   UNL A   1     -27.638 -10.091  34.840  0.00  0.00    -0.241 OA
ATOM     16  O   UNL A   1     -27.202 -12.153  34.603  0.00  0.00    -0.241 OA
ENDBRANCH   8  14
ENDBRANCH   1  10
BRANCH   2  17
ATOM     17  C   UNL A   1     -31.099 -13.911  30.156  0.00  0.00    +0.341 C 
ATOM     18  O   UNL A   1     -32.036 -13.317  30.680  0.00  0.00    -0.245 OA
BRANCH  17  19
ATOM     19  O   UNL A   1     -30.607 -14.962  30.739  0.00  0.00    -0.445 OA
BRANCH  19  20
ATOM     20  C   UNL A   1     -31.397 -16.056  30.993  0.00  0.00    +0.223 C 
BRANCH  20  21
ATOM     21  C   UNL A   1     -31.301 -16.962  29.961  0.00  0.00    +0.227 C 
ATOM     22  O   UNL A   1     -30.256 -17.417  29.701  0.00  0.00    -0.216 OA
ENDBRANCH  20  21
BRANCH  20  23
ATOM     23  C   UNL A   1     -31.653 -16.477  32.334  0.00  0.00    +0.158 C 
BRANCH  23  24
ATOM     24  N   UNL A   1     -30.962 -15.970  33.296  0.00  0.00    -0.233 NA
BRANCH  24  25
ATOM     25  C   UNL A   1     -31.440 -14.969  34.058  0.00  0.00    +0.076 C 
ATOM     26  C   UNL A   1     -30.709 -13.736  33.997  0.00  0.00    -0.008 C 
ATOM     27  C   UNL A   1     -30.737 -12.863  34.878  0.00  0.00    +0.032 C 
ENDBRANCH  24  25
ENDBRANCH  23  24
ENDBRANCH  20  23
ENDBRANCH  19  20
ENDBRANCH  17  19
ENDBRANCH   2  17
TORSDOF 9
ENDMDL
ENDMDL
