REMARK  Name = No_4909-gen_results/8p0m/2024-11-26-14-13-15/
REMARK  2 active torsions:
REMARK  status: ('A' for Active; 'I' for Inactive)
REMARK    1  A    between atoms: C_2  and  C_11
REMARK    2  A    between atoms: C_5  and  C_7
REMARK                            x       y       z     vdW  Elec       q    Type
REMARK                         _______ _______ _______ _____ _____    ______ ____
ROOT
ATOM      1  C   UNL A   1     -28.016  -0.814  28.878  0.00  0.00    +0.059 A 
ATOM      2  C   UNL A   1     -27.064  -0.119  28.608  0.00  0.00    +0.023 A 
ATOM      3  C   UNL A   1     -27.001   0.691  27.491  0.00  0.00    +0.059 A 
ATOM      4  C   UNL A   1     -28.137   0.736  26.635  0.00  0.00    +0.016 A 
ATOM      5  C   UNL A   1     -29.236   0.076  27.069  0.00  0.00    +0.057 A 
ATOM      6  C   UNL A   1     -29.218  -0.643  28.175  0.00  0.00    +0.016 A 
ATOM      7 CL   UNL A   1     -28.109  -1.795  30.357  0.00  0.00    -0.082 Cl
ATOM      8 CL   UNL A   1     -25.521   1.514  26.969  0.00  0.00    -0.082 Cl
ENDROOT
BRANCH   2   9
ATOM      9  C   UNL A   1     -25.721  -0.211  29.435  0.00  0.00    +0.029 A 
ATOM     10  C   UNL A   1     -25.302   0.790  30.247  0.00  0.00    +0.140 A 
ATOM     11  C   UNL A   1     -24.058   0.701  30.927  0.00  0.00    +0.030 A 
ATOM     12  C   UNL A   1     -23.350  -0.311  30.640  0.00  0.00    +0.002 A 
ATOM     13  C   UNL A   1     -23.660  -1.373  29.799  0.00  0.00    +0.000 A 
ATOM     14  C   UNL A   1     -24.905  -1.333  29.115  0.00  0.00    +0.002 A 
ATOM     15  F   UNL A   1     -26.090   1.837  30.501  0.00  0.00    -0.204 F 
ENDBRANCH   2   9
BRANCH   5  16
ATOM     16  C   UNL A   1     -30.415   0.159  26.182  0.00  0.00    +0.265 C 
ATOM     17  N   UNL A   1     -31.373  -0.505  26.485  0.00  0.00    -0.200 NA
ATOM     18  O   UNL A   1     -30.387   0.841  25.108  0.00  0.00    -0.268 OA
ATOM     19  C   UNL A   1     -32.590  -0.593  25.596  0.00  0.00    +0.139 C 
ENDBRANCH   5  16
TORSDOF 2
