MODEL 4909
MODEL 1
REMARK VINA RESULT:    -6.699      0.000      0.000
REMARK INTER + INTRA:          -8.233
REMARK INTER:                  -7.482
REMARK INTRA:                  -0.751
REMARK UNBOUND:                -0.751
REMARK  Name = No_4909-gen_results/8p0m/2024-11-26-14-13-15/
REMARK  2 active torsions:
REMARK  status: ('A' for Active; 'I' for Inactive)
REMARK    1  A    between atoms: C_2  and  C_11
REMARK    2  A    between atoms: C_5  and  C_7
REMARK                            x       y       z     vdW  Elec       q    Type
REMARK                         _______ _______ _______ _____ _____    ______ ____
ROOT
ATOM      1  C   UNL A   1     -25.426  -3.637  29.321  0.00  0.00    +0.059 A 
ATOM      2  C   UNL A   1     -25.452  -2.510  29.758  0.00  0.00    +0.023 A 
ATOM      3  C   UNL A   1     -26.545  -1.966  30.404  0.00  0.00    +0.059 A 
ATOM      4  C   UNL A   1     -27.686  -2.794  30.598  0.00  0.00    +0.016 A 
ATOM      5  C   UNL A   1     -27.545  -4.093  30.245  0.00  0.00    +0.057 A 
ATOM      6  C   UNL A   1     -26.444  -4.537  29.668  0.00  0.00    +0.016 A 
ATOM      7 CL   UNL A   1     -23.986  -4.344  28.556  0.00  0.00    -0.082 Cl
ATOM      8 CL   UNL A   1     -26.672  -0.248  30.822  0.00  0.00    -0.082 Cl
ENDROOT
BRANCH   2   9
ATOM      9  C   UNL A   1     -24.279  -1.491  29.470  0.00  0.00    +0.029 A 
ATOM     10  C   UNL A   1     -23.354  -1.171  30.407  0.00  0.00    +0.140 A 
ATOM     11  C   UNL A   1     -22.350  -0.204  30.135  0.00  0.00    +0.030 A 
ATOM     12  C   UNL A   1     -22.451   0.389  29.019  0.00  0.00    +0.002 A 
ATOM     13  C   UNL A   1     -23.375   0.171  28.004  0.00  0.00    +0.000 A 
ATOM     14  C   UNL A   1     -24.384  -0.804  28.227  0.00  0.00    +0.002 A 
ATOM     15  F   UNL A   1     -23.306  -1.825  31.569  0.00  0.00    -0.204 F 
ENDBRANCH   2   9
BRANCH   5  16
ATOM     16  C   UNL A   1     -28.729  -4.945  30.482  0.00  0.00    +0.265 C 
ATOM     17  N   UNL A   1     -29.666  -4.795  29.740  0.00  0.00    -0.200 NA
ATOM     18  O   UNL A   1     -28.782  -5.743  31.472  0.00  0.00    -0.268 OA
ATOM     19  C   UNL A   1     -30.971  -5.522  29.954  0.00  0.00    +0.139 C 
ENDBRANCH   5  16
TORSDOF 2
ENDMDL
ENDMDL
