MODEL 490
MODEL 1
REMARK VINA RESULT:    -8.236      0.000      0.000
REMARK INTER + INTRA:          -9.237
REMARK INTER:                  -8.717
REMARK INTRA:                  -0.520
REMARK UNBOUND:                -0.520
REMARK  Name = No_490-gen_results/8p0m/2024-11-26-14-13-15/
REMARK  1 active torsions:
REMARK  status: ('A' for Active; 'I' for Inactive)
REMARK    1  A    between atoms: C_7  and  C_17
REMARK                            x       y       z     vdW  Elec       q    Type
REMARK                         _______ _______ _______ _____ _____    ______ ____
ROOT
ATOM      1  C   UNL A   1     -24.162  -3.203  28.543  0.00  0.00    -0.000 A 
ATOM      2  C   UNL A   1     -25.116  -2.703  29.092  0.00  0.00    -0.000 A 
ATOM      3  C   UNL A   1     -26.086  -3.490  29.703  0.00  0.00    -0.004 A 
ATOM      4  C   UNL A   1     -26.009  -4.928  29.661  0.00  0.00    -0.000 A 
ATOM      5  C   UNL A   1     -24.886  -5.422  28.985  0.00  0.00    -0.000 A 
ATOM      6  C   UNL A   1     -24.006  -4.635  28.409  0.00  0.00    -0.000 A 
ATOM      7  C   UNL A   1     -25.228  -1.246  29.034  0.00  0.00    +0.000 A 
ATOM      8  C   UNL A   1     -26.336  -0.681  29.591  0.00  0.00    +0.004 A 
ATOM      9  C   UNL A   1     -27.360  -1.530  30.289  0.00  0.00    +0.051 A 
ATOM     10  C   UNL A   1     -27.265  -2.888  30.305  0.00  0.00    -0.016 A 
ATOM     11  C   UNL A   1     -28.313  -3.658  30.982  0.00  0.00    +0.044 C 
ATOM     12  C   UNL A   1     -28.961  -4.618  30.396  0.00  0.00    +0.006 C 
ATOM     13  C   UNL A   1     -29.317  -2.846  31.809  0.00  0.00    +0.120 C 
ATOM     14  N   UNL A   1     -29.251  -1.617  32.041  0.00  0.00    -0.201 NA
ATOM     15  C   UNL A   1     -28.228  -0.810  31.363  0.00  0.00    +0.265 C 
ATOM     16  O   UNL A   1     -28.233   0.407  31.555  0.00  0.00    -0.268 OA
ENDROOT
BRANCH   7  17
ATOM     17  C   UNL A   1     -24.301  -0.403  28.413  0.00  0.00    +0.000 A 
ATOM     18  C   UNL A   1     -23.141  -0.077  29.036  0.00  0.00    +0.000 A 
ATOM     19  C   UNL A   1     -22.366   0.917  28.529  0.00  0.00    +0.000 A 
ATOM     20  C   UNL A   1     -24.647   0.203  27.224  0.00  0.00    +0.000 A 
ATOM     21  C   UNL A   1     -23.837   1.142  26.628  0.00  0.00    +0.000 A 
ATOM     22  C   UNL A   1     -22.631   1.463  27.268  0.00  0.00    +0.000 A 
ENDBRANCH   7  17
TORSDOF 1
ENDMDL
ENDMDL
