MODEL 4910
MODEL 1
REMARK VINA RESULT:    -6.386      0.000      0.000
REMARK INTER + INTRA:          -7.537
REMARK INTER:                  -7.133
REMARK INTRA:                  -0.404
REMARK UNBOUND:                -0.404
REMARK  Name = No_4910-gen_results/8p0m/2024-11-26-14-13-15/
REMARK  2 active torsions:
REMARK  status: ('A' for Active; 'I' for Inactive)
REMARK    1  A    between atoms: C_6  and  C_13
REMARK    2  A    between atoms: C_10  and  C_11
REMARK                            x       y       z     vdW  Elec       q    Type
REMARK                         _______ _______ _______ _____ _____    ______ ____
ROOT
ATOM      1  C   UNL A   1     -25.534   0.315  25.540  0.00  0.00    -0.000 C 
ATOM      2  C   UNL A   1     -24.950   0.346  26.599  0.00  0.00    -0.004 A 
ATOM      3  C   UNL A   1     -23.846   1.139  26.840  0.00  0.00    -0.018 A 
ATOM      4  C   UNL A   1     -22.895   0.775  27.792  0.00  0.00    -0.004 A 
ATOM      5  C   UNL A   1     -23.119  -0.313  28.733  0.00  0.00    -0.005 A 
ATOM      6  C   UNL A   1     -24.279  -1.073  28.513  0.00  0.00    -0.023 A 
ATOM      7  C   UNL A   1     -25.081  -0.773  27.455  0.00  0.00    -0.005 A 
ATOM      8  C   UNL A   1     -26.245   1.589  25.217  0.00  0.00    -0.000 C 
ATOM      9  C   UNL A   1     -26.021   2.564  26.006  0.00  0.00    +0.003 C 
ATOM     10  C   UNL A   1     -24.799   3.154  26.395  0.00  0.00    +0.062 C 
ATOM     11  C   UNL A   1     -23.735   2.382  26.861  0.00  0.00    +0.059 C 
ENDROOT
BRANCH   6  12
ATOM     12  C   UNL A   1     -24.472  -2.272  29.428  0.00  0.00    +0.019 C 
ATOM     13  C   UNL A   1     -24.051  -3.489  29.030  0.00  0.00    +0.004 C 
ATOM     14  C   UNL A   1     -23.915  -1.952  30.845  0.00  0.00    +0.004 C 
ATOM     15  C   UNL A   1     -26.077  -2.418  29.622  0.00  0.00    +0.004 C 
ENDBRANCH   6  12
BRANCH  10  16
ATOM     16  C   UNL A   1     -24.734   4.538  26.619  0.00  0.00    +0.384 C 
ATOM     17  O   UNL A   1     -24.371   5.357  25.895  0.00  0.00    -0.241 OA
ATOM     18  O   UNL A   1     -24.833   4.942  27.906  0.00  0.00    -0.241 OA
ENDBRANCH  10  16
TORSDOF 2
ENDMDL
ENDMDL
