REMARK  Name = No_4910-gen_results/8p0m/2024-11-26-14-13-15/
REMARK  2 active torsions:
REMARK  status: ('A' for Active; 'I' for Inactive)
REMARK    1  A    between atoms: C_6  and  C_13
REMARK    2  A    between atoms: C_10  and  C_11
REMARK                            x       y       z     vdW  Elec       q    Type
REMARK                         _______ _______ _______ _____ _____    ______ ____
ROOT
ATOM      1  C   UNL A   1     -28.016  -0.814  28.878  0.00  0.00    -0.000 C 
ATOM      2  C   UNL A   1     -27.064  -0.119  28.608  0.00  0.00    -0.004 A 
ATOM      3  C   UNL A   1     -27.001   0.691  27.491  0.00  0.00    -0.018 A 
ATOM      4  C   UNL A   1     -25.777   1.021  26.913  0.00  0.00    -0.004 A 
ATOM      5  C   UNL A   1     -24.509   0.736  27.569  0.00  0.00    -0.005 A 
ATOM      6  C   UNL A   1     -24.593  -0.036  28.739  0.00  0.00    -0.023 A 
ATOM      7  C   UNL A   1     -25.811  -0.477  29.158  0.00  0.00    -0.005 A 
ATOM      8  C   UNL A   1     -29.237  -0.033  29.243  0.00  0.00    -0.000 C 
ATOM      9  C   UNL A   1     -29.158   1.228  29.077  0.00  0.00    +0.003 C 
ATOM     10  C   UNL A   1     -28.827   1.972  27.924  0.00  0.00    +0.062 C 
ATOM     11  C   UNL A   1     -27.685   1.686  27.177  0.00  0.00    +0.059 C 
ENDROOT
BRANCH   6  12
ATOM     12  C   UNL A   1     -23.269  -0.423  29.377  0.00  0.00    +0.019 C 
ATOM     13  C   UNL A   1     -22.668   0.427  30.233  0.00  0.00    +0.004 C 
ATOM     14  C   UNL A   1     -23.383  -1.835  30.019  0.00  0.00    +0.004 C 
ATOM     15  C   UNL A   1     -22.226  -0.596  28.145  0.00  0.00    +0.004 C 
ENDBRANCH   6  12
BRANCH  10  16
ATOM     16  C   UNL A   1     -29.460   3.202  27.684  0.00  0.00    +0.384 C 
ATOM     17  O   UNL A   1     -30.117   3.814  28.405  0.00  0.00    -0.241 OA
ATOM     18  O   UNL A   1     -29.556   3.583  26.390  0.00  0.00    -0.241 OA
ENDBRANCH  10  16
TORSDOF 2
