MODEL 4911
MODEL 1
REMARK VINA RESULT:    -6.778      0.000      0.000
REMARK INTER + INTRA:         -13.217
REMARK INTER:                 -10.344
REMARK INTRA:                  -2.872
REMARK UNBOUND:                -2.872
REMARK  Name = No_4911-gen_results/8p0m/2024-11-26-14-13-15/
REMARK  9 active torsions:
REMARK  status: ('A' for Active; 'I' for Inactive)
REMARK    1  A    between atoms: C_1  and  C_20
REMARK    2  A    between atoms: C_3  and  C_11
REMARK    3  A    between atoms: C_5  and  C_7
REMARK    4  A    between atoms: C_15  and  C_17
REMARK    5  A    between atoms: N_22  and  C_23
REMARK    6  A    between atoms: C_23  and  C_24
REMARK    7  A    between atoms: C_24  and  C_25
REMARK    8  A    between atoms: C_26  and  C_27
REMARK    9  A    between atoms: C_28  and  C_29
REMARK                            x       y       z     vdW  Elec       q    Type
REMARK                         _______ _______ _______ _____ _____    ______ ____
ROOT
ATOM      1  C   UNL A   1     -10.706   1.130  35.185  0.00  0.00    +0.058 A 
ATOM      2  C   UNL A   1     -11.052   0.635  36.233  0.00  0.00    +0.005 A 
ATOM      3  C   UNL A   1     -10.289  -0.277  36.937  0.00  0.00    +0.000 A 
ATOM      4  C   UNL A   1      -9.009  -0.618  36.416  0.00  0.00    +0.004 A 
ATOM      5  C   UNL A   1      -8.598   0.088  35.337  0.00  0.00    +0.072 A 
ATOM      6  C   UNL A   1      -9.381   0.973  34.751  0.00  0.00    +0.009 A 
ENDROOT
BRANCH   3   7
ATOM      7  C   UNL A   1     -10.825  -1.027  38.151  0.00  0.00    +0.000 A 
ATOM      8  C   UNL A   1     -11.740  -1.683  38.354  0.00  0.00    +0.000 A 
ATOM      9  C   UNL A   1     -12.081  -2.419  39.585  0.00  0.00    +0.000 A 
ATOM     10  C   UNL A   1     -11.219  -2.260  40.692  0.00  0.00    +0.005 A 
ATOM     11  C   UNL A   1     -10.131  -1.377  40.510  0.00  0.00    +0.057 A 
ATOM     12  C   UNL A   1      -9.829  -0.773  39.291  0.00  0.00    +0.005 A 
BRANCH  11  13
ATOM     13  C   UNL A   1      -9.209  -1.239  41.670  0.00  0.00    +0.284 C 
ATOM     14  N   UNL A   1      -8.779  -2.408  42.249  0.00  0.00    -0.084 NA
ATOM     15  O   UNL A   1      -8.707  -0.171  41.995  0.00  0.00    -0.267 OA
ENDBRANCH  11  13
ENDBRANCH   3   7
BRANCH   5  16
ATOM     16  C   UNL A   1      -7.254  -0.260  34.829  0.00  0.00    +0.419 C 
ATOM     17  F   UNL A   1      -6.455  -0.489  35.683  0.00  0.00    -0.166 F 
ATOM     18  F   UNL A   1      -6.806   0.859  34.128  0.00  0.00    -0.166 F 
ATOM     19  F   UNL A   1      -7.308  -1.255  33.918  0.00  0.00    -0.166 F 
ENDBRANCH   5  16
BRANCH   1  20
ATOM     20  C   UNL A   1     -11.686   2.129  34.560  0.00  0.00    +0.275 C 
ATOM     21  O   UNL A   1     -11.258   3.242  34.370  0.00  0.00    -0.266 OA
ATOM     22  N   UNL A   1     -13.001   1.882  34.591  0.00  0.00    -0.234 NA
BRANCH  22  23
ATOM     23  C   UNL A   1     -13.934   2.916  34.155  0.00  0.00    +0.134 C 
BRANCH  23  24
ATOM     24  C   UNL A   1     -14.654   3.374  35.443  0.00  0.00    +0.052 C 
BRANCH  24  25
ATOM     25  C   UNL A   1     -14.050   3.635  36.480  0.00  0.00    -0.024 C 
ATOM     26  C   UNL A   1     -14.287   2.646  37.513  0.00  0.00    -0.005 C 
BRANCH  26  27
ATOM     27  C   UNL A   1     -13.420   2.760  38.665  0.00  0.00    -0.005 C 
ATOM     28  C   UNL A   1     -12.644   2.050  39.016  0.00  0.00    -0.026 C 
BRANCH  28  29
ATOM     29  C   UNL A   1     -11.926   2.172  40.332  0.00  0.00    +0.026 C 
ATOM     30  C   UNL A   1     -12.265   1.427  41.412  0.00  0.00    +0.005 C 
ENDBRANCH  28  29
ENDBRANCH  26  27
ENDBRANCH  24  25
ENDBRANCH  23  24
ENDBRANCH  22  23
ENDBRANCH   1  20
TORSDOF 9
ENDMDL
ENDMDL
