REMARK  Name = No_4911-gen_results/8p0m/2024-11-26-14-13-15/
REMARK  9 active torsions:
REMARK  status: ('A' for Active; 'I' for Inactive)
REMARK    1  A    between atoms: C_1  and  C_20
REMARK    2  A    between atoms: C_3  and  C_11
REMARK    3  A    between atoms: C_5  and  C_7
REMARK    4  A    between atoms: C_15  and  C_17
REMARK    5  A    between atoms: N_22  and  C_23
REMARK    6  A    between atoms: C_23  and  C_24
REMARK    7  A    between atoms: C_24  and  C_25
REMARK    8  A    between atoms: C_26  and  C_27
REMARK    9  A    between atoms: C_28  and  C_29
REMARK                            x       y       z     vdW  Elec       q    Type
REMARK                         _______ _______ _______ _____ _____    ______ ____
ROOT
ATOM      1  C   UNL A   1     -28.016  -0.814  28.878  0.00  0.00    +0.058 A 
ATOM      2  C   UNL A   1     -27.064  -0.119  28.608  0.00  0.00    +0.005 A 
ATOM      3  C   UNL A   1     -27.001   0.691  27.491  0.00  0.00    +0.000 A 
ATOM      4  C   UNL A   1     -28.137   0.736  26.635  0.00  0.00    +0.004 A 
ATOM      5  C   UNL A   1     -29.236   0.076  27.069  0.00  0.00    +0.072 A 
ATOM      6  C   UNL A   1     -29.218  -0.643  28.175  0.00  0.00    +0.009 A 
ENDROOT
BRANCH   3   7
ATOM      7  C   UNL A   1     -25.723   1.409  27.073  0.00  0.00    +0.000 A 
ATOM      8  C   UNL A   1     -25.479   2.275  26.366  0.00  0.00    +0.000 A 
ATOM      9  C   UNL A   1     -24.175   2.920  26.128  0.00  0.00    +0.000 A 
ATOM     10  C   UNL A   1     -23.055   2.379  26.797  0.00  0.00    +0.005 A 
ATOM     11  C   UNL A   1     -23.302   1.245  27.603  0.00  0.00    +0.057 A 
ATOM     12  C   UNL A   1     -24.577   0.735  27.839  0.00  0.00    +0.005 A 
BRANCH  11  13
ATOM     13  C   UNL A   1     -22.123   0.699  28.329  0.00  0.00    +0.284 C 
ATOM     14  N   UNL A   1     -22.307  -0.498  28.977  0.00  0.00    -0.084 NA
ATOM     15  O   UNL A   1     -21.000   1.173  28.222  0.00  0.00    -0.267 OA
ENDBRANCH  11  13
ENDBRANCH   3   7
BRANCH   5  16
ATOM     16  C   UNL A   1     -30.415   0.159  26.182  0.00  0.00    +0.419 C 
ATOM     17  F   UNL A   1     -30.930   1.234  26.156  0.00  0.00    -0.166 F 
ATOM     18  F   UNL A   1     -31.349  -0.738  26.698  0.00  0.00    -0.166 F 
ATOM     19  F   UNL A   1     -30.137  -0.289  24.939  0.00  0.00    -0.166 F 
ENDBRANCH   5  16
BRANCH   1  20
ATOM     20  C   UNL A   1     -27.902  -1.636  30.167  0.00  0.00    +0.275 C 
ATOM     21  O   UNL A   1     -27.107  -2.545  30.146  0.00  0.00    -0.266 OA
ATOM     22  N   UNL A   1     -28.878  -1.583  31.081  0.00  0.00    -0.234 NA
BRANCH  22  23
ATOM     23  C   UNL A   1     -28.846  -2.499  32.216  0.00  0.00    +0.134 C 
BRANCH  23  24
ATOM     24  C   UNL A   1     -29.762  -3.674  31.807  0.00  0.00    +0.052 C 
BRANCH  24  25
ATOM     25  C   UNL A   1     -29.923  -4.010  30.636  0.00  0.00    -0.024 C 
ATOM     26  C   UNL A   1     -31.323  -4.200  30.311  0.00  0.00    -0.005 C 
BRANCH  26  27
ATOM     27  C   UNL A   1     -31.596  -4.354  28.899  0.00  0.00    -0.005 C 
ATOM     28  C   UNL A   1     -32.247  -5.102  28.401  0.00  0.00    -0.026 C 
BRANCH  28  29
ATOM     29  C   UNL A   1     -32.316  -5.296  26.911  0.00  0.00    +0.026 C 
ATOM     30  C   UNL A   1     -33.057  -6.279  26.344  0.00  0.00    +0.005 C 
ENDBRANCH  28  29
ENDBRANCH  26  27
ENDBRANCH  24  25
ENDBRANCH  23  24
ENDBRANCH  22  23
ENDBRANCH   1  20
TORSDOF 9
