MODEL 4912
MODEL 1
REMARK VINA RESULT:    -5.316      0.000      0.000
REMARK INTER + INTRA:          -5.705
REMARK INTER:                  -5.627
REMARK INTRA:                  -0.078
REMARK UNBOUND:                -0.078
REMARK  Name = No_4912-gen_results/8p0m/2024-11-26-14-13-15/
REMARK  1 active torsions:
REMARK  status: ('A' for Active; 'I' for Inactive)
REMARK    1  A    between atoms: C_2  and  C_5
REMARK                            x       y       z     vdW  Elec       q    Type
REMARK                         _______ _______ _______ _____ _____    ______ ____
ROOT
ATOM      1  C   UNL A   1     -23.922  -3.838  28.751  0.00  0.00    +0.005 A 
ATOM      2  C   UNL A   1     -24.340  -2.929  29.082  0.00  0.00    +0.055 A 
ATOM      3  C   UNL A   1     -24.783  -4.997  28.985  0.00  0.00    +0.000 A 
ATOM      4  C   UNL A   1     -26.022  -4.882  29.564  0.00  0.00    +0.000 A 
ATOM      5  C   UNL A   1     -26.450  -3.591  29.924  0.00  0.00    +0.000 A 
ATOM      6  C   UNL A   1     -25.623  -2.502  29.642  0.00  0.00    +0.005 A 
ENDROOT
BRANCH   2   7
ATOM      7  C   UNL A   1     -23.506  -1.635  28.836  0.00  0.00    +0.265 C 
ATOM      8  N   UNL A   1     -22.499  -1.527  29.210  0.00  0.00    -0.200 NA
ATOM      9  O   UNL A   1     -24.100  -0.675  28.100  0.00  0.00    -0.268 OA
ATOM     10  C   UNL A   1     -21.569  -0.406  28.887  0.00  0.00    +0.139 C 
ENDBRANCH   2   7
TORSDOF 1
ENDMDL
ENDMDL
