REMARK  Name = No_4913-gen_results/8p0m/2024-11-26-14-13-15/
REMARK  3 active torsions:
REMARK  status: ('A' for Active; 'I' for Inactive)
REMARK    1  A    between atoms: C_2  and  C_8
REMARK    2  A    between atoms: C_8  and  C_10
REMARK    3  A    between atoms: C_11  and  C_12
REMARK                            x       y       z     vdW  Elec       q    Type
REMARK                         _______ _______ _______ _____ _____    ______ ____
ROOT
ATOM      1  C   UNL A   1     -28.016  -0.814  28.878  0.00  0.00    +0.011 C 
ATOM      2  C   UNL A   1     -27.064  -0.119  28.608  0.00  0.00    +0.042 C 
ATOM      3  C   UNL A   1     -25.792  -0.430  29.076  0.00  0.00    -0.025 C 
ATOM      4  C   UNL A   1     -25.270  -0.049  30.012  0.00  0.00    -0.005 C 
ATOM      5  C   UNL A   1     -28.519  -0.630  30.092  0.00  0.00    +0.026 C 
ATOM      6  C   UNL A   1     -27.930  -0.145  30.992  0.00  0.00    -0.026 C 
ATOM      7  C   UNL A   1     -26.410  -0.088  31.388  0.00  0.00    -0.005 C 
ENDROOT
BRANCH   2   8
ATOM      8  C   UNL A   1     -26.961   0.726  27.363  0.00  0.00    +0.106 C 
ATOM      9 CL   UNL A   1     -25.895   0.809  26.162  0.00  0.00    -0.110 Cl
BRANCH   8  10
ATOM     10  C   UNL A   1     -28.078   1.712  27.118  0.00  0.00    -0.010 C 
ATOM     11  C   UNL A   1     -28.041   2.748  27.787  0.00  0.00    -0.004 C 
BRANCH  11  12
ATOM     12  C   UNL A   1     -28.436   3.686  27.997  0.00  0.00    -0.005 C 
ATOM     13  C   UNL A   1     -29.650   4.233  27.535  0.00  0.00    -0.026 C 
ATOM     14  C   UNL A   1     -30.088   3.231  26.497  0.00  0.00    +0.031 C 
ENDBRANCH  11  12
ENDBRANCH   8  10
ENDBRANCH   2   8
TORSDOF 3
