MODEL 4913
MODEL 1
REMARK VINA RESULT:    -6.134      0.000      0.000
REMARK INTER + INTRA:          -7.931
REMARK INTER:                  -7.210
REMARK INTRA:                  -0.720
REMARK UNBOUND:                -0.720
REMARK  Name = No_4913-gen_results/8p0m/2024-11-26-14-13-15/
REMARK  3 active torsions:
REMARK  status: ('A' for Active; 'I' for Inactive)
REMARK    1  A    between atoms: C_2  and  C_8
REMARK    2  A    between atoms: C_8  and  C_10
REMARK    3  A    between atoms: C_11  and  C_12
REMARK                            x       y       z     vdW  Elec       q    Type
REMARK                         _______ _______ _______ _____ _____    ______ ____
ROOT
ATOM      1  C   UNL A   1     -25.491  -0.078  26.541  0.00  0.00    +0.011 C 
ATOM      2  C   UNL A   1     -24.647   0.086  27.391  0.00  0.00    +0.042 C 
ATOM      3  C   UNL A   1     -24.349   1.356  27.872  0.00  0.00    -0.025 C 
ATOM      4  C   UNL A   1     -23.536   2.072  27.524  0.00  0.00    -0.005 C 
ATOM      5  C   UNL A   1     -25.103   0.199  25.302  0.00  0.00    +0.026 C 
ATOM      6  C   UNL A   1     -24.186   0.890  25.029  0.00  0.00    -0.026 C 
ATOM      7  C   UNL A   1     -23.504   2.116  25.738  0.00  0.00    -0.005 C 
ENDROOT
BRANCH   2   8
ATOM      8  C   UNL A   1     -24.266  -0.953  28.415  0.00  0.00    +0.106 C 
ATOM      9 CL   UNL A   1     -22.860  -1.498  28.975  0.00  0.00    -0.110 Cl
BRANCH   8  10
ATOM     10  C   UNL A   1     -25.400  -1.658  29.120  0.00  0.00    -0.010 C 
ATOM     11  C   UNL A   1     -25.360  -2.891  29.110  0.00  0.00    -0.004 C 
BRANCH  11  12
ATOM     12  C   UNL A   1     -25.762  -3.797  29.423  0.00  0.00    -0.005 C 
ATOM     13  C   UNL A   1     -25.194  -5.081  29.298  0.00  0.00    -0.026 C 
ATOM     14  C   UNL A   1     -24.009  -4.830  28.400  0.00  0.00    +0.031 C 
ENDBRANCH  11  12
ENDBRANCH   8  10
ENDBRANCH   2   8
TORSDOF 3
ENDMDL
ENDMDL
