REMARK  Name = No_4914-gen_results/8p0m/2024-11-26-14-13-15/
REMARK  3 active torsions:
REMARK  status: ('A' for Active; 'I' for Inactive)
REMARK    1  A    between atoms: C_1  and  C_2
REMARK    2  A    between atoms: C_4  and  C_15
REMARK    3  A    between atoms: C_5  and  C_10
REMARK                            x       y       z     vdW  Elec       q    Type
REMARK                         _______ _______ _______ _____ _____    ______ ____
ROOT
ATOM      1  C   UNL A   1     -27.064  -0.119  28.608  0.00  0.00    +0.071 A 
ATOM      2  C   UNL A   1     -25.765  -0.390  29.036  0.00  0.00    +0.142 A 
ATOM      3  C   UNL A   1     -24.552   0.406  28.765  0.00  0.00    +0.035 A 
ATOM      4  C   UNL A   1     -24.696   1.448  27.799  0.00  0.00    +0.054 A 
ATOM      5  C   UNL A   1     -26.001   1.678  27.297  0.00  0.00    +0.038 A 
ATOM      6  C   UNL A   1     -27.074   0.968  27.650  0.00  0.00    +0.010 A 
ATOM      7  F   UNL A   1     -25.482  -1.346  29.913  0.00  0.00    -0.204 F 
ATOM      8 BR   UNL A   1     -26.139   3.102  26.035  0.00  0.00    -0.049 Br
ENDROOT
BRANCH   3   9
ATOM      9  C   UNL A   1     -23.270   0.047  29.334  0.00  0.00    +0.052 A 
ATOM     10  C   UNL A   1     -22.591  -1.059  28.912  0.00  0.00    +0.124 A 
ATOM     11  C   UNL A   1     -22.862   0.821  30.418  0.00  0.00    +0.163 A 
ATOM     12  N   UNL A   1     -21.345  -1.232  29.475  0.00  0.00    -0.146 NA
ATOM     13  F   UNL A   1     -23.593   1.877  30.767  0.00  0.00    -0.202 F 
ATOM     14  C   UNL A   1     -22.302   0.063  31.268  0.00  0.00    +0.152 A 
ATOM     15  N   UNL A   1     -21.392  -0.904  30.767  0.00  0.00    -0.144 NA
ENDBRANCH   3   9
BRANCH   1  16
ATOM     16  C   UNL A   1     -28.016  -0.814  28.878  0.00  0.00    +0.343 C 
ATOM     17  F   UNL A   1     -29.023  -0.574  28.232  0.00  0.00    -0.193 F 
ATOM     18  F   UNL A   1     -28.334  -0.663  30.272  0.00  0.00    -0.193 F 
ENDBRANCH   1  16
BRANCH   4  19
ATOM     19  C   UNL A   1     -23.506   2.201  27.476  0.00  0.00    +0.230 C 
ATOM     20 BR   UNL A   1     -22.166   1.221  26.663  0.00  0.00    -0.003 Br
ATOM     21  O   UNL A   1     -23.501   3.448  27.472  0.00  0.00    -0.279 OA
ENDBRANCH   4  19
TORSDOF 3
