MODEL 4914
MODEL 1
REMARK VINA RESULT:    -6.679      0.000      0.000
REMARK INTER + INTRA:          -8.687
REMARK INTER:                  -7.850
REMARK INTRA:                  -0.837
REMARK UNBOUND:                -0.837
REMARK  Name = No_4914-gen_results/8p0m/2024-11-26-14-13-15/
REMARK  3 active torsions:
REMARK  status: ('A' for Active; 'I' for Inactive)
REMARK    1  A    between atoms: C_1  and  C_2
REMARK    2  A    between atoms: C_4  and  C_15
REMARK    3  A    between atoms: C_5  and  C_10
REMARK                            x       y       z     vdW  Elec       q    Type
REMARK                         _______ _______ _______ _____ _____    ______ ____
ROOT
ATOM      1  C   UNL A   1     -24.903  -4.324  29.219  0.00  0.00    +0.071 A 
ATOM      2  C   UNL A   1     -24.558  -2.975  29.294  0.00  0.00    +0.142 A 
ATOM      3  C   UNL A   1     -25.333  -1.890  29.928  0.00  0.00    +0.035 A 
ATOM      4  C   UNL A   1     -26.662  -2.227  30.326  0.00  0.00    +0.054 A 
ATOM      5  C   UNL A   1     -27.049  -3.582  30.178  0.00  0.00    +0.038 A 
ATOM      6  C   UNL A   1     -26.264  -4.533  29.670  0.00  0.00    +0.010 A 
ATOM      7  F   UNL A   1     -23.365  -2.517  28.934  0.00  0.00    -0.204 F 
ATOM      8 BR   UNL A   1     -28.823  -3.981  30.757  0.00  0.00    -0.049 Br
ENDROOT
BRANCH   3   9
ATOM      9  C   UNL A   1     -24.822  -0.537  29.997  0.00  0.00    +0.052 A 
ATOM     10  C   UNL A   1     -24.958   0.327  28.950  0.00  0.00    +0.124 A 
ATOM     11  C   UNL A   1     -24.073  -0.241  31.133  0.00  0.00    +0.163 A 
ATOM     12  N   UNL A   1     -24.505   1.607  29.184  0.00  0.00    -0.146 NA
ATOM     13  F   UNL A   1     -23.984  -1.150  32.101  0.00  0.00    -0.202 F 
ATOM     14  C   UNL A   1     -23.098   0.497  30.794  0.00  0.00    +0.152 A 
ATOM     15  N   UNL A   1     -23.376   1.556  29.892  0.00  0.00    -0.144 NA
ENDBRANCH   3   9
BRANCH   1  16
ATOM     16  C   UNL A   1     -24.211  -5.163  28.690  0.00  0.00    +0.343 C 
ATOM     17  F   UNL A   1     -23.780  -4.851  27.592  0.00  0.00    -0.193 F 
ATOM     18  F   UNL A   1     -24.965  -6.378  28.545  0.00  0.00    -0.193 F 
ENDBRANCH   1  16
BRANCH   4  19
ATOM     19  C   UNL A   1     -27.457  -1.164  30.895  0.00  0.00    +0.230 C 
ATOM     20 BR   UNL A   1     -28.634  -0.361  29.717  0.00  0.00    -0.003 Br
ATOM     21  O   UNL A   1     -27.555  -1.006  32.128  0.00  0.00    -0.279 OA
ENDBRANCH   4  19
TORSDOF 3
ENDMDL
ENDMDL
