MODEL 4915
MODEL 1
REMARK VINA RESULT:    -6.546      0.000      0.000
REMARK INTER + INTRA:          -7.439
REMARK INTER:                  -7.311
REMARK INTRA:                  -0.127
REMARK UNBOUND:                -0.127
REMARK  Name = No_4915-gen_results/8p0m/2024-11-26-14-13-15/
REMARK  2 active torsions:
REMARK  status: ('A' for Active; 'I' for Inactive)
REMARK    1  A    between atoms: C_2  and  C_14
REMARK    2  A    between atoms: C_9  and  C_11
REMARK                            x       y       z     vdW  Elec       q    Type
REMARK                         _______ _______ _______ _____ _____    ______ ____
ROOT
ATOM      1  C   UNL A   1     -30.937  -9.627  29.280  0.00  0.00    +0.007 A 
ATOM      2  C   UNL A   1     -30.967 -10.124  28.351  0.00  0.00    +0.080 A 
ATOM      3  C   UNL A   1     -29.976 -10.205  30.295  0.00  0.00    +0.000 A 
ATOM      4  C   UNL A   1     -29.851  -9.807  31.675  0.00  0.00    +0.000 A 
ATOM      5  C   UNL A   1     -30.097 -11.147  27.758  0.00  0.00    +0.007 A 
ATOM      6  C   UNL A   1     -29.173 -11.704  28.617  0.00  0.00    +0.000 A 
ATOM      7  C   UNL A   1     -29.053 -11.239  29.901  0.00  0.00    +0.000 A 
ATOM      8  C   UNL A   1     -29.237 -10.652  32.617  0.00  0.00    +0.005 A 
ATOM      9  C   UNL A   1     -28.304 -11.612  32.155  0.00  0.00    +0.057 A 
ATOM     10  C   UNL A   1     -28.276 -11.969  30.875  0.00  0.00    +0.005 A 
ENDROOT
BRANCH   9  11
ATOM     11  C   UNL A   1     -27.523 -12.350  33.189  0.00  0.00    +0.284 C 
ATOM     12  N   UNL A   1     -27.582 -12.150  34.461  0.00  0.00    -0.084 NA
ATOM     13  O   UNL A   1     -26.418 -12.929  32.763  0.00  0.00    -0.267 OA
ENDBRANCH   9  11
BRANCH   2  14
ATOM     14  C   UNL A   1     -31.923  -9.489  27.234  0.00  0.00    +0.388 C 
ATOM     15  O   UNL A   1     -31.724  -8.236  26.901  0.00  0.00    -0.241 OA
ATOM     16  O   UNL A   1     -32.697 -10.186  26.630  0.00  0.00    -0.241 OA
ENDBRANCH   2  14
TORSDOF 2
ENDMDL
ENDMDL
