REMARK  Name = No_4915-gen_results/8p0m/2024-11-26-14-13-15/
REMARK  2 active torsions:
REMARK  status: ('A' for Active; 'I' for Inactive)
REMARK    1  A    between atoms: C_2  and  C_14
REMARK    2  A    between atoms: C_9  and  C_11
REMARK                            x       y       z     vdW  Elec       q    Type
REMARK                         _______ _______ _______ _____ _____    ______ ____
ROOT
ATOM      1  C   UNL A   1     -28.016  -0.814  28.878  0.00  0.00    +0.007 A 
ATOM      2  C   UNL A   1     -28.469  -0.785  29.829  0.00  0.00    +0.080 A 
ATOM      3  C   UNL A   1     -26.504  -0.778  28.877  0.00  0.00    +0.000 A 
ATOM      4  C   UNL A   1     -25.654  -0.660  27.719  0.00  0.00    +0.000 A 
ATOM      5  C   UNL A   1     -27.918  -0.937  31.182  0.00  0.00    +0.007 A 
ATOM      6  C   UNL A   1     -26.542  -0.940  31.261  0.00  0.00    +0.000 A 
ATOM      7  C   UNL A   1     -25.783  -0.893  30.120  0.00  0.00    +0.000 A 
ATOM      8  C   UNL A   1     -24.318  -0.237  27.844  0.00  0.00    +0.005 A 
ATOM      9  C   UNL A   1     -23.663  -0.428  29.085  0.00  0.00    +0.057 A 
ATOM     10  C   UNL A   1     -24.362  -0.646  30.194  0.00  0.00    +0.005 A 
ENDROOT
BRANCH   9  11
ATOM     11  C   UNL A   1     -22.197  -0.159  29.126  0.00  0.00    +0.284 C 
ATOM     12  N   UNL A   1     -21.618   0.918  28.718  0.00  0.00    -0.084 NA
ATOM     13  O   UNL A   1     -21.423  -1.225  29.181  0.00  0.00    -0.267 OA
ENDBRANCH   9  11
BRANCH   2  14
ATOM     14  C   UNL A   1     -30.066  -0.895  29.862  0.00  0.00    +0.388 C 
ATOM     15  O   UNL A   1     -30.717  -0.090  30.668  0.00  0.00    -0.241 OA
ATOM     16  O   UNL A   1     -30.643  -1.596  29.071  0.00  0.00    -0.241 OA
ENDBRANCH   2  14
TORSDOF 2
