MODEL 4916
MODEL 1
REMARK VINA RESULT:    -8.410      0.000      0.000
REMARK INTER + INTRA:         -12.936
REMARK INTER:                 -11.851
REMARK INTRA:                  -1.085
REMARK UNBOUND:                -1.085
REMARK  Name = No_4916-gen_results/8p0m/2024-11-26-14-13-15/
REMARK  7 active torsions:
REMARK  status: ('A' for Active; 'I' for Inactive)
REMARK    1  A    between atoms: C_1  and  C_2
REMARK    2  A    between atoms: N_8  and  C_10
REMARK    3  A    between atoms: C_17  and  C_20
REMARK    4  A    between atoms: C_20  and  O_22
REMARK    5  A    between atoms: O_22  and  C_28
REMARK    6  A    between atoms: C_28  and  C_29
REMARK    7  A    between atoms: C_29  and  C_30
REMARK                            x       y       z     vdW  Elec       q    Type
REMARK                         _______ _______ _______ _____ _____    ______ ____
ROOT
ATOM      1  C   UNL A   1     -26.932   1.468  25.213  0.00  0.00    +0.269 C 
ATOM      2  N   UNL A   1     -26.232   2.648  25.567  0.00  0.00    -0.175 NA
ATOM      3  O   UNL A   1     -26.531   0.441  25.833  0.00  0.00    -0.268 OA
ENDROOT
BRANCH   1   4
ATOM      4  C   UNL A   1     -28.004   1.528  24.657  0.00  0.00    +0.055 A 
ATOM      5  C   UNL A   1     -28.975   0.553  24.862  0.00  0.00    +0.000 A 
ATOM      6  C   UNL A   1     -30.325   0.509  24.231  0.00  0.00    -0.020 A 
ATOM      7  C   UNL A   1     -30.696   1.657  23.470  0.00  0.00    -0.026 A 
ATOM      8  C   UNL A   1     -29.718   2.661  23.324  0.00  0.00    -0.004 A 
ATOM      9  C   UNL A   1     -28.496   2.619  23.876  0.00  0.00    +0.004 A 
ATOM     10  C   UNL A   1     -32.009   1.654  22.878  0.00  0.00    +0.026 C 
ATOM     11  C   UNL A   1     -33.097   1.453  23.709  0.00  0.00    +0.069 C 
ATOM     12  C   UNL A   1     -32.112   0.960  21.693  0.00  0.00    +0.005 C 
ATOM     13  C   UNL A   1     -32.185   3.184  22.298  0.00  0.00    +0.005 C 
ATOM     14  C   UNL A   1     -31.234  -0.592  24.484  0.00  0.00    +0.070 C 
ATOM     15  C   UNL A   1     -30.857  -1.743  24.019  0.00  0.00    +0.012 C 
ATOM     16  C   UNL A   1     -32.596  -0.207  24.107  0.00  0.00    +0.154 C 
ATOM     17  C   UNL A   1     -31.348  -0.725  26.070  0.00  0.00    +0.012 C 
ATOM     18  O   UNL A   1     -33.666  -0.959  24.363  0.00  0.00    -0.296 OA
ENDBRANCH   1   4
BRANCH   2  19
ATOM     19  C   UNL A   1     -24.994   2.733  26.333  0.00  0.00    +0.074 A 
ATOM     20  C   UNL A   1     -23.829   2.596  25.561  0.00  0.00    +0.017 A 
ATOM     21  C   UNL A   1     -22.733   1.910  26.230  0.00  0.00    +0.008 A 
ATOM     22  C   UNL A   1     -22.893   1.512  27.508  0.00  0.00    +0.076 A 
ATOM     23  C   UNL A   1     -24.069   1.662  28.195  0.00  0.00    +0.008 A 
ATOM     24  C   UNL A   1     -25.047   2.937  27.652  0.00  0.00    +0.017 A 
BRANCH  22  25
ATOM     25  C   UNL A   1     -21.735   0.896  28.118  0.00  0.00    +0.341 C 
ATOM     26  O   UNL A   1     -20.643   1.021  27.994  0.00  0.00    -0.245 OA
BRANCH  25  27
ATOM     27  O   UNL A   1     -22.019   0.084  29.212  0.00  0.00    -0.445 OA
BRANCH  27  28
ATOM     28  C   UNL A   1     -22.418  -1.149  29.158  0.00  0.00    +0.215 C 
BRANCH  28  29
ATOM     29  C   UNL A   1     -23.502  -1.557  30.026  0.00  0.00    +0.093 C 
BRANCH  29  30
ATOM     30  C   UNL A   1     -24.255  -2.575  29.564  0.00  0.00    +0.063 A 
ATOM     31  N   UNL A   1     -23.709  -3.467  28.807  0.00  0.00    -0.248 NA
ATOM     32  C   UNL A   1     -24.058  -4.686  28.735  0.00  0.00    +0.098 A 
ATOM     33  C   UNL A   1     -25.428  -5.016  29.051  0.00  0.00    +0.021 A 
ATOM     34  C   UNL A   1     -26.166  -4.000  29.715  0.00  0.00    +0.003 A 
ATOM     35  C   UNL A   1     -25.511  -2.820  30.032  0.00  0.00    +0.015 A 
ENDBRANCH  29  30
ENDBRANCH  28  29
ENDBRANCH  27  28
ENDBRANCH  25  27
ENDBRANCH  22  25
ENDBRANCH   2  19
TORSDOF 7
ENDMDL
ENDMDL
