REMARK  Name = No_4916-gen_results/8p0m/2024-11-26-14-13-15/
REMARK  7 active torsions:
REMARK  status: ('A' for Active; 'I' for Inactive)
REMARK    1  A    between atoms: C_1  and  C_2
REMARK    2  A    between atoms: N_8  and  C_10
REMARK    3  A    between atoms: C_17  and  C_20
REMARK    4  A    between atoms: C_20  and  O_22
REMARK    5  A    between atoms: O_22  and  C_28
REMARK    6  A    between atoms: C_28  and  C_29
REMARK    7  A    between atoms: C_29  and  C_30
REMARK                            x       y       z     vdW  Elec       q    Type
REMARK                         _______ _______ _______ _____ _____    ______ ____
ROOT
ATOM      1  C   UNL A   1     -28.016  -0.814  28.878  0.00  0.00    +0.269 C 
ATOM      2  N   UNL A   1     -27.952  -1.752  29.938  0.00  0.00    -0.175 NA
ATOM      3  O   UNL A   1     -29.198  -0.534  28.526  0.00  0.00    -0.268 OA
ENDROOT
BRANCH   1   4
ATOM      4  C   UNL A   1     -27.064  -0.119  28.608  0.00  0.00    +0.055 A 
ATOM      5  C   UNL A   1     -25.792  -0.430  29.076  0.00  0.00    +0.000 A 
ATOM      6  C   UNL A   1     -24.546   0.349  28.823  0.00  0.00    -0.020 A 
ATOM      7  C   UNL A   1     -24.659   1.420  27.888  0.00  0.00    -0.026 A 
ATOM      8  C   UNL A   1     -25.947   1.681  27.379  0.00  0.00    -0.004 A 
ATOM      9  C   UNL A   1     -27.044   0.974  27.687  0.00  0.00    +0.004 A 
ATOM     10  C   UNL A   1     -23.461   2.167  27.599  0.00  0.00    +0.026 C 
ATOM     11  C   UNL A   1     -22.351   1.470  27.157  0.00  0.00    +0.069 C 
ATOM     12  C   UNL A   1     -23.144   3.139  28.522  0.00  0.00    +0.005 C 
ATOM     13  C   UNL A   1     -23.893   3.135  26.340  0.00  0.00    +0.005 C 
ATOM     14  C   UNL A   1     -23.282  -0.049  29.412  0.00  0.00    +0.070 C 
ATOM     15  C   UNL A   1     -23.214   0.052  30.703  0.00  0.00    +0.012 C 
ATOM     16  C   UNL A   1     -22.178   0.597  28.698  0.00  0.00    +0.154 C 
ATOM     17  C   UNL A   1     -23.074  -1.585  29.035  0.00  0.00    +0.012 C 
ATOM     18  O   UNL A   1     -20.895   0.308  28.919  0.00  0.00    -0.296 OA
ENDBRANCH   1   4
BRANCH   2  19
ATOM     19  C   UNL A   1     -29.045  -2.572  30.446  0.00  0.00    +0.074 A 
ATOM     20  C   UNL A   1     -28.796  -3.954  30.404  0.00  0.00    +0.017 A 
ATOM     21  C   UNL A   1     -29.966  -4.774  30.126  0.00  0.00    +0.008 A 
ATOM     22  C   UNL A   1     -31.165  -4.177  29.980  0.00  0.00    +0.076 A 
ATOM     23  C   UNL A   1     -31.331  -2.817  30.015  0.00  0.00    +0.008 A 
ATOM     24  C   UNL A   1     -30.152  -1.984  30.906  0.00  0.00    +0.017 A 
BRANCH  22  25
ATOM     25  C   UNL A   1     -32.284  -5.069  29.770  0.00  0.00    +0.341 C 
ATOM     26  O   UNL A   1     -32.380  -6.161  29.622  0.00  0.00    -0.245 OA
BRANCH  25  27
ATOM     27  O   UNL A   1     -33.534  -4.482  29.947  0.00  0.00    -0.445 OA
BRANCH  27  28
ATOM     28  C   UNL A   1     -34.662  -4.957  29.517  0.00  0.00    +0.215 C 
BRANCH  28  29
ATOM     29  C   UNL A   1     -35.582  -4.050  28.864  0.00  0.00    +0.093 C 
BRANCH  29  30
ATOM     30  C   UNL A   1     -35.424  -2.748  29.176  0.00  0.00    +0.063 A 
ATOM     31  N   UNL A   1     -35.743  -2.344  30.360  0.00  0.00    -0.248 NA
ATOM     32  C   UNL A   1     -35.199  -1.377  30.979  0.00  0.00    +0.098 A 
ATOM     33  C   UNL A   1     -34.602  -0.322  30.194  0.00  0.00    +0.021 A 
ATOM     34  C   UNL A   1     -34.400  -0.621  28.820  0.00  0.00    +0.003 A 
ATOM     35  C   UNL A   1     -34.747  -1.884  28.369  0.00  0.00    +0.015 A 
ENDBRANCH  29  30
ENDBRANCH  28  29
ENDBRANCH  27  28
ENDBRANCH  25  27
ENDBRANCH  22  25
ENDBRANCH   2  19
TORSDOF 7
