MODEL 4917
MODEL 1
REMARK VINA RESULT:    -6.168      0.000      0.000
REMARK INTER + INTRA:          -7.261
REMARK INTER:                  -6.889
REMARK INTRA:                  -0.371
REMARK UNBOUND:                -0.371
REMARK  Name = No_4917-gen_results/8p0m/2024-11-26-14-13-15/
REMARK  2 active torsions:
REMARK  status: ('A' for Active; 'I' for Inactive)
REMARK    1  A    between atoms: C_2  and  O_7
REMARK    2  A    between atoms: O_7  and  C_8
REMARK                            x       y       z     vdW  Elec       q    Type
REMARK                         _______ _______ _______ _____ _____    ______ ____
ROOT
ATOM      1  O   UNL A   1     -24.436  -1.290  29.701  0.00  0.00    -0.454 OA
ENDROOT
BRANCH   1   3
ATOM      2  C   UNL A   1     -23.868  -3.318  28.836  0.00  0.00    +0.037 A 
ATOM      3  C   UNL A   1     -24.680  -2.639  29.422  0.00  0.00    +0.145 A 
ATOM      4  C   UNL A   1     -25.872  -3.104  29.874  0.00  0.00    +0.037 A 
ATOM      5  C   UNL A   1     -26.190  -4.457  29.651  0.00  0.00    +0.003 A 
ATOM      6  C   UNL A   1     -24.086  -4.731  28.658  0.00  0.00    +0.003 A 
ATOM      7  C   UNL A   1     -25.281  -5.241  29.068  0.00  0.00    +0.000 A 
ENDBRANCH   1   3
BRANCH   1   8
ATOM      8  C   UNL A   1     -23.985  -0.397  28.661  0.00  0.00    +0.145 A 
ATOM      9  C   UNL A   1     -24.824  -0.061  27.623  0.00  0.00    +0.037 A 
ATOM     10  C   UNL A   1     -24.358   0.813  26.672  0.00  0.00    +0.003 A 
ATOM     11  C   UNL A   1     -22.872   0.445  28.798  0.00  0.00    +0.037 A 
ATOM     12  C   UNL A   1     -22.359   1.245  27.881  0.00  0.00    +0.003 A 
ATOM     13  C   UNL A   1     -23.142   1.524  26.768  0.00  0.00    +0.000 A 
ENDBRANCH   1   8
TORSDOF 2
ENDMDL
ENDMDL
