MODEL 4918
MODEL 1
REMARK VINA RESULT:    -6.478      0.000      0.000
REMARK INTER + INTRA:          -7.210
REMARK INTER:                  -6.857
REMARK INTRA:                  -0.352
REMARK UNBOUND:                -0.352
REMARK  Name = No_4918-gen_results/8p0m/2024-11-26-14-13-15/
REMARK  1 active torsions:
REMARK  status: ('A' for Active; 'I' for Inactive)
REMARK    1  A    between atoms: C_4  and  C_7
REMARK                            x       y       z     vdW  Elec       q    Type
REMARK                         _______ _______ _______ _____ _____    ______ ____
ROOT
ATOM      1  C   UNL A   1     -26.321  -4.448  29.731  0.00  0.00    +0.000 A 
ATOM      2  C   UNL A   1     -25.605  -5.153  29.412  0.00  0.00    +0.000 A 
ATOM      3  C   UNL A   1     -25.909  -2.999  29.602  0.00  0.00    +0.000 A 
ATOM      4  C   UNL A   1     -24.698  -2.680  28.953  0.00  0.00    +0.000 A 
ATOM      5  C   UNL A   1     -24.317  -5.089  28.686  0.00  0.00    +0.000 A 
ATOM      6  C   UNL A   1     -23.908  -3.770  28.543  0.00  0.00    +0.000 A 
ENDROOT
BRANCH   4   7
ATOM      7  C   UNL A   1     -24.251  -1.335  28.819  0.00  0.00    +0.000 A 
ATOM      8  C   UNL A   1     -24.872  -0.594  27.771  0.00  0.00    +0.000 A 
ATOM      9  C   UNL A   1     -24.171   0.486  27.196  0.00  0.00    +0.000 A 
ATOM     10  C   UNL A   1     -22.894   0.833  27.702  0.00  0.00    +0.000 A 
ATOM     11  C   UNL A   1     -22.936  -0.958  29.239  0.00  0.00    +0.000 A 
ATOM     12  C   UNL A   1     -22.281   0.108  28.606  0.00  0.00    +0.000 A 
ENDBRANCH   4   7
TORSDOF 1
ENDMDL
ENDMDL
