MODEL 4919
MODEL 1
REMARK VINA RESULT:    -6.716      0.000      0.000
REMARK INTER + INTRA:          -7.430
REMARK INTER:                  -7.109
REMARK INTRA:                  -0.321
REMARK UNBOUND:                -0.321
REMARK  Name = No_4919-gen_results/8p0m/2024-11-26-14-13-15/
REMARK  1 active torsions:
REMARK  status: ('A' for Active; 'I' for Inactive)
REMARK    1  A    between atoms: C_3  and  C_4
REMARK                            x       y       z     vdW  Elec       q    Type
REMARK                         _______ _______ _______ _____ _____    ______ ____
ROOT
ATOM      1  C   UNL A   1     -23.782  -1.461  28.678  0.00  0.00    +0.001 A 
ATOM      2  C   UNL A   1     -22.642  -1.090  29.347  0.00  0.00    +0.000 A 
ATOM      3  C   UNL A   1     -21.982   0.074  28.923  0.00  0.00    +0.001 A 
ATOM      4  C   UNL A   1     -22.586   0.979  28.016  0.00  0.00    +0.011 A 
ATOM      5  C   UNL A   1     -23.758   0.640  27.437  0.00  0.00    +0.058 A 
ATOM      6  C   UNL A   1     -24.424  -0.530  27.743  0.00  0.00    +0.011 A 
ATOM      7 CL   UNL A   1     -24.469   1.826  26.394  0.00  0.00    -0.082 Cl
ENDROOT
BRANCH   1  10
ATOM      8  C   UNL A   1     -24.643  -4.993  28.834  0.00  0.00    +0.000 A 
ATOM      9  C   UNL A   1     -24.000  -3.974  28.731  0.00  0.00    +0.000 A 
ATOM     10  C   UNL A   1     -24.506  -2.693  28.875  0.00  0.00    +0.000 A 
ATOM     11  C   UNL A   1     -25.848  -4.980  29.554  0.00  0.00    +0.000 A 
ATOM     12  C   UNL A   1     -26.447  -3.774  29.815  0.00  0.00    +0.000 A 
ATOM     13  C   UNL A   1     -25.752  -2.578  29.525  0.00  0.00    +0.000 A 
ENDBRANCH   1  10
TORSDOF 1
ENDMDL
ENDMDL
