REMARK  Name = No_4919-gen_results/8p0m/2024-11-26-14-13-15/
REMARK  1 active torsions:
REMARK  status: ('A' for Active; 'I' for Inactive)
REMARK    1  A    between atoms: C_3  and  C_4
REMARK                            x       y       z     vdW  Elec       q    Type
REMARK                         _______ _______ _______ _____ _____    ______ ____
ROOT
ATOM      1  C   UNL A   1     -25.820   1.491  27.116  0.00  0.00    +0.001 A 
ATOM      2  C   UNL A   1     -25.750   2.319  26.023  0.00  0.00    +0.000 A 
ATOM      3  C   UNL A   1     -24.604   3.117  25.877  0.00  0.00    +0.001 A 
ATOM      4  C   UNL A   1     -23.450   2.906  26.671  0.00  0.00    +0.011 A 
ATOM      5  C   UNL A   1     -23.507   2.017  27.686  0.00  0.00    +0.058 A 
ATOM      6  C   UNL A   1     -24.630   1.256  27.941  0.00  0.00    +0.011 A 
ATOM      7 CL   UNL A   1     -22.037   1.764  28.566  0.00  0.00    -0.082 Cl
ENDROOT
BRANCH   1  10
ATOM      8  C   UNL A   1     -28.016  -0.814  28.878  0.00  0.00    +0.000 A 
ATOM      9  C   UNL A   1     -27.064  -0.119  28.608  0.00  0.00    +0.000 A 
ATOM     10  C   UNL A   1     -26.972   0.714  27.506  0.00  0.00    +0.000 A 
ATOM     11  C   UNL A   1     -29.278  -0.493  28.352  0.00  0.00    +0.000 A 
ATOM     12  C   UNL A   1     -29.348   0.362  27.282  0.00  0.00    +0.000 A 
ATOM     13  C   UNL A   1     -28.182   1.041  26.861  0.00  0.00    +0.000 A 
ENDBRANCH   1  10
TORSDOF 1
