MODEL 4921
MODEL 1
REMARK VINA RESULT:    -5.694      0.000      0.000
REMARK INTER + INTRA:          -7.006
REMARK INTER:                  -6.693
REMARK INTRA:                  -0.313
REMARK UNBOUND:                -0.313
REMARK  Name = No_4921-gen_results/8p0m/2024-11-26-14-13-15/
REMARK  3 active torsions:
REMARK  status: ('A' for Active; 'I' for Inactive)
REMARK    1  A    between atoms: C_2  and  C_10
REMARK    2  A    between atoms: C_5  and  C_7
REMARK    3  A    between atoms: C_11  and  C_12
REMARK                            x       y       z     vdW  Elec       q    Type
REMARK                         _______ _______ _______ _____ _____    ______ ____
ROOT
ATOM      1  C   UNL A   1     -29.779 -10.222  30.977  0.00  0.00    -0.000 A 
ATOM      2  C   UNL A   1     -29.394 -11.034  30.167  0.00  0.00    -0.000 A 
ATOM      3  C   UNL A   1     -28.407 -11.978  30.393  0.00  0.00    -0.000 A 
ATOM      4  C   UNL A   1     -27.824 -12.009  31.694  0.00  0.00    -0.002 A 
ATOM      5  C   UNL A   1     -28.380 -11.193  32.613  0.00  0.00    +0.010 A 
ATOM      6  C   UNL A   1     -29.393 -10.379  32.310  0.00  0.00    -0.002 A 
ENDROOT
BRANCH   5   7
ATOM      7  C   UNL A   1     -27.792 -11.280  33.964  0.00  0.00    +0.193 C 
ATOM      8  N   UNL A   1     -27.488 -12.367  34.494  0.00  0.00    -0.110 NA
ATOM      9 CL   UNL A   1     -27.265  -9.861  34.709  0.00  0.00    -0.089 Cl
ENDBRANCH   5   7
BRANCH   2  10
ATOM     10  C   UNL A   1     -29.872 -10.994  28.646  0.00  0.00    -0.000 C 
ATOM     11  C   UNL A   1     -29.534 -11.500  27.848  0.00  0.00    -0.000 C 
BRANCH  11  12
ATOM     12  C   UNL A   1     -30.005 -11.423  26.421  0.00  0.00    +0.000 C 
ATOM     13  C   UNL A   1     -30.320 -12.379  25.552  0.00  0.00    +0.000 C 
ENDBRANCH  11  12
ENDBRANCH   2  10
TORSDOF 3
ENDMDL
ENDMDL
