REMARK  Name = No_4922-gen_results/8p0m/2024-11-26-14-13-15/
REMARK  2 active torsions:
REMARK  status: ('A' for Active; 'I' for Inactive)
REMARK    1  A    between atoms: C_1  and  C_2
REMARK    2  A    between atoms: C_1  and  C_4
REMARK                            x       y       z     vdW  Elec       q    Type
REMARK                         _______ _______ _______ _____ _____    ______ ____
ROOT
ATOM      1  C   UNL A   1     -28.016  -0.814  28.878  0.00  0.00    +0.018 C 
ENDROOT
BRANCH   1   2
ATOM      2  C   UNL A   1     -27.064  -0.119  28.608  0.00  0.00    +0.095 C 
ATOM      3 CL   UNL A   1     -26.953   1.349  28.838  0.00  0.00    -0.114 Cl
ENDBRANCH   1   2
BRANCH   1   4
ATOM      4  C   UNL A   1     -28.337  -0.677  30.344  0.00  0.00    +0.001 C 
ATOM      5  C   UNL A   1     -28.550   0.636  30.741  0.00  0.00    +0.000 C 
ENDBRANCH   1   4
TORSDOF 2
