MODEL 4922
MODEL 1
REMARK VINA RESULT:    -3.392      0.000      0.000
REMARK INTER + INTRA:          -3.859
REMARK INTER:                  -3.788
REMARK INTRA:                  -0.071
REMARK UNBOUND:                -0.071
REMARK  Name = No_4922-gen_results/8p0m/2024-11-26-14-13-15/
REMARK  2 active torsions:
REMARK  status: ('A' for Active; 'I' for Inactive)
REMARK    1  A    between atoms: C_1  and  C_2
REMARK    2  A    between atoms: C_1  and  C_4
REMARK                            x       y       z     vdW  Elec       q    Type
REMARK                         _______ _______ _______ _____ _____    ______ ____
ROOT
ATOM      1  C   UNL A   1      -9.302  -9.271  19.861  0.00  0.00    +0.018 C 
ENDROOT
BRANCH   1   2
ATOM      2  C   UNL A   1      -8.099  -9.326  19.759  0.00  0.00    +0.095 C 
ATOM      3 CL   UNL A   1      -7.163  -8.167  19.736  0.00  0.00    -0.114 Cl
ENDBRANCH   1   2
BRANCH   1   4
ATOM      4  C   UNL A   1      -9.936  -9.704  18.564  0.00  0.00    +0.001 C 
ATOM      5  C   UNL A   1      -9.162 -10.607  17.847  0.00  0.00    +0.000 C 
ENDBRANCH   1   4
TORSDOF 2
ENDMDL
ENDMDL
