MODEL 4923
MODEL 1
REMARK VINA RESULT:    -7.449      0.000      0.000
REMARK INTER + INTRA:          -9.728
REMARK INTER:                  -8.755
REMARK INTRA:                  -0.973
REMARK UNBOUND:                -0.973
REMARK  Name = No_4923-gen_results/8p0m/2024-11-26-14-13-15/
REMARK  3 active torsions:
REMARK  status: ('A' for Active; 'I' for Inactive)
REMARK    1  A    between atoms: C_3  and  C_8
REMARK    2  A    between atoms: C_21  and  C_23
REMARK    3  A    between atoms: C_23  and  C_24
REMARK                            x       y       z     vdW  Elec       q    Type
REMARK                         _______ _______ _______ _____ _____    ______ ____
ROOT
ATOM      1  C   UNL A   1     -12.073   2.210  34.222  0.00  0.00    +0.037 A 
ATOM      2  C   UNL A   1     -12.958   2.725  34.865  0.00  0.00    +0.003 A 
ATOM      3  C   UNL A   1     -13.231   2.558  36.127  0.00  0.00    +0.002 A 
ATOM      4  C   UNL A   1     -12.417   1.654  36.876  0.00  0.00    -0.001 A 
ATOM      5  C   UNL A   1     -11.135   1.368  34.940  0.00  0.00    +0.141 A 
ATOM      6  C   UNL A   1     -11.352   1.129  36.233  0.00  0.00    +0.016 A 
ATOM      7  O   UNL A   1     -10.086   0.880  34.218  0.00  0.00    -0.454 OA
ATOM      8  C   UNL A   1      -8.869   0.937  34.749  0.00  0.00    +0.141 A 
ATOM      9  C   UNL A   1      -8.004   1.136  34.223  0.00  0.00    +0.037 A 
ATOM     10  C   UNL A   1      -6.567   1.252  34.766  0.00  0.00    +0.003 A 
ATOM     11  C   UNL A   1      -6.408   1.020  36.125  0.00  0.00    -0.000 A 
ATOM     12  C   UNL A   1      -7.554   0.761  36.824  0.00  0.00    -0.001 A 
ATOM     13  C   UNL A   1      -8.767   0.741  36.243  0.00  0.00    +0.016 A 
ATOM     14  C   UNL A   1     -10.026   0.730  36.957  0.00  0.00    +0.048 C 
ATOM     15  C   UNL A   1     -10.152   1.534  38.257  0.00  0.00    +0.009 C 
ENDROOT
BRANCH   3  16
ATOM     16  C   UNL A   1     -14.427   3.199  36.818  0.00  0.00    +0.022 A 
ATOM     17  C   UNL A   1     -14.840   3.029  37.806  0.00  0.00    +0.045 A 
ATOM     18  C   UNL A   1     -16.070   3.605  38.408  0.00  0.00    +0.215 A 
ATOM     19  C   UNL A   1     -15.608   3.598  35.956  0.00  0.00    +0.099 A 
ATOM     20  N   UNL A   1     -16.736   4.079  36.377  0.00  0.00    -0.239 NA
ATOM     21  C   UNL A   1     -17.046   3.991  37.654  0.00  0.00    +0.141 A 
ATOM     22  O   UNL A   1     -16.351   3.438  39.780  0.00  0.00    -0.285 OA
ENDBRANCH   3  16
BRANCH  14  23
ATOM     23  C   UNL A   1     -10.361  -0.787  37.266  0.00  0.00    +0.034 C 
BRANCH  23  24
ATOM     24  C   UNL A   1     -10.691  -1.320  38.167  0.00  0.00    -0.030 C 
ATOM     25  C   UNL A   1     -11.848  -1.914  38.400  0.00  0.00    -0.030 C 
ATOM     26  C   UNL A   1     -12.149  -2.612  39.616  0.00  0.00    +0.030 C 
ENDBRANCH  23  24
ENDBRANCH  14  23
TORSDOF 3
ENDMDL
ENDMDL
