REMARK  Name = No_4923-gen_results/8p0m/2024-11-26-14-13-15/
REMARK  3 active torsions:
REMARK  status: ('A' for Active; 'I' for Inactive)
REMARK    1  A    between atoms: C_3  and  C_8
REMARK    2  A    between atoms: C_21  and  C_23
REMARK    3  A    between atoms: C_23  and  C_24
REMARK                            x       y       z     vdW  Elec       q    Type
REMARK                         _______ _______ _______ _____ _____    ______ ____
ROOT
ATOM      1  C   UNL A   1     -28.016  -0.814  28.878  0.00  0.00    +0.037 A 
ATOM      2  C   UNL A   1     -27.064  -0.119  28.608  0.00  0.00    +0.003 A 
ATOM      3  C   UNL A   1     -26.876   1.133  28.913  0.00  0.00    +0.002 A 
ATOM      4  C   UNL A   1     -27.901   1.807  29.644  0.00  0.00    -0.001 A 
ATOM      5  C   UNL A   1     -29.046  -0.232  29.718  0.00  0.00    +0.141 A 
ATOM      6  C   UNL A   1     -28.940   1.052  30.060  0.00  0.00    +0.016 A 
ATOM      7  O   UNL A   1     -30.059  -1.063  30.095  0.00  0.00    -0.454 OA
ATOM      8  C   UNL A   1     -30.449  -1.051  31.366  0.00  0.00    +0.141 A 
ATOM      9  C   UNL A   1     -30.742  -1.883  31.901  0.00  0.00    +0.037 A 
ATOM     10  C   UNL A   1     -31.174  -1.959  33.378  0.00  0.00    +0.003 A 
ATOM     11  C   UNL A   1     -31.215  -0.753  34.064  0.00  0.00    -0.000 A 
ATOM     12  C   UNL A   1     -30.823   0.349  33.357  0.00  0.00    -0.001 A 
ATOM     13  C   UNL A   1     -30.411   0.280  32.079  0.00  0.00    +0.016 A 
ATOM     14  C   UNL A   1     -29.747   1.350  31.364  0.00  0.00    +0.048 C 
ATOM     15  C   UNL A   1     -28.760   2.248  32.118  0.00  0.00    +0.009 C 
ENDROOT
BRANCH   3  16
ATOM     16  C   UNL A   1     -25.668   1.936  28.448  0.00  0.00    +0.022 A 
ATOM     17  C   UNL A   1     -24.935   1.716  27.680  0.00  0.00    +0.045 A 
ATOM     18  C   UNL A   1     -23.712   2.480  27.323  0.00  0.00    +0.215 A 
ATOM     19  C   UNL A   1     -24.928   2.758  29.483  0.00  0.00    +0.099 A 
ATOM     20  N   UNL A   1     -23.839   3.434  29.289  0.00  0.00    -0.239 NA
ATOM     21  C   UNL A   1     -23.124   3.220  28.204  0.00  0.00    +0.141 A 
ATOM     22  O   UNL A   1     -22.977   2.167  26.160  0.00  0.00    -0.285 OA
ENDBRANCH   3  16
BRANCH  14  23
ATOM     23  C   UNL A   1     -30.888   2.259  30.746  0.00  0.00    +0.034 C 
BRANCH  23  24
ATOM     24  C   UNL A   1     -31.667   2.086  29.992  0.00  0.00    -0.030 C 
ATOM     25  C   UNL A   1     -32.618   2.905  29.581  0.00  0.00    -0.030 C 
ATOM     26  C   UNL A   1     -33.563   2.571  28.556  0.00  0.00    +0.030 C 
ENDBRANCH  23  24
ENDBRANCH  14  23
TORSDOF 3
