MODEL 4924
MODEL 1
REMARK VINA RESULT:    -4.401      0.000      0.000
REMARK INTER + INTRA:          -4.401
REMARK INTER:                  -4.401
REMARK INTRA:                   0.000
REMARK UNBOUND:                 0.000
REMARK  Name = No_4924-gen_results/8p0m/2024-11-26-14-13-15/
REMARK  0 active torsions:
REMARK  status: ('A' for Active; 'I' for Inactive)
REMARK                            x       y       z     vdW  Elec       q    Type
REMARK                         _______ _______ _______ _____ _____    ______ ____
ROOT
ATOM      1  C   UNL A   1     -24.970  -5.230  29.043  0.00  0.00    +0.001 A 
ATOM      2  C   UNL A   1     -24.118  -4.394  28.851  0.00  0.00    +0.011 A 
ATOM      3  C   UNL A   1     -24.269  -3.048  29.183  0.00  0.00    +0.058 A 
ATOM      4  C   UNL A   1     -25.530  -2.595  29.736  0.00  0.00    +0.011 A 
ATOM      5  C   UNL A   1     -26.481  -3.624  29.923  0.00  0.00    +0.001 A 
ATOM      6  C   UNL A   1     -26.249  -4.864  29.573  0.00  0.00    +0.000 A 
ATOM      7 CL   UNL A   1     -23.092  -1.825  28.936  0.00  0.00    -0.082 Cl
ENDROOT
TORSDOF 0
ENDMDL
ENDMDL
