REMARK  Name = No_4925-gen_results/8p0m/2024-11-26-14-13-15/
REMARK  3 active torsions:
REMARK  status: ('A' for Active; 'I' for Inactive)
REMARK    1  A    between atoms: C_4  and  C_8
REMARK    2  A    between atoms: C_11  and  C_14
REMARK    3  A    between atoms: C_13  and  C_17
REMARK                            x       y       z     vdW  Elec       q    Type
REMARK                         _______ _______ _______ _____ _____    ______ ____
ROOT
ATOM      1  C   UNL A   1     -26.095   0.888  29.992  0.00  0.00    +0.001 A 
ATOM      2  C   UNL A   1     -25.300   0.172  30.073  0.00  0.00    +0.000 A 
ATOM      3  C   UNL A   1     -23.858   0.233  29.584  0.00  0.00    +0.007 A 
ATOM      4  C   UNL A   1     -23.550   1.339  28.788  0.00  0.00    +0.080 A 
ATOM      5  C   UNL A   1     -24.586   2.249  28.527  0.00  0.00    +0.007 A 
ATOM      6  C   UNL A   1     -25.858   2.172  29.123  0.00  0.00    -0.000 A 
ENDROOT
BRANCH   1  10
ATOM      7 CL   UNL A   1     -28.149  -0.820  28.908  0.00  0.00    -0.082 Cl
ATOM      8  C   UNL A   1     -28.532  -0.047  29.773  0.00  0.00    +0.058 A 
ATOM      9  C   UNL A   1     -29.701   0.035  30.242  0.00  0.00    +0.011 A 
ATOM     10  C   UNL A   1     -27.457   0.897  30.382  0.00  0.00    +0.011 A 
ATOM     11  C   UNL A   1     -27.854   1.853  31.446  0.00  0.00    +0.001 A 
ATOM     12  C   UNL A   1     -30.073   1.043  31.337  0.00  0.00    +0.001 A 
ATOM     13  C   UNL A   1     -29.116   1.874  31.874  0.00  0.00    +0.000 A 
ENDBRANCH   1  10
BRANCH   4  14
ATOM     14  C   UNL A   1     -22.215   1.473  28.214  0.00  0.00    +0.388 C 
ATOM     15  O   UNL A   1     -22.002   2.509  27.497  0.00  0.00    -0.241 OA
ATOM     16  O   UNL A   1     -21.281   0.634  28.521  0.00  0.00    -0.241 OA
ENDBRANCH   4  14
BRANCH   6  17
ATOM     17  C   UNL A   1     -26.836   3.173  28.814  0.00  0.00    -0.005 C 
ATOM     18  C   UNL A   1     -26.706   4.350  29.523  0.00  0.00    -0.026 C 
ATOM     19  C   UNL A   1     -27.423   5.433  29.278  0.00  0.00    +0.031 C 
ENDBRANCH   6  17
TORSDOF 3
