MODEL 4926
MODEL 1
REMARK VINA RESULT:    -7.242      0.000      0.000
REMARK INTER + INTRA:          -9.617
REMARK INTER:                  -8.512
REMARK INTRA:                  -1.105
REMARK UNBOUND:                -1.105
REMARK  Name = No_4926-gen_results/8p0m/2024-11-26-14-13-15/
REMARK  3 active torsions:
REMARK  status: ('A' for Active; 'I' for Inactive)
REMARK    1  A    between atoms: C_3  and  C_7
REMARK    2  A    between atoms: C_7  and  C_9
REMARK    3  A    between atoms: C_9  and  C_10
REMARK                            x       y       z     vdW  Elec       q    Type
REMARK                         _______ _______ _______ _____ _____    ______ ____
ROOT
ATOM      1  C   UNL A   1     -24.740  -0.595  28.261  0.00  0.00    +0.026 C 
ATOM      2  C   UNL A   1     -25.708  -0.363  27.272  0.00  0.00    +0.005 C 
ENDROOT
BRANCH   1   5
ATOM      3  C   UNL A   1     -22.252  -0.208  28.740  0.00  0.00    -0.004 A 
ATOM      4  C   UNL A   1     -21.388   0.359  28.530  0.00  0.00    -0.000 A 
ATOM      5  C   UNL A   1     -23.447   0.141  28.073  0.00  0.00    -0.022 A 
ATOM      6  C   UNL A   1     -23.506   1.194  27.182  0.00  0.00    -0.004 A 
ATOM      7  C   UNL A   1     -22.324   1.881  26.959  0.00  0.00    -0.000 A 
ATOM      8  C   UNL A   1     -21.173   1.482  27.605  0.00  0.00    -0.000 A 
ENDBRANCH   1   5
BRANCH   1   9
ATOM      9  C   UNL A   1     -24.995  -1.415  29.338  0.00  0.00    +0.026 C 
ATOM     10  C   UNL A   1     -25.812  -0.743  30.304  0.00  0.00    +0.005 C 
BRANCH   9  11
ATOM     11  C   UNL A   1     -24.947  -2.774  29.267  0.00  0.00    -0.022 A 
ATOM     12  C   UNL A   1     -26.081  -3.470  29.747  0.00  0.00    -0.004 A 
ATOM     13  C   UNL A   1     -26.094  -4.871  29.630  0.00  0.00    -0.000 A 
ATOM     14  C   UNL A   1     -25.087  -5.514  28.983  0.00  0.00    -0.000 A 
ATOM     15  C   UNL A   1     -23.987  -4.801  28.504  0.00  0.00    -0.000 A 
ATOM     16  C   UNL A   1     -23.903  -3.491  28.640  0.00  0.00    -0.004 A 
ENDBRANCH   9  11
ENDBRANCH   1   9
TORSDOF 3
ENDMDL
ENDMDL
