MODEL 4927
MODEL 1
REMARK VINA RESULT:    -5.277      0.000      0.000
REMARK INTER + INTRA:          -5.991
REMARK INTER:                  -5.894
REMARK INTRA:                  -0.097
REMARK UNBOUND:                -0.097
REMARK  Name = No_4927-gen_results/8p0m/2024-11-26-14-13-15/
REMARK  2 active torsions:
REMARK  status: ('A' for Active; 'I' for Inactive)
REMARK    1  A    between atoms: C_2  and  P_9
REMARK    2  A    between atoms: C_4  and  O_7
REMARK                            x       y       z     vdW  Elec       q    Type
REMARK                         _______ _______ _______ _____ _____    ______ ____
ROOT
ATOM      1  C   UNL A   1     -29.230 -10.502  32.537  0.00  0.00    +0.006 A 
ATOM      2  C   UNL A   1     -28.458 -11.201  32.378  0.00  0.00    +0.029 A 
ATOM      3  C   UNL A   1     -29.999 -10.091  31.301  0.00  0.00    +0.037 A 
ATOM      4  C   UNL A   1     -29.748 -10.750  30.079  0.00  0.00    +0.139 A 
ATOM      5  C   UNL A   1     -28.021 -12.047  31.244  0.00  0.00    +0.006 A 
ATOM      6  C   UNL A   1     -28.711 -11.702  30.090  0.00  0.00    +0.037 A 
ENDROOT
BRANCH   2   7
ATOM      7  P   UNL A   1     -27.542 -11.904  33.862  0.00  0.00    +0.140 P 
ATOM      8  O   UNL A   1     -28.503 -12.570  34.748  0.00  0.00    -0.354 OA
ATOM      9  O   UNL A   1     -26.907 -10.792  34.607  0.00  0.00    -0.354 OA
ATOM     10  O   UNL A   1     -26.535 -12.804  33.300  0.00  0.00    -0.456 OA
ENDBRANCH   2   7
BRANCH   4  11
ATOM     11  O   UNL A   1     -30.365 -10.392  28.978  0.00  0.00    -0.471 OA
ATOM     12  C   UNL A   1     -30.287 -10.935  27.855  0.00  0.00    +0.253 C 
ENDBRANCH   4  11
TORSDOF 2
ENDMDL
ENDMDL
