REMARK  Name = No_4929-gen_results/8p0m/2024-11-26-14-13-15/
REMARK  1 active torsions:
REMARK  status: ('A' for Active; 'I' for Inactive)
REMARK    1  A    between atoms: C_5  and  C_8
REMARK                            x       y       z     vdW  Elec       q    Type
REMARK                         _______ _______ _______ _____ _____    ______ ____
ROOT
ATOM      1  C   UNL A   1     -28.016  -0.814  28.878  0.00  0.00    +0.011 A 
ATOM      2  C   UNL A   1     -28.469  -0.785  29.829  0.00  0.00    +0.001 A 
ATOM      3  C   UNL A   1     -28.196   0.348  28.055  0.00  0.00    +0.058 A 
ATOM      4  C   UNL A   1     -29.019   1.350  28.378  0.00  0.00    +0.011 A 
ATOM      5  C   UNL A   1     -29.625   1.268  29.601  0.00  0.00    +0.001 A 
ATOM      6  C   UNL A   1     -29.382   0.182  30.400  0.00  0.00    +0.000 A 
ATOM      7 CL   UNL A   1     -27.345   0.373  26.518  0.00  0.00    -0.082 Cl
ENDROOT
BRANCH   5   8
ATOM      8  C   UNL A   1     -30.519   2.319  30.038  0.00  0.00    -0.004 C 
ATOM      9  C   UNL A   1     -31.331   2.831  29.402  0.00  0.00    -0.026 C 
ATOM     10  C   UNL A   1     -32.233   3.928  29.830  0.00  0.00    +0.031 C 
ENDBRANCH   5   8
TORSDOF 1
