MODEL 4929
MODEL 1
REMARK VINA RESULT:    -5.077      0.000      0.000
REMARK INTER + INTRA:          -5.531
REMARK INTER:                  -5.374
REMARK INTRA:                  -0.157
REMARK UNBOUND:                -0.157
REMARK  Name = No_4929-gen_results/8p0m/2024-11-26-14-13-15/
REMARK  1 active torsions:
REMARK  status: ('A' for Active; 'I' for Inactive)
REMARK    1  A    between atoms: C_5  and  C_8
REMARK                            x       y       z     vdW  Elec       q    Type
REMARK                         _______ _______ _______ _____ _____    ______ ____
ROOT
ATOM      1  C   UNL A   1     -22.448   0.621  28.392  0.00  0.00    +0.011 A 
ATOM      2  C   UNL A   1     -22.130  -0.156  29.028  0.00  0.00    +0.001 A 
ATOM      3  C   UNL A   1     -23.744   0.461  27.796  0.00  0.00    +0.058 A 
ATOM      4  C   UNL A   1     -24.456  -0.666  27.890  0.00  0.00    +0.011 A 
ATOM      5  C   UNL A   1     -23.930  -1.653  28.677  0.00  0.00    +0.001 A 
ATOM      6  C   UNL A   1     -22.723  -1.450  29.293  0.00  0.00    +0.000 A 
ATOM      7 CL   UNL A   1     -24.348   1.801  26.834  0.00  0.00    -0.082 Cl
ENDROOT
BRANCH   5   8
ATOM      8  C   UNL A   1     -24.643  -2.901  28.848  0.00  0.00    -0.004 C 
ATOM      9  C   UNL A   1     -24.174  -3.951  28.902  0.00  0.00    -0.026 C 
ATOM     10  C   UNL A   1     -24.897  -5.239  29.048  0.00  0.00    +0.031 C 
ENDBRANCH   5   8
TORSDOF 1
ENDMDL
ENDMDL
