MODEL 492
MODEL 1
REMARK VINA RESULT:    -6.094      0.000      0.000
REMARK INTER + INTRA:          -7.144
REMARK INTER:                  -6.807
REMARK INTRA:                  -0.338
REMARK UNBOUND:                -0.338
REMARK  Name = No_492-gen_results/8p0m/2024-11-26-14-13-15/
REMARK  2 active torsions:
REMARK  status: ('A' for Active; 'I' for Inactive)
REMARK    1  A    between atoms: C_2  and  C_7
REMARK    2  A    between atoms: N_9  and  C_10
REMARK                            x       y       z     vdW  Elec       q    Type
REMARK                         _______ _______ _______ _____ _____    ______ ____
ROOT
ATOM      1  C   UNL A   1     -29.812 -14.650  12.427  0.00  0.00    +0.269 C 
ATOM      2  O   UNL A   1     -29.461 -15.368  13.163  0.00  0.00    -0.268 OA
ATOM      3  N   UNL A   1     -29.504 -13.288  12.508  0.00  0.00    -0.175 NA
ENDROOT
BRANCH   1   5
ATOM      4  C   UNL A   1     -31.513 -14.886  10.926  0.00  0.00    +0.005 A 
ATOM      5  C   UNL A   1     -30.467 -14.985  10.999  0.00  0.00    +0.055 A 
ATOM      6  C   UNL A   1     -32.105 -15.220   9.574  0.00  0.00    +0.000 A 
ATOM      7  C   UNL A   1     -31.275 -15.764   8.572  0.00  0.00    +0.000 A 
ATOM      8  C   UNL A   1     -29.401 -15.549  10.140  0.00  0.00    +0.005 A 
ATOM      9  C   UNL A   1     -29.908 -15.873   8.890  0.00  0.00    +0.000 A 
ENDBRANCH   1   5
BRANCH   3  10
ATOM     10  C   UNL A   1     -29.790 -12.288  11.577  0.00  0.00    +0.074 A 
ATOM     11  C   UNL A   1     -29.109 -11.842  10.724  0.00  0.00    +0.017 A 
ATOM     12  C   UNL A   1     -29.475 -10.783   9.754  0.00  0.00    +0.001 A 
ATOM     13  C   UNL A   1     -30.294 -10.164   9.997  0.00  0.00    +0.000 A 
ATOM     14  C   UNL A   1     -30.948 -11.416  11.860  0.00  0.00    +0.017 A 
ATOM     15  C   UNL A   1     -31.395 -10.549  11.033  0.00  0.00    +0.001 A 
ENDBRANCH   3  10
TORSDOF 2
ENDMDL
ENDMDL
