REMARK  Name = No_493-gen_results/8p0m/2024-11-26-14-13-15/
REMARK  7 active torsions:
REMARK  status: ('A' for Active; 'I' for Inactive)
REMARK    1  A    between atoms: C_4  and  C_11
REMARK    2  A    between atoms: C_9  and  C_26
REMARK    3  A    between atoms: C_12  and  C_17
REMARK    4  A    between atoms: C_17  and  O_19
REMARK    5  A    between atoms: O_19  and  C_20
REMARK    6  A    between atoms: C_25  and  C_29
REMARK    7  A    between atoms: C_29  and  O_32
REMARK                            x       y       z     vdW  Elec       q    Type
REMARK                         _______ _______ _______ _____ _____    ______ ____
ROOT
ATOM      1  C   UNL A   1     -24.749   1.794  27.976  0.00  0.00    +0.001 A 
ATOM      2  C   UNL A   1     -25.087   2.928  28.554  0.00  0.00    +0.033 A 
ATOM      3  C   UNL A   1     -25.314   4.096  27.831  0.00  0.00    +0.001 A 
ATOM      4  C   UNL A   1     -23.990   1.898  26.770  0.00  0.00    -0.000 A 
ATOM      5  C   UNL A   1     -24.133   2.968  25.925  0.00  0.00    -0.000 A 
ATOM      6  C   UNL A   1     -24.655   4.164  26.495  0.00  0.00    -0.000 A 
ENDROOT
BRANCH   1  10
ATOM      7  C   UNL A   1     -28.016  -0.814  28.878  0.00  0.00    +0.007 A 
ATOM      8  C   UNL A   1     -27.064  -0.119  28.608  0.00  0.00    +0.000 A 
ATOM      9  C   UNL A   1     -25.790  -0.234  29.130  0.00  0.00    -0.000 A 
ATOM     10  C   UNL A   1     -24.617   0.584  28.832  0.00  0.00    -0.000 A 
ATOM     11  C   UNL A   1     -23.338   0.430  29.427  0.00  0.00    -0.000 A 
ATOM     12  C   UNL A   1     -23.160  -0.754  30.173  0.00  0.00    -0.000 A 
ATOM     13  C   UNL A   1     -24.178  -1.562  30.484  0.00  0.00    +0.000 A 
ATOM     14  C   UNL A   1     -25.426  -1.381  29.955  0.00  0.00    +0.000 A 
ATOM     15  C   UNL A   1     -27.780  -1.856  29.960  0.00  0.00    +0.080 A 
ATOM     16  C   UNL A   1     -26.541  -2.184  30.394  0.00  0.00    +0.007 A 
BRANCH  15  17
ATOM     17  C   UNL A   1     -28.956  -2.737  30.325  0.00  0.00    +0.388 C 
ATOM     18  O   UNL A   1     -29.093  -2.955  31.558  0.00  0.00    -0.241 OA
ATOM     19  O   UNL A   1     -29.611  -3.329  29.496  0.00  0.00    -0.241 OA
ENDBRANCH  15  17
ENDBRANCH   1  10
BRANCH   2  20
ATOM     20  C   UNL A   1     -25.751   3.014  29.923  0.00  0.00    +0.268 C 
ATOM     21 CL   UNL A   1     -26.222   4.141  30.776  0.00  0.00    -0.063 Cl
BRANCH  20  22
ATOM     22  O   UNL A   1     -26.339   1.811  30.350  0.00  0.00    -0.460 OA
BRANCH  22  23
ATOM     23  C   UNL A   1     -26.935   2.010  31.674  0.00  0.00    +0.139 A 
ATOM     24  C   UNL A   1     -26.733   1.022  32.214  0.00  0.00    +0.037 A 
ATOM     25  C   UNL A   1     -27.208   0.915  33.685  0.00  0.00    +0.003 A 
ATOM     26  C   UNL A   1     -28.023   1.880  34.165  0.00  0.00    -0.000 A 
ATOM     27  C   UNL A   1     -28.292   2.966  33.367  0.00  0.00    +0.001 A 
ATOM     28  C   UNL A   1     -27.736   2.986  32.147  0.00  0.00    +0.036 A 
BRANCH  28  29
ATOM     29  C   UNL A   1     -27.386   4.275  31.449  0.00  0.00    +0.115 C 
ATOM     30  C   UNL A   1     -28.623   4.559  30.515  0.00  0.00    +0.034 C 
ATOM     31  C   UNL A   1     -27.283   5.425  32.462  0.00  0.00    +0.034 C 
BRANCH  29  32
ATOM     32  O   UNL A   1     -27.503   5.401  31.179  0.00  0.00    -0.352 OA
ATOM     33  C   UNL A   1     -27.347   6.586  30.482  0.00  0.00    +0.174 C 
ENDBRANCH  29  32
ENDBRANCH  28  29
ENDBRANCH  22  23
ENDBRANCH  20  22
ENDBRANCH   2  20
TORSDOF 7
