MODEL 4930
MODEL 1
REMARK VINA RESULT:    -7.583      0.000      0.000
REMARK INTER + INTRA:         -11.353
REMARK INTER:                 -10.242
REMARK INTRA:                  -1.111
REMARK UNBOUND:                -1.111
REMARK  Name = No_4930-gen_results/8p0m/2024-11-26-14-13-15/
REMARK  6 active torsions:
REMARK  status: ('A' for Active; 'I' for Inactive)
REMARK    1  A    between atoms: C_2  and  C_7
REMARK    2  A    between atoms: C_4  and  C_21
REMARK    3  A    between atoms: N_9  and  C_10
REMARK    4  A    between atoms: C_10  and  C_12
REMARK    5  A    between atoms: C_11  and  C_13
REMARK    6  A    between atoms: C_21  and  C_22
REMARK                            x       y       z     vdW  Elec       q    Type
REMARK                         _______ _______ _______ _____ _____    ______ ____
ROOT
ATOM      1  C   UNL A   1     -24.743   0.221  28.000  0.00  0.00    +0.269 C 
ATOM      2  O   UNL A   1     -23.669  -0.066  27.920  0.00  0.00    -0.268 OA
ATOM      3  N   UNL A   1     -25.430   0.230  29.212  0.00  0.00    -0.171 NA
ENDROOT
BRANCH   1   5
ATOM      4  C   UNL A   1     -26.699   0.861  26.998  0.00  0.00    +0.004 A 
ATOM      5  C   UNL A   1     -25.726   0.517  26.780  0.00  0.00    +0.055 A 
ATOM      6  C   UNL A   1     -27.584   1.106  25.848  0.00  0.00    -0.004 A 
ATOM      7  C   UNL A   1     -27.173   0.754  24.529  0.00  0.00    -0.018 A 
ATOM      8  C   UNL A   1     -25.081   0.029  25.531  0.00  0.00    +0.004 A 
ATOM      9  C   UNL A   1     -25.868   0.249  24.440  0.00  0.00    -0.004 A 
BRANCH   7  10
ATOM     10  C   UNL A   1     -28.031   0.912  23.409  0.00  0.00    +0.053 C 
BRANCH  10  11
ATOM     11  C   UNL A   1     -29.199   0.326  23.265  0.00  0.00    -0.018 A 
ATOM     12  C   UNL A   1     -30.439   0.972  23.701  0.00  0.00    -0.004 A 
ATOM     13  C   UNL A   1     -31.592   0.210  23.764  0.00  0.00    -0.000 A 
ATOM     14  C   UNL A   1     -31.420  -1.214  24.049  0.00  0.00    -0.000 A 
ATOM     15  C   UNL A   1     -30.156  -1.829  23.907  0.00  0.00    -0.000 A 
ATOM     16  C   UNL A   1     -29.091  -1.091  23.607  0.00  0.00    -0.004 A 
ENDBRANCH  10  11
ENDBRANCH   7  10
ENDBRANCH   1   5
BRANCH   3  17
ATOM     17  C   UNL A   1     -24.733  -0.155  30.392  0.00  0.00    +0.133 C 
ATOM     18  C   UNL A   1     -24.577  -0.998  30.907  0.00  0.00    +0.022 C 
BRANCH  18  19
ATOM     19  C   UNL A   1     -24.910  -2.371  30.278  0.00  0.00    +0.002 A 
ATOM     20  C   UNL A   1     -26.254  -2.799  30.415  0.00  0.00    +0.000 A 
ATOM     21  C   UNL A   1     -26.623  -4.039  29.776  0.00  0.00    +0.000 A 
ATOM     22  C   UNL A   1     -25.621  -4.720  29.073  0.00  0.00    +0.000 A 
ATOM     23  C   UNL A   1     -24.364  -4.236  28.941  0.00  0.00    +0.000 A 
ATOM     24  C   UNL A   1     -23.999  -3.073  29.535  0.00  0.00    +0.000 A 
ENDBRANCH  18  19
BRANCH  17  25
ATOM     25  C   UNL A   1     -24.330   1.193  30.986  0.00  0.00    +0.312 C 
ATOM     26  N   UNL A   1     -24.996   1.595  31.920  0.00  0.00    -0.101 NA
ATOM     27  O   UNL A   1     -23.332   1.899  30.536  0.00  0.00    -0.262 OA
ENDBRANCH  17  25
ENDBRANCH   3  17
TORSDOF 6
ENDMDL
ENDMDL
