REMARK  Name = No_4930-gen_results/8p0m/2024-11-26-14-13-15/
REMARK  6 active torsions:
REMARK  status: ('A' for Active; 'I' for Inactive)
REMARK    1  A    between atoms: C_2  and  C_7
REMARK    2  A    between atoms: C_4  and  C_21
REMARK    3  A    between atoms: N_9  and  C_10
REMARK    4  A    between atoms: C_10  and  C_12
REMARK    5  A    between atoms: C_11  and  C_13
REMARK    6  A    between atoms: C_21  and  C_22
REMARK                            x       y       z     vdW  Elec       q    Type
REMARK                         _______ _______ _______ _____ _____    ______ ____
ROOT
ATOM      1  C   UNL A   1     -30.061  -0.737  29.902  0.00  0.00    +0.269 C 
ATOM      2  O   UNL A   1     -30.725  -1.554  30.270  0.00  0.00    -0.268 OA
ATOM      3  N   UNL A   1     -30.556   0.424  29.312  0.00  0.00    -0.171 NA
ENDROOT
BRANCH   1   5
ATOM      4  C   UNL A   1     -28.016  -0.814  28.878  0.00  0.00    +0.004 A 
ATOM      5  C   UNL A   1     -28.469  -0.785  29.829  0.00  0.00    +0.055 A 
ATOM      6  C   UNL A   1     -26.546  -0.876  28.850  0.00  0.00    -0.004 A 
ATOM      7  C   UNL A   1     -25.804  -1.032  30.057  0.00  0.00    -0.018 A 
ATOM      8  C   UNL A   1     -27.944  -0.987  31.207  0.00  0.00    +0.004 A 
ATOM      9  C   UNL A   1     -26.582  -1.039  31.223  0.00  0.00    -0.004 A 
BRANCH   7  10
ATOM     10  C   UNL A   1     -24.391  -1.167  30.056  0.00  0.00    +0.053 C 
BRANCH  10  11
ATOM     11  C   UNL A   1     -23.607  -0.898  29.035  0.00  0.00    -0.018 A 
ATOM     12  C   UNL A   1     -22.150  -0.861  29.177  0.00  0.00    -0.004 A 
ATOM     13  C   UNL A   1     -21.401  -0.322  28.147  0.00  0.00    -0.000 A 
ATOM     14  C   UNL A   1     -22.041   0.724  27.351  0.00  0.00    -0.000 A 
ATOM     15  C   UNL A   1     -23.441   0.909  27.398  0.00  0.00    -0.000 A 
ATOM     16  C   UNL A   1     -24.175   0.194  28.246  0.00  0.00    -0.004 A 
ENDBRANCH  10  11
ENDBRANCH   7  10
ENDBRANCH   1   5
BRANCH   3  17
ATOM     17  C   UNL A   1     -31.965   0.564  29.163  0.00  0.00    +0.133 C 
ATOM     18  C   UNL A   1     -32.776   0.455  29.738  0.00  0.00    +0.022 C 
BRANCH  18  19
ATOM     19  C   UNL A   1     -32.634   0.337  31.273  0.00  0.00    +0.002 A 
ATOM     20  C   UNL A   1     -31.650   1.168  31.864  0.00  0.00    +0.000 A 
ATOM     21  C   UNL A   1     -31.538   1.144  33.303  0.00  0.00    +0.000 A 
ATOM     22  C   UNL A   1     -32.412   0.298  33.998  0.00  0.00    +0.000 A 
ATOM     23  C   UNL A   1     -33.362  -0.440  33.378  0.00  0.00    +0.000 A 
ATOM     24  C   UNL A   1     -33.481  -0.430  32.028  0.00  0.00    +0.000 A 
ENDBRANCH  18  19
BRANCH  17  25
ATOM     25  C   UNL A   1     -32.114   0.759  27.655  0.00  0.00    +0.312 C 
ATOM     26  N   UNL A   1     -33.248   0.761  27.218  0.00  0.00    -0.101 NA
ATOM     27  O   UNL A   1     -31.099   0.916  26.855  0.00  0.00    -0.262 OA
ENDBRANCH  17  25
ENDBRANCH   3  17
TORSDOF 6
