REMARK  Name = No_4931-gen_results/8p0m/2024-11-26-14-13-15/
REMARK  3 active torsions:
REMARK  status: ('A' for Active; 'I' for Inactive)
REMARK    1  A    between atoms: C_1  and  C_6
REMARK    2  A    between atoms: C_3  and  C_13
REMARK    3  A    between atoms: C_5  and  C_10
REMARK                            x       y       z     vdW  Elec       q    Type
REMARK                         _______ _______ _______ _____ _____    ______ ____
ROOT
ATOM      1  C   UNL A   1     -28.016  -0.814  28.878  0.00  0.00    +0.080 A 
ATOM      2  C   UNL A   1     -27.064  -0.119  28.608  0.00  0.00    +0.007 A 
ATOM      3  C   UNL A   1     -26.972   0.714  27.506  0.00  0.00    +0.000 A 
ATOM      4  C   UNL A   1     -28.105   0.774  26.642  0.00  0.00    +0.004 A 
ATOM      5  C   UNL A   1     -29.201   0.104  27.053  0.00  0.00    +0.050 A 
ATOM      6  C   UNL A   1     -29.164  -0.639  28.148  0.00  0.00    +0.011 A 
ENDROOT
BRANCH   3   7
ATOM      7  C   UNL A   1     -25.697   1.429  27.123  0.00  0.00    +0.000 A 
ATOM      8  C   UNL A   1     -24.535   0.879  27.505  0.00  0.00    +0.000 A 
ATOM      9  C   UNL A   1     -23.285   1.593  27.360  0.00  0.00    +0.000 A 
ATOM     10  C   UNL A   1     -23.353   2.613  26.398  0.00  0.00    +0.000 A 
ATOM     11  C   UNL A   1     -25.522   2.563  26.350  0.00  0.00    +0.000 A 
ATOM     12  C   UNL A   1     -24.447   3.190  26.004  0.00  0.00    +0.000 A 
ENDBRANCH   3   7
BRANCH   1  13
ATOM     13  C   UNL A   1     -28.022  -1.590  30.088  0.00  0.00    +0.388 C 
ATOM     14  O   UNL A   1     -27.153  -2.462  30.273  0.00  0.00    -0.241 OA
ATOM     15  O   UNL A   1     -28.752  -1.294  31.118  0.00  0.00    -0.241 OA
ENDBRANCH   1  13
BRANCH   5  16
ATOM     16  C   UNL A   1     -30.378   0.197  26.161  0.00  0.00    +0.254 C 
ATOM     17 CL   UNL A   1     -30.557   0.446  24.579  0.00  0.00    -0.038 Cl
ATOM     18  O   UNL A   1     -31.553  -0.136  26.792  0.00  0.00    -0.274 OA
ENDBRANCH   5  16
TORSDOF 3
