MODEL 4931
MODEL 1
REMARK VINA RESULT:    -7.019      0.000      0.000
REMARK INTER + INTRA:          -8.803
REMARK INTER:                  -8.250
REMARK INTRA:                  -0.553
REMARK UNBOUND:                -0.553
REMARK  Name = No_4931-gen_results/8p0m/2024-11-26-14-13-15/
REMARK  3 active torsions:
REMARK  status: ('A' for Active; 'I' for Inactive)
REMARK    1  A    between atoms: C_1  and  C_6
REMARK    2  A    between atoms: C_3  and  C_13
REMARK    3  A    between atoms: C_5  and  C_10
REMARK                            x       y       z     vdW  Elec       q    Type
REMARK                         _______ _______ _______ _____ _____    ______ ____
ROOT
ATOM      1  C   UNL A   1     -10.770   1.434  35.114  0.00  0.00    +0.080 A 
ATOM      2  C   UNL A   1     -11.154   0.910  36.134  0.00  0.00    +0.007 A 
ATOM      3  C   UNL A   1     -10.480  -0.086  36.820  0.00  0.00    +0.000 A 
ATOM      4  C   UNL A   1      -9.221  -0.500  36.293  0.00  0.00    +0.004 A 
ATOM      5  C   UNL A   1      -8.756   0.209  35.243  0.00  0.00    +0.050 A 
ATOM      6  C   UNL A   1      -9.493   1.161  34.694  0.00  0.00    +0.011 A 
ENDROOT
BRANCH   3   7
ATOM      7  C   UNL A   1     -11.083  -0.827  37.991  0.00  0.00    +0.000 A 
ATOM      8  C   UNL A   1     -11.481  -2.091  37.791  0.00  0.00    +0.000 A 
ATOM      9  C   UNL A   1     -12.248  -2.802  38.791  0.00  0.00    +0.000 A 
ATOM     10  C   UNL A   1     -12.101  -2.255  40.076  0.00  0.00    +0.000 A 
ATOM     11  C   UNL A   1     -11.229  -0.423  39.307  0.00  0.00    +0.000 A 
ATOM     12  C   UNL A   1     -11.734  -1.035  40.325  0.00  0.00    +0.000 A 
ENDBRANCH   3   7
BRANCH   1  13
ATOM     13  C   UNL A   1     -11.527   2.506  34.526  0.00  0.00    +0.388 C 
ATOM     14  O   UNL A   1     -11.012   3.632  34.394  0.00  0.00    -0.241 OA
ATOM     15  O   UNL A   1     -12.655   2.327  33.914  0.00  0.00    -0.241 OA
ENDBRANCH   1  13
BRANCH   5  16
ATOM     16  C   UNL A   1      -7.436  -0.213  34.723  0.00  0.00    +0.254 C 
ATOM     17 CL   UNL A   1      -6.834  -1.625  34.233  0.00  0.00    -0.038 Cl
ATOM     18  O   UNL A   1      -6.595   0.847  34.479  0.00  0.00    -0.274 OA
ENDBRANCH   5  16
TORSDOF 3
ENDMDL
ENDMDL
