MODEL 4932
MODEL 1
REMARK VINA RESULT:    -6.102      0.000      0.000
REMARK INTER + INTRA:          -6.972
REMARK INTER:                  -6.816
REMARK INTRA:                  -0.156
REMARK UNBOUND:                -0.156
REMARK  Name = No_4932-gen_results/8p0m/2024-11-26-14-13-15/
REMARK  2 active torsions:
REMARK  status: ('A' for Active; 'I' for Inactive)
REMARK    1  A    between atoms: C_2  and  O_7
REMARK    2  A    between atoms: O_7  and  C_8
REMARK                            x       y       z     vdW  Elec       q    Type
REMARK                         _______ _______ _______ _____ _____    ______ ____
ROOT
ATOM      1  O   UNL A   1     -24.764  -1.290  29.555  0.00  0.00    -0.454 OA
ENDROOT
BRANCH   1   3
ATOM      2  C   UNL A   1     -23.934  -3.134  28.799  0.00  0.00    +0.037 A 
ATOM      3  C   UNL A   1     -24.748  -2.734  29.336  0.00  0.00    +0.145 A 
ATOM      4  C   UNL A   1     -23.937  -4.590  28.586  0.00  0.00    +0.003 A 
ATOM      5  C   UNL A   1     -25.062  -5.376  28.970  0.00  0.00    +0.000 A 
ATOM      6  C   UNL A   1     -26.045  -3.309  29.786  0.00  0.00    +0.037 A 
ATOM      7  C   UNL A   1     -26.081  -4.661  29.614  0.00  0.00    +0.003 A 
ENDBRANCH   1   3
BRANCH   1   8
ATOM      8  C   UNL A   1     -24.415  -0.553  28.555  0.00  0.00    +0.145 A 
ATOM      9  C   UNL A   1     -23.325   0.224  28.610  0.00  0.00    +0.037 A 
ATOM     10  C   UNL A   1     -22.966   1.071  27.542  0.00  0.00    +0.003 A 
ATOM     11  C   UNL A   1     -23.841   1.116  26.431  0.00  0.00    +0.000 A 
ATOM     12  C   UNL A   1     -24.968   0.370  26.373  0.00  0.00    +0.003 A 
ATOM     13  C   UNL A   1     -25.293  -0.477  27.425  0.00  0.00    +0.037 A 
ENDBRANCH   1   8
TORSDOF 2
ENDMDL
ENDMDL
