MODEL 4933
MODEL 1
REMARK VINA RESULT:    -5.874      0.000      0.000
REMARK INTER + INTRA:          -6.837
REMARK INTER:                  -6.561
REMARK INTRA:                  -0.276
REMARK UNBOUND:                -0.276
REMARK  Name = No_4933-gen_results/8p0m/2024-11-26-14-13-15/
REMARK  2 active torsions:
REMARK  status: ('A' for Active; 'I' for Inactive)
REMARK    1  A    between atoms: C_2  and  C_11
REMARK    2  A    between atoms: C_3  and  C_4
REMARK                            x       y       z     vdW  Elec       q    Type
REMARK                         _______ _______ _______ _____ _____    ______ ____
ROOT
ATOM      1  C   UNL A   1     -28.266 -11.821  31.162  0.00  0.00    +0.010 A 
ATOM      2  C   UNL A   1     -28.267 -11.549  32.180  0.00  0.00    +0.080 A 
ATOM      3  C   UNL A   1     -29.270 -11.096  30.294  0.00  0.00    +0.072 A 
ATOM      4  C   UNL A   1     -28.906 -10.437  32.896  0.00  0.00    +0.007 A 
ATOM      5  C   UNL A   1     -29.818  -9.710  32.162  0.00  0.00    +0.000 A 
ATOM      6  C   UNL A   1     -30.015  -9.985  30.833  0.00  0.00    +0.004 A 
ENDROOT
BRANCH   3   7
ATOM      7  C   UNL A   1     -29.571 -11.384  28.914  0.00  0.00    +0.419 C 
ATOM      8  F   UNL A   1     -28.656 -11.716  28.270  0.00  0.00    -0.166 F 
ATOM      9  F   UNL A   1     -30.206 -10.276  28.286  0.00  0.00    -0.166 F 
ATOM     10  F   UNL A   1     -30.618 -12.362  28.827  0.00  0.00    -0.166 F 
ENDBRANCH   3   7
BRANCH   2  11
ATOM     11  C   UNL A   1     -27.241 -12.288  33.132  0.00  0.00    +0.388 C 
ATOM     12  O   UNL A   1     -27.431 -12.246  34.421  0.00  0.00    -0.241 OA
ATOM     13  O   UNL A   1     -26.384 -12.993  32.633  0.00  0.00    -0.241 OA
ENDBRANCH   2  11
TORSDOF 2
ENDMDL
ENDMDL
