MODEL 4934
MODEL 1
REMARK VINA RESULT:    -5.060      0.000      0.000
REMARK INTER + INTRA:          -6.042
REMARK INTER:                  -5.651
REMARK INTRA:                  -0.391
REMARK UNBOUND:                -0.391
REMARK  Name = No_4934-gen_results/8p0m/2024-11-26-14-13-15/
REMARK  2 active torsions:
REMARK  status: ('A' for Active; 'I' for Inactive)
REMARK    1  A    between atoms: C_2  and  C_7
REMARK    2  A    between atoms: C_8  and  C_9
REMARK                            x       y       z     vdW  Elec       q    Type
REMARK                         _______ _______ _______ _____ _____    ______ ____
ROOT
ATOM      1  C   UNL A   1     -25.819  -2.727  29.536  0.00  0.00    +0.000 A 
ATOM      2  C   UNL A   1     -24.766  -2.583  28.959  0.00  0.00    +0.000 A 
ATOM      3  C   UNL A   1     -23.968  -3.609  28.568  0.00  0.00    +0.000 A 
ATOM      4  C   UNL A   1     -24.385  -4.924  28.849  0.00  0.00    +0.000 A 
ATOM      5  C   UNL A   1     -26.353  -4.045  29.770  0.00  0.00    +0.000 A 
ATOM      6  C   UNL A   1     -25.576  -5.110  29.423  0.00  0.00    +0.000 A 
ENDROOT
BRANCH   2   7
ATOM      7  C   UNL A   1     -24.218  -1.214  28.580  0.00  0.00    +0.000 C 
ATOM      8  C   UNL A   1     -23.676  -0.394  29.576  0.00  0.00    +0.000 C 
BRANCH   8   9
ATOM      9  C   UNL A   1     -22.987  -0.824  30.623  0.00  0.00    +0.000 C 
ATOM     10  C   UNL A   1     -23.192  -1.063  31.928  0.00  0.00    +0.000 C 
ENDBRANCH   8   9
ENDBRANCH   2   7
TORSDOF 2
ENDMDL
ENDMDL
