MODEL 4935
MODEL 1
REMARK VINA RESULT:    -7.011      0.000      0.000
REMARK INTER + INTRA:         -11.844
REMARK INTER:                  -9.880
REMARK INTRA:                  -1.965
REMARK UNBOUND:                -1.965
REMARK  Name = No_4935-gen_results/8p0m/2024-11-26-14-13-15/
REMARK  7 active torsions:
REMARK  status: ('A' for Active; 'I' for Inactive)
REMARK    1  A    between atoms: C_1  and  C_23
REMARK    2  A    between atoms: C_2  and  C_17
REMARK    3  A    between atoms: C_5  and  N_7
REMARK    4  A    between atoms: N_7  and  C_8
REMARK    5  A    between atoms: C_23  and  O_24
REMARK    6  A    between atoms: O_24  and  C_28
REMARK    7  A    between atoms: C_28  and  C_29
REMARK                            x       y       z     vdW  Elec       q    Type
REMARK                         _______ _______ _______ _____ _____    ______ ____
ROOT
ATOM      1  C   UNL A   1     -30.198 -11.755  10.698  0.00  0.00    +0.077 A 
ATOM      2  C   UNL A   1     -30.874 -12.258   9.831  0.00  0.00    +0.008 A 
ATOM      3  C   UNL A   1     -30.837 -11.914   8.490  0.00  0.00    +0.013 A 
ATOM      4  C   UNL A   1     -29.904 -10.906   8.105  0.00  0.00    +0.072 A 
ATOM      5  C   UNL A   1     -29.064 -10.475   9.069  0.00  0.00    +0.071 A 
ATOM      6  C   UNL A   1     -29.129 -10.940  10.318  0.00  0.00    +0.023 A 
ATOM      7 CL   UNL A   1     -29.851 -10.460   6.450  0.00  0.00    -0.081 Cl
ENDROOT
BRANCH   2   8
ATOM      8  C   UNL A   1     -32.165 -13.177   9.995  0.00  0.00    +0.011 A 
ATOM      9  C   UNL A   1     -31.986 -14.570   9.864  0.00  0.00    +0.058 A 
ATOM     10  C   UNL A   1     -33.144 -15.410  10.074  0.00  0.00    +0.011 A 
ATOM     11  C   UNL A   1     -34.372 -14.837  10.436  0.00  0.00    +0.001 A 
ATOM     12  C   UNL A   1     -34.466 -13.443  10.612  0.00  0.00    +0.000 A 
ATOM     13  C   UNL A   1     -33.360 -12.606  10.389  0.00  0.00    +0.001 A 
ATOM     14 CL   UNL A   1     -30.527 -15.301   9.342  0.00  0.00    -0.082 Cl
ENDBRANCH   2   8
BRANCH   5  15
ATOM     15  N   UNL A   1     -28.130  -9.534   8.656  0.00  0.00    -0.209 N 
ATOM     16  C   UNL A   1     -26.746 -10.170   8.435  0.00  0.00    +0.401 C 
ATOM     17  O   UNL A   1     -26.404 -10.806   7.470  0.00  0.00    -0.235 OA
ATOM     18  F   UNL A   1     -25.998 -10.273   9.428  0.00  0.00    -0.143 F 
BRANCH  15  19
ATOM     19  C   UNL A   1     -28.235  -8.423   8.435  0.00  0.00    +0.060 A 
ATOM     20  C   UNL A   1     -27.592  -7.834   7.404  0.00  0.00    +0.015 A 
ATOM     21  C   UNL A   1     -29.131  -7.563   9.294  0.00  0.00    +0.015 A 
ATOM     22  C   UNL A   1     -27.753  -6.398   7.078  0.00  0.00    +0.001 A 
ATOM     23  C   UNL A   1     -29.353  -6.188   8.941  0.00  0.00    +0.001 A 
ATOM     24  C   UNL A   1     -28.653  -5.660   7.845  0.00  0.00    +0.000 A 
ENDBRANCH  15  19
ENDBRANCH   5  15
BRANCH   1  25
ATOM     25  C   UNL A   1     -30.277 -12.289  12.147  0.00  0.00    +0.341 C 
ATOM     26  O   UNL A   1     -31.047 -11.509  12.977  0.00  0.00    -0.245 OA
BRANCH  25  27
ATOM     27  O   UNL A   1     -29.832 -13.230  12.474  0.00  0.00    -0.439 OA
BRANCH  27  28
ATOM     28  C   UNL A   1     -30.204 -14.230  13.190  0.00  0.00    +0.281 C 
BRANCH  28  29
ATOM     29  C   UNL A   1     -29.535 -15.489  12.942  0.00  0.00    +0.362 C 
ATOM     30  F   UNL A   1     -28.988 -15.999  14.105  0.00  0.00    -0.194 F 
ATOM     31  F   UNL A   1     -29.769 -16.132  12.058  0.00  0.00    -0.194 F 
ENDBRANCH  28  29
ENDBRANCH  27  28
ENDBRANCH  25  27
ENDBRANCH   1  25
TORSDOF 7
ENDMDL
ENDMDL
