REMARK  Name = No_4935-gen_results/8p0m/2024-11-26-14-13-15/
REMARK  7 active torsions:
REMARK  status: ('A' for Active; 'I' for Inactive)
REMARK    1  A    between atoms: C_1  and  C_23
REMARK    2  A    between atoms: C_2  and  C_17
REMARK    3  A    between atoms: C_5  and  N_7
REMARK    4  A    between atoms: N_7  and  C_8
REMARK    5  A    between atoms: C_23  and  O_24
REMARK    6  A    between atoms: O_24  and  C_28
REMARK    7  A    between atoms: C_28  and  C_29
REMARK                            x       y       z     vdW  Elec       q    Type
REMARK                         _______ _______ _______ _____ _____    ______ ____
ROOT
ATOM      1  C   UNL A   1     -28.016  -0.814  28.878  0.00  0.00    +0.077 A 
ATOM      2  C   UNL A   1     -27.064  -0.119  28.608  0.00  0.00    +0.008 A 
ATOM      3  C   UNL A   1     -26.972   0.714  27.506  0.00  0.00    +0.013 A 
ATOM      4  C   UNL A   1     -28.105   0.774  26.642  0.00  0.00    +0.072 A 
ATOM      5  C   UNL A   1     -29.201   0.104  27.053  0.00  0.00    +0.071 A 
ATOM      6  C   UNL A   1     -29.210  -0.603  28.185  0.00  0.00    +0.023 A 
ATOM      7 CL   UNL A   1     -28.005   1.794  25.266  0.00  0.00    -0.081 Cl
ENDROOT
BRANCH   2   8
ATOM      8  C   UNL A   1     -25.590  -0.188  29.209  0.00  0.00    +0.011 A 
ATOM      9  C   UNL A   1     -25.315   0.617  30.335  0.00  0.00    +0.058 A 
ATOM     10  C   UNL A   1     -23.997   0.510  30.920  0.00  0.00    +0.011 A 
ATOM     11  C   UNL A   1     -23.066  -0.400  30.395  0.00  0.00    +0.001 A 
ATOM     12  C   UNL A   1     -23.428  -1.219  29.309  0.00  0.00    +0.000 A 
ATOM     13  C   UNL A   1     -24.695  -1.114  28.709  0.00  0.00    +0.001 A 
ATOM     14 CL   UNL A   1     -26.392   1.797  30.952  0.00  0.00    -0.082 Cl
ENDBRANCH   2   8
BRANCH   5  15
ATOM     15  N   UNL A   1     -30.308   0.222  26.222  0.00  0.00    -0.209 N 
ATOM     16  C   UNL A   1     -30.582  -1.085  25.457  0.00  0.00    +0.401 C 
ATOM     17  O   UNL A   1     -31.126  -2.065  25.899  0.00  0.00    -0.235 OA
ATOM     18  F   UNL A   1     -29.969  -1.260  24.384  0.00  0.00    -0.143 F 
BRANCH  15  19
ATOM     19  C   UNL A   1     -31.028   1.086  26.054  0.00  0.00    +0.060 A 
ATOM     20  C   UNL A   1     -31.113   2.125  26.913  0.00  0.00    +0.015 A 
ATOM     21  C   UNL A   1     -31.912   1.107  24.830  0.00  0.00    +0.015 A 
ATOM     22  C   UNL A   1     -32.014   3.278  26.685  0.00  0.00    +0.001 A 
ATOM     23  C   UNL A   1     -32.733   2.254  24.561  0.00  0.00    +0.001 A 
ATOM     24  C   UNL A   1     -32.751   3.296  25.502  0.00  0.00    +0.000 A 
ENDBRANCH  15  19
ENDBRANCH   5  15
BRANCH   1  25
ATOM     25  C   UNL A   1     -28.024  -1.639  30.186  0.00  0.00    +0.341 C 
ATOM     26  O   UNL A   1     -28.306  -0.891  31.304  0.00  0.00    -0.245 OA
BRANCH  25  27
ATOM     27  O   UNL A   1     -27.893  -2.722  30.223  0.00  0.00    -0.439 OA
BRANCH  27  28
ATOM     28  C   UNL A   1     -26.922  -3.543  30.040  0.00  0.00    +0.281 C 
BRANCH  28  29
ATOM     29  C   UNL A   1     -27.188  -4.680  29.186  0.00  0.00    +0.362 C 
ATOM     30  F   UNL A   1     -26.072  -5.488  29.072  0.00  0.00    -0.194 F 
ATOM     31  F   UNL A   1     -28.222  -5.056  28.987  0.00  0.00    -0.194 F 
ENDBRANCH  28  29
ENDBRANCH  27  28
ENDBRANCH  25  27
ENDBRANCH   1  25
TORSDOF 7
