MODEL 4936
MODEL 1
REMARK VINA RESULT:    -4.966      0.000      0.000
REMARK INTER + INTRA:          -5.399
REMARK INTER:                  -5.256
REMARK INTRA:                  -0.143
REMARK UNBOUND:                -0.143
REMARK  Name = No_4936-gen_results/8p0m/2024-11-26-14-13-15/
REMARK  1 active torsions:
REMARK  status: ('A' for Active; 'I' for Inactive)
REMARK    1  A    between atoms: C_4  and  C_8
REMARK                            x       y       z     vdW  Elec       q    Type
REMARK                         _______ _______ _______ _____ _____    ______ ____
ROOT
ATOM      1  C   UNL A   1     -22.948  -1.278  29.267  0.00  0.00    +0.011 A 
ATOM      2  C   UNL A   1     -23.864  -1.604  28.860  0.00  0.00    +0.058 A 
ATOM      3  C   UNL A   1     -22.373  -0.050  28.696  0.00  0.00    +0.005 A 
ATOM      4  C   UNL A   1     -23.105   0.718  27.744  0.00  0.00    +0.071 A 
ATOM      5  C   UNL A   1     -24.838  -0.975  27.927  0.00  0.00    +0.011 A 
ATOM      6  C   UNL A   1     -24.336   0.162  27.368  0.00  0.00    +0.005 A 
ATOM      7 CL   UNL A   1     -24.595  -3.109  29.562  0.00  0.00    -0.082 Cl
ENDROOT
BRANCH   4   8
ATOM      8  C   UNL A   1     -22.583   1.934  27.183  0.00  0.00    +0.419 C 
ATOM      9  F   UNL A   1     -21.561   2.266  27.644  0.00  0.00    -0.166 F 
ATOM     10  F   UNL A   1     -23.489   2.974  27.445  0.00  0.00    -0.166 F 
ATOM     11  F   UNL A   1     -22.536   1.923  25.831  0.00  0.00    -0.166 F 
ENDBRANCH   4   8
TORSDOF 1
ENDMDL
ENDMDL
