REMARK  Name = No_4936-gen_results/8p0m/2024-11-26-14-13-15/
REMARK  1 active torsions:
REMARK  status: ('A' for Active; 'I' for Inactive)
REMARK    1  A    between atoms: C_4  and  C_8
REMARK                            x       y       z     vdW  Elec       q    Type
REMARK                         _______ _______ _______ _____ _____    ______ ____
ROOT
ATOM      1  C   UNL A   1     -28.016  -0.814  28.878  0.00  0.00    +0.011 A 
ATOM      2  C   UNL A   1     -28.469  -0.785  29.829  0.00  0.00    +0.058 A 
ATOM      3  C   UNL A   1     -26.546  -0.876  28.850  0.00  0.00    +0.005 A 
ATOM      4  C   UNL A   1     -25.804  -1.032  30.057  0.00  0.00    +0.071 A 
ATOM      5  C   UNL A   1     -27.944  -0.987  31.207  0.00  0.00    +0.011 A 
ATOM      6  C   UNL A   1     -26.582  -1.039  31.223  0.00  0.00    +0.005 A 
ATOM      7 CL   UNL A   1     -30.281  -0.723  29.883  0.00  0.00    -0.082 Cl
ENDROOT
BRANCH   4   8
ATOM      8  C   UNL A   1     -24.369  -1.119  30.064  0.00  0.00    +0.419 C 
ATOM      9  F   UNL A   1     -23.956  -2.054  30.632  0.00  0.00    -0.166 F 
ATOM     10  F   UNL A   1     -23.855   0.005  30.730  0.00  0.00    -0.166 F 
ATOM     11  F   UNL A   1     -23.820  -1.005  28.833  0.00  0.00    -0.166 F 
ENDBRANCH   4   8
TORSDOF 1
