REMARK  Name = No_4937-gen_results/8p0m/2024-11-26-14-13-15/
REMARK  11 active torsions:
REMARK  status: ('A' for Active; 'I' for Inactive)
REMARK    1  A    between atoms: C_2  and  C_7
REMARK    2  A    between atoms: C_4  and  N_11
REMARK    3  A    between atoms: N_11  and  C_12
REMARK    4  A    between atoms: C_13  and  N_19
REMARK    5  A    between atoms: N_19  and  C_20
REMARK    6  A    between atoms: C_23  and  C_25
REMARK    7  A    between atoms: C_25  and  N_27
REMARK    8  A    between atoms: N_27  and  C_29
REMARK    9  A    between atoms: C_29  and  C_30
REMARK   10  A    between atoms: C_30  and  C_31
REMARK   11  A    between atoms: C_31  and  C_32
REMARK                            x       y       z     vdW  Elec       q    Type
REMARK                         _______ _______ _______ _____ _____    ______ ____
ROOT
ATOM      1  C   UNL A   1     -23.506  -0.399  29.860  0.00  0.00    +0.086 A 
ATOM      2  C   UNL A   1     -23.079   0.846  30.416  0.00  0.00    +0.165 A 
ATOM      3  C   UNL A   1     -22.755  -0.867  28.682  0.00  0.00    +0.019 A 
ATOM      4  C   UNL A   1     -21.630  -0.115  28.315  0.00  0.00    +0.022 A 
ATOM      5  N   UNL A   1     -22.602   1.690  29.693  0.00  0.00    -0.226 NA
ATOM      6  C   UNL A   1     -21.684   1.221  28.668  0.00  0.00    +0.101 A 
ENDROOT
BRANCH   1   7
ATOM      7  N   UNL A   1     -24.463  -0.799  30.180  0.00  0.00    -0.281 N 
ATOM      8  C   UNL A   1     -24.056  -2.175  31.076  0.00  0.00    +0.117 C 
BRANCH   7  12
ATOM      9  C   UNL A   1     -28.016  -0.814  28.878  0.00  0.00    +0.037 A 
ATOM     10  C   UNL A   1     -28.469  -0.785  29.829  0.00  0.00    +0.082 A 
ATOM     11  C   UNL A   1     -26.504  -0.778  28.877  0.00  0.00    +0.154 A 
ATOM     12  C   UNL A   1     -25.810  -0.853  30.103  0.00  0.00    +0.080 A 
ATOM     13  C   UNL A   1     -27.991  -0.892  31.226  0.00  0.00    +0.008 A 
ATOM     14  C   UNL A   1     -26.604  -0.868  31.265  0.00  0.00    +0.017 A 
ATOM     15  F   UNL A   1     -25.755  -0.766  27.797  0.00  0.00    -0.203 F 
BRANCH  10  16
ATOM     16  C   UNL A   1     -30.074  -0.836  29.861  0.00  0.00    +0.388 C 
ATOM     17  O   UNL A   1     -30.683  -0.070  30.692  0.00  0.00    -0.241 OA
ATOM     18  O   UNL A   1     -30.626  -1.565  29.017  0.00  0.00    -0.241 OA
ENDBRANCH  10  16
ENDBRANCH   7  12
ENDBRANCH   1   7
BRANCH   2  19
ATOM     19  N   UNL A   1     -23.993   1.400  31.350  0.00  0.00    -0.193 NA
BRANCH  19  20
ATOM     20  C   UNL A   1     -24.835   2.496  31.407  0.00  0.00    +0.072 A 
ATOM     21  C   UNL A   1     -25.388   2.841  32.646  0.00  0.00    +0.012 A 
ATOM     22  C   UNL A   1     -25.145   3.148  30.235  0.00  0.00    +0.016 A 
ATOM     23  C   UNL A   1     -26.113   4.169  30.191  0.00  0.00    +0.027 A 
ATOM     24  C   UNL A   1     -26.332   3.931  32.656  0.00  0.00    -0.021 A 
ATOM     25  C   UNL A   1     -26.687   4.541  31.452  0.00  0.00    -0.004 A 
ATOM     26  C   UNL A   1     -26.926   4.339  33.954  0.00  0.00    +0.031 C 
BRANCH  23  27
ATOM     27  C   UNL A   1     -26.547   4.828  28.995  0.00  0.00    +0.245 C 
ATOM     28  F   UNL A   1     -27.226   5.861  29.333  0.00  0.00    -0.214 F 
BRANCH  27  29
ATOM     29  N   UNL A   1     -25.865   5.072  28.053  0.00  0.00    -0.241 NA
ATOM     30  C   UNL A   1     -25.033   6.023  28.145  0.00  0.00    +0.092 C 
BRANCH  29  31
ATOM     31  C   UNL A   1     -25.661   4.164  26.995  0.00  0.00    +0.075 C 
BRANCH  31  32
ATOM     32  C   UNL A   1     -25.068   2.923  27.098  0.00  0.00    +0.022 C 
BRANCH  32  33
ATOM     33  C   UNL A   1     -24.865   2.034  26.040  0.00  0.00    +0.028 C 
BRANCH  33  34
ATOM     34  C   UNL A   1     -25.004   0.870  25.922  0.00  0.00    -0.026 C 
ATOM     35  C   UNL A   1     -24.802   0.126  24.734  0.00  0.00    -0.005 C 
ENDBRANCH  33  34
ENDBRANCH  32  33
ENDBRANCH  31  32
ENDBRANCH  29  31
ENDBRANCH  27  29
ENDBRANCH  23  27
ENDBRANCH  19  20
ENDBRANCH   2  19
TORSDOF 11
