MODEL 4938
MODEL 1
REMARK VINA RESULT:    -6.928      0.000      0.000
REMARK INTER + INTRA:         -11.067
REMARK INTER:                  -9.763
REMARK INTRA:                  -1.304
REMARK UNBOUND:                -1.304
REMARK  Name = No_4938-gen_results/8p0m/2024-11-26-14-13-15/
REMARK  7 active torsions:
REMARK  status: ('A' for Active; 'I' for Inactive)
REMARK    1  A    between atoms: C_2  and  C_3
REMARK    2  A    between atoms: C_3  and  C_5
REMARK    3  A    between atoms: N_4  and  C_11
REMARK    4  A    between atoms: N_4  and  C_15
REMARK    5  A    between atoms: C_6  and  C_16
REMARK    6  A    between atoms: C_9  and  C_12
REMARK    7  A    between atoms: C_11  and  C_21
REMARK                            x       y       z     vdW  Elec       q    Type
REMARK                         _______ _______ _______ _____ _____    ______ ____
ROOT
ATOM      1  C   UNL A   1     -26.075  -0.220  28.508  0.00  0.00    +0.112 C 
ENDROOT
BRANCH   1   2
ATOM      2  C   UNL A   1     -25.108   0.627  27.837  0.00  0.00    -0.009 A 
ATOM      3  C   UNL A   1     -25.402   1.278  26.622  0.00  0.00    +0.050 A 
ATOM      4  C   UNL A   1     -24.343   1.844  25.770  0.00  0.00    +0.004 A 
ATOM      5  C   UNL A   1     -23.012   1.827  26.169  0.00  0.00    +0.005 A 
ATOM      6  C   UNL A   1     -22.704   1.190  27.419  0.00  0.00    +0.056 A 
ATOM      7  C   UNL A   1     -23.687   0.614  28.124  0.00  0.00    +0.001 A 
BRANCH   3   8
ATOM      8  C   UNL A   1     -26.716   1.311  26.080  0.00  0.00    +0.249 C 
ATOM      9  N   UNL A   1     -26.982   0.538  25.120  0.00  0.00    -0.273 N 
ATOM     10  O   UNL A   1     -27.525   2.271  26.313  0.00  0.00    -0.270 OA
ATOM     11  C   UNL A   1     -28.275   0.509  24.384  0.00  0.00    +0.115 C 
ATOM     12  C   UNL A   1     -26.084  -0.600  24.641  0.00  0.00    +0.115 C 
ENDBRANCH   3   8
BRANCH   6  13
ATOM     13  C   UNL A   1     -21.284   1.133  27.819  0.00  0.00    +0.284 C 
ATOM     14  N   UNL A   1     -20.845   0.136  28.493  0.00  0.00    -0.084 NA
ATOM     15  O   UNL A   1     -20.405   2.035  27.473  0.00  0.00    -0.267 OA
ENDBRANCH   6  13
ENDBRANCH   1   2
BRANCH   1  17
ATOM     16  O   UNL A   1     -26.732   0.928  30.054  0.00  0.00    -0.274 OA
ATOM     17  C   UNL A   1     -26.354   0.008  29.482  0.00  0.00    +0.234 C 
ATOM     18  N   UNL A   1     -25.945  -1.091  30.493  0.00  0.00    -0.252 N 
BRANCH  18  19
ATOM     19  C   UNL A   1     -25.415  -2.347  30.105  0.00  0.00    +0.054 A 
ATOM     20  C   UNL A   1     -24.235  -2.486  29.528  0.00  0.00    +0.015 A 
ATOM     21  C   UNL A   1     -23.971  -3.686  28.974  0.00  0.00    +0.001 A 
ATOM     22  C   UNL A   1     -24.884  -4.754  28.981  0.00  0.00    +0.000 A 
ATOM     23  C   UNL A   1     -26.167  -4.542  29.514  0.00  0.00    +0.001 A 
ATOM     24  C   UNL A   1     -26.448  -3.366  30.046  0.00  0.00    +0.015 A 
ENDBRANCH  18  19
BRANCH  18  25
ATOM     25  C   UNL A   1     -26.177  -0.938  31.928  0.00  0.00    +0.181 C 
BRANCH  25  26
ATOM     26  C   UNL A   1     -25.044  -0.633  32.697  0.00  0.00    +0.348 C 
ATOM     27 CL   UNL A   1     -25.387  -0.389  34.087  0.00  0.00    -0.045 Cl
ATOM     28  F   UNL A   1     -24.132  -1.487  32.794  0.00  0.00    -0.185 F 
ATOM     29  F   UNL A   1     -24.465   0.518  32.147  0.00  0.00    -0.185 F 
ENDBRANCH  25  26
ENDBRANCH  18  25
ENDBRANCH   1  17
TORSDOF 7
ENDMDL
ENDMDL
