REMARK  Name = No_4938-gen_results/8p0m/2024-11-26-14-13-15/
REMARK  7 active torsions:
REMARK  status: ('A' for Active; 'I' for Inactive)
REMARK    1  A    between atoms: C_2  and  C_3
REMARK    2  A    between atoms: C_3  and  C_5
REMARK    3  A    between atoms: N_4  and  C_11
REMARK    4  A    between atoms: N_4  and  C_15
REMARK    5  A    between atoms: C_6  and  C_16
REMARK    6  A    between atoms: C_9  and  C_12
REMARK    7  A    between atoms: C_11  and  C_21
REMARK                            x       y       z     vdW  Elec       q    Type
REMARK                         _______ _______ _______ _____ _____    ______ ____
ROOT
ATOM      1  C   UNL A   1     -28.589   0.592  28.946  0.00  0.00    +0.112 C 
ENDROOT
BRANCH   1   2
ATOM      2  C   UNL A   1     -27.582   1.265  28.148  0.00  0.00    -0.009 A 
ATOM      3  C   UNL A   1     -27.778   1.544  26.780  0.00  0.00    +0.050 A 
ATOM      4  C   UNL A   1     -26.658   1.901  25.894  0.00  0.00    +0.004 A 
ATOM      5  C   UNL A   1     -25.369   2.053  26.389  0.00  0.00    +0.005 A 
ATOM      6  C   UNL A   1     -25.162   1.798  27.787  0.00  0.00    +0.056 A 
ATOM      7  C   UNL A   1     -26.193   1.394  28.542  0.00  0.00    +0.001 A 
BRANCH   3   8
ATOM      8  C   UNL A   1     -29.038   1.369  26.145  0.00  0.00    +0.249 C 
ATOM      9  N   UNL A   1     -29.905   2.274  26.286  0.00  0.00    -0.273 N 
ATOM     10  O   UNL A   1     -29.427   0.236  25.703  0.00  0.00    -0.270 OA
ATOM     11  C   UNL A   1     -31.297   2.207  25.764  0.00  0.00    +0.115 C 
ATOM     12  C   UNL A   1     -29.638   3.652  26.886  0.00  0.00    +0.115 C 
ENDBRANCH   3   8
BRANCH   6  13
ATOM     13  C   UNL A   1     -23.783   1.916  28.301  0.00  0.00    +0.284 C 
ATOM     14  N   UNL A   1     -23.560   1.862  29.562  0.00  0.00    -0.084 NA
ATOM     15  O   UNL A   1     -22.736   2.020  27.528  0.00  0.00    -0.267 OA
ENDBRANCH   6  13
ENDBRANCH   1   2
BRANCH   1  17
ATOM     16  O   UNL A   1     -28.123  -1.335  28.487  0.00  0.00    -0.274 OA
ATOM     17  C   UNL A   1     -28.521  -0.436  29.078  0.00  0.00    +0.234 C 
ATOM     18  N   UNL A   1     -29.375  -0.943  30.266  0.00  0.00    -0.252 N 
BRANCH  18  19
ATOM     19  C   UNL A   1     -30.029  -0.078  31.179  0.00  0.00    +0.054 A 
ATOM     20  C   UNL A   1     -31.016  -0.469  31.965  0.00  0.00    +0.015 A 
ATOM     21  C   UNL A   1     -31.719   0.502  32.581  0.00  0.00    +0.001 A 
ATOM     22  C   UNL A   1     -31.450   1.871  32.412  0.00  0.00    +0.000 A 
ATOM     23  C   UNL A   1     -30.459   2.256  31.493  0.00  0.00    +0.001 A 
ATOM     24  C   UNL A   1     -29.773   1.317  30.868  0.00  0.00    +0.015 A 
ENDBRANCH  18  19
BRANCH  18  25
ATOM     25  C   UNL A   1     -29.480  -2.366  30.584  0.00  0.00    +0.181 C 
BRANCH  25  26
ATOM     26  C   UNL A   1     -30.444  -3.081  29.856  0.00  0.00    +0.348 C 
ATOM     27 CL   UNL A   1     -31.395  -3.743  30.731  0.00  0.00    -0.045 Cl
ATOM     28  F   UNL A   1     -31.194  -2.455  29.071  0.00  0.00    -0.185 F 
ATOM     29  F   UNL A   1     -29.763  -4.037  29.091  0.00  0.00    -0.185 F 
ENDBRANCH  25  26
ENDBRANCH  18  25
ENDBRANCH   1  17
TORSDOF 7
