MODEL 4939
MODEL 1
REMARK VINA RESULT:    -6.545      0.000      0.000
REMARK INTER + INTRA:          -6.442
REMARK INTER:                  -6.928
REMARK INTRA:                   0.486
REMARK UNBOUND:                 0.486
REMARK  Name = No_4939-gen_results/8p0m/2024-11-26-14-13-15/
REMARK  1 active torsions:
REMARK  status: ('A' for Active; 'I' for Inactive)
REMARK    1  A    between atoms: C_2  and  C_3
REMARK                            x       y       z     vdW  Elec       q    Type
REMARK                         _______ _______ _______ _____ _____    ______ ____
ROOT
ATOM      1  O   UNL A   1     -25.835  -1.326  30.728  0.00  0.00    -0.270 OA
ATOM      2  C   UNL A   1     -25.200  -1.640  29.819  0.00  0.00    +0.249 C 
ATOM      3  N   UNL A   1     -25.280  -2.966  29.216  0.00  0.00    -0.276 N 
ATOM      4  C   UNL A   1     -26.340  -3.828  29.670  0.00  0.00    +0.094 C 
ATOM      5  C   UNL A   1     -26.003  -4.978  29.697  0.00  0.00    +0.022 C 
ATOM      6  C   UNL A   1     -24.957  -5.482  28.931  0.00  0.00    +0.004 C 
ATOM      7  C   UNL A   1     -23.956  -4.589  28.460  0.00  0.00    +0.022 C 
ATOM      8  C   UNL A   1     -24.168  -3.298  28.601  0.00  0.00    +0.094 C 
ENDROOT
BRANCH   2   9
ATOM      9  C   UNL A   1     -24.141  -0.872  29.379  0.00  0.00    +0.050 A 
ATOM     10  C   UNL A   1     -22.922  -0.940  29.854  0.00  0.00    +0.004 A 
ATOM     11  C   UNL A   1     -24.360  -0.028  28.210  0.00  0.00    -0.018 A 
ATOM     12  C   UNL A   1     -21.856  -0.070  29.359  0.00  0.00    +0.000 A 
ATOM     13  C   UNL A   1     -23.296   0.688  27.569  0.00  0.00    -0.004 A 
ATOM     14  C   UNL A   1     -22.050   0.627  28.195  0.00  0.00    -0.000 A 
ATOM     15  C   UNL A   1     -25.664   0.043  27.573  0.00  0.00    +0.031 C 
ENDBRANCH   2   9
TORSDOF 1
ENDMDL
ENDMDL
