REMARK  Name = No_4939-gen_results/8p0m/2024-11-26-14-13-15/
REMARK  1 active torsions:
REMARK  status: ('A' for Active; 'I' for Inactive)
REMARK    1  A    between atoms: C_2  and  C_3
REMARK                            x       y       z     vdW  Elec       q    Type
REMARK                         _______ _______ _______ _____ _____    ______ ____
ROOT
ATOM      1  O   UNL A   1     -28.123  -1.335  28.487  0.00  0.00    -0.270 OA
ATOM      2  C   UNL A   1     -27.481  -0.404  28.709  0.00  0.00    +0.249 C 
ATOM      3  N   UNL A   1     -27.899   0.646  29.632  0.00  0.00    -0.276 N 
ATOM      4  C   UNL A   1     -29.070   0.388  30.429  0.00  0.00    +0.094 C 
ATOM      5  C   UNL A   1     -29.716   1.380  30.612  0.00  0.00    +0.022 C 
ATOM      6  C   UNL A   1     -29.181   2.662  30.531  0.00  0.00    +0.004 C 
ATOM      7  C   UNL A   1     -27.995   2.866  29.774  0.00  0.00    +0.022 C 
ATOM      8  C   UNL A   1     -27.347   1.803  29.348  0.00  0.00    +0.094 C 
ENDROOT
BRANCH   2   9
ATOM      9  C   UNL A   1     -26.380  -0.087  27.939  0.00  0.00    +0.050 A 
ATOM     10  C   UNL A   1     -26.319   0.918  27.102  0.00  0.00    +0.004 A 
ATOM     11  C   UNL A   1     -25.152  -0.837  28.179  0.00  0.00    -0.018 A 
ATOM     12  C   UNL A   1     -25.127   1.174  26.295  0.00  0.00    +0.000 A 
ATOM     13  C   UNL A   1     -23.907  -0.491  27.557  0.00  0.00    -0.004 A 
ATOM     14  C   UNL A   1     -23.956   0.537  26.614  0.00  0.00    -0.000 A 
ATOM     15  C   UNL A   1     -25.113  -1.916  29.151  0.00  0.00    +0.031 C 
ENDBRANCH   2   9
TORSDOF 1
