MODEL 4940
MODEL 1
REMARK VINA RESULT:    -4.947      0.000      0.000
REMARK INTER + INTRA:          -5.371
REMARK INTER:                  -5.236
REMARK INTRA:                  -0.135
REMARK UNBOUND:                -0.135
REMARK  Name = No_4940-gen_results/8p0m/2024-11-26-14-13-15/
REMARK  1 active torsions:
REMARK  status: ('A' for Active; 'I' for Inactive)
REMARK    1  A    between atoms: C_4  and  C_8
REMARK                            x       y       z     vdW  Elec       q    Type
REMARK                         _______ _______ _______ _____ _____    ______ ____
ROOT
ATOM      1  C   UNL A   1     -24.985  -3.913  29.177  0.00  0.00    +0.011 A 
ATOM      2  C   UNL A   1     -25.778  -3.465  29.708  0.00  0.00    +0.058 A 
ATOM      3  C   UNL A   1     -23.804  -3.012  28.891  0.00  0.00    +0.005 A 
ATOM      4  C   UNL A   1     -23.768  -1.719  29.454  0.00  0.00    +0.071 A 
ATOM      5  C   UNL A   1     -25.975  -2.183  30.422  0.00  0.00    +0.011 A 
ATOM      6  C   UNL A   1     -24.905  -1.330  30.187  0.00  0.00    +0.005 A 
ATOM      7 CL   UNL A   1     -27.201  -4.552  30.065  0.00  0.00    -0.082 Cl
ENDROOT
BRANCH   4   8
ATOM      8  C   UNL A   1     -22.659  -0.835  29.202  0.00  0.00    +0.419 C 
ATOM      9  F   UNL A   1     -21.616  -1.378  28.943  0.00  0.00    -0.166 F 
ATOM     10  F   UNL A   1     -22.417  -0.053  30.343  0.00  0.00    -0.166 F 
ATOM     11  F   UNL A   1     -22.948   0.097  28.253  0.00  0.00    -0.166 F 
ENDBRANCH   4   8
TORSDOF 1
ENDMDL
ENDMDL
