MODEL 4941
MODEL 1
REMARK VINA RESULT:    -7.944      0.000      0.000
REMARK INTER + INTRA:         -12.179
REMARK INTER:                 -11.195
REMARK INTRA:                  -0.984
REMARK UNBOUND:                -0.984
REMARK  Name = No_4941-gen_results/8p0m/2024-11-26-14-13-15/
REMARK  7 active torsions:
REMARK  status: ('A' for Active; 'I' for Inactive)
REMARK    1  A    between atoms: C_4  and  C_16
REMARK    2  A    between atoms: C_10  and  C_11
REMARK    3  A    between atoms: C_11  and  C_13
REMARK    4  A    between atoms: C_16  and  C_18
REMARK    5  A    between atoms: C_18  and  C_19
REMARK    6  A    between atoms: C_18  and  C_25
REMARK    7  A    between atoms: C_24  and  C_26
REMARK                            x       y       z     vdW  Elec       q    Type
REMARK                         _______ _______ _______ _____ _____    ______ ____
ROOT
ATOM      1  C   UNL A   1     -29.900  -0.648  24.010  0.00  0.00    -0.000 A 
ATOM      2  C   UNL A   1     -30.452  -1.479  23.671  0.00  0.00    -0.000 A 
ATOM      3  C   UNL A   1     -28.505  -0.874  24.258  0.00  0.00    -0.004 A 
ATOM      4  C   UNL A   1     -27.591   0.254  24.534  0.00  0.00    -0.022 A 
ATOM      5  C   UNL A   1     -27.874   1.516  23.979  0.00  0.00    -0.004 A 
ATOM      6  C   UNL A   1     -29.114   1.716  23.338  0.00  0.00    -0.000 A 
ATOM      7  C   UNL A   1     -30.006   0.714  23.235  0.00  0.00    -0.000 A 
ATOM      8  C   UNL A   1     -31.971  -1.333  23.394  0.00  0.00    -0.000 A 
ATOM      9  C   UNL A   1     -32.348  -0.061  22.884  0.00  0.00    -0.000 A 
ATOM     10  C   UNL A   1     -31.394   1.043  22.795  0.00  0.00    -0.003 A 
ENDROOT
BRANCH  10  11
ATOM     11  C   UNL A   1     -31.793   2.335  22.449  0.00  0.00    -0.005 C 
ATOM     12  C   UNL A   1     -32.222   3.233  23.323  0.00  0.00    -0.003 C 
BRANCH  11  13
ATOM     13  C   UNL A   1     -32.006   2.543  21.063  0.00  0.00    +0.114 C 
ATOM     14  N   UNL A   1     -31.330   3.350  20.290  0.00  0.00    -0.128 NA
ATOM     15  C   UNL A   1     -33.105   1.922  20.402  0.00  0.00    +0.025 C 
ENDBRANCH  11  13
ENDBRANCH  10  11
BRANCH   4  16
ATOM     16  C   UNL A   1     -26.288   0.056  25.137  0.00  0.00    +0.034 C 
ATOM     17  C   UNL A   1     -25.326  -0.599  24.412  0.00  0.00    +0.005 C 
BRANCH  16  18
ATOM     18  C   UNL A   1     -26.026   0.575  26.463  0.00  0.00    +0.091 C 
BRANCH  18  19
ATOM     19  C   UNL A   1     -24.792   0.984  26.829  0.00  0.00    -0.015 A 
ATOM     20  C   UNL A   1     -24.131   2.009  26.342  0.00  0.00    -0.004 A 
ATOM     21  C   UNL A   1     -22.749   2.314  26.704  0.00  0.00    -0.000 A 
ATOM     22  C   UNL A   1     -22.132   1.538  27.647  0.00  0.00    +0.007 A 
ATOM     23  C   UNL A   1     -24.105   0.097  27.836  0.00  0.00    +0.003 A 
ATOM     24  C   UNL A   1     -22.759   0.439  28.158  0.00  0.00    +0.080 A 
BRANCH  24  25
ATOM     25  C   UNL A   1     -22.008  -0.410  29.139  0.00  0.00    +0.388 C 
ATOM     26  O   UNL A   1     -21.156  -1.088  28.894  0.00  0.00    -0.241 OA
ATOM     27  O   UNL A   1     -22.503  -0.233  30.383  0.00  0.00    -0.241 OA
ENDBRANCH  24  25
ENDBRANCH  18  19
BRANCH  18  28
ATOM     28  C   UNL A   1     -27.175   0.693  27.299  0.00  0.00    +0.212 C 
ATOM     29  O   UNL A   1     -27.438  -0.318  28.086  0.00  0.00    -0.288 OA
ENDBRANCH  18  28
ENDBRANCH  16  18
ENDBRANCH   4  16
TORSDOF 7
ENDMDL
ENDMDL
