MODEL 4943
MODEL 1
REMARK VINA RESULT:    -7.461      0.000      0.000
REMARK INTER + INTRA:         -11.379
REMARK INTER:                 -10.078
REMARK INTRA:                  -1.301
REMARK UNBOUND:                -1.301
REMARK  Name = No_4943-gen_results/8p0m/2024-11-26-14-13-15/
REMARK  6 active torsions:
REMARK  status: ('A' for Active; 'I' for Inactive)
REMARK    1  A    between atoms: C_11  and  C_16
REMARK    2  A    between atoms: C_18  and  N_22
REMARK    3  A    between atoms: N_22  and  C_23
REMARK    4  A    between atoms: N_22  and  C_28
REMARK    5  A    between atoms: C_23  and  C_24
REMARK    6  A    between atoms: C_28  and  C_30
REMARK                            x       y       z     vdW  Elec       q    Type
REMARK                         _______ _______ _______ _____ _____    ______ ____
ROOT
ATOM      1  C   UNL A   1      -9.632   2.453  10.484  0.00  0.00    +0.086 A 
ATOM      2  N   UNL A   1      -9.846   3.617  10.093  0.00  0.00    -0.231 NA
ATOM      3  C   UNL A   1     -10.370   4.587  10.719  0.00  0.00    +0.132 A 
ATOM      4  C   UNL A   1     -10.767   4.544  11.812  0.00  0.00    +0.034 A 
ATOM      5  C   UNL A   1     -10.607   3.211  12.485  0.00  0.00    +0.004 A 
ATOM      6  C   UNL A   1      -9.928   2.203  11.836  0.00  0.00    +0.019 A 
ENDROOT
BRANCH   1  17
ATOM      7 BR   UNL A   1      -6.023   0.265  12.671  0.00  0.00    -0.046 Br
ATOM      8  C   UNL A   1      -5.213  -0.199  11.305  0.00  0.00    +0.069 A 
ATOM      9  C   UNL A   1      -3.977  -0.532  11.201  0.00  0.00    +0.011 A 
ATOM     10  C   UNL A   1      -3.326  -0.929  10.004  0.00  0.00    +0.019 A 
ATOM     11  C   UNL A   1      -4.094  -1.035   8.831  0.00  0.00    +0.095 A 
ATOM     12  C   UNL A   1      -5.428  -0.734   8.923  0.00  0.00    +0.091 A 
ATOM     13  C   UNL A   1      -5.984  -0.375  10.075  0.00  0.00    +0.156 A 
ATOM     14  N   UNL A   1      -3.471  -1.443   7.660  0.00  0.00    -0.128 NA
ATOM     15  O   UNL A   1      -7.305  -0.092  10.118  0.00  0.00    -0.450 OA
ATOM     16  C   UNL A   1      -7.933   0.656  10.631  0.00  0.00    +0.181 C 
ATOM     17  C   UNL A   1      -8.556   1.610   9.841  0.00  0.00    +0.055 C 
ATOM     18  C   UNL A   1      -8.405   1.759   8.690  0.00  0.00    +0.008 C 
ATOM     19  C   UNL A   1      -7.392   1.075   7.987  0.00  0.00    +0.042 C 
ATOM     20  C   UNL A   1      -6.471   0.033   8.274  0.00  0.00    +0.200 C 
ATOM     21  O   UNL A   1      -6.531  -0.853   7.115  0.00  0.00    -0.286 OA
ENDBRANCH   1  17
BRANCH   3  22
ATOM     22  N   UNL A   1     -10.568   5.840   9.994  0.00  0.00    -0.280 N 
BRANCH  22  23
ATOM     23  C   UNL A   1      -9.280   6.382   9.464  0.00  0.00    +0.139 C 
ATOM     24  C   UNL A   1      -9.100   6.324   8.131  0.00  0.00    +0.030 C 
BRANCH  23  25
ATOM     25  C   UNL A   1      -8.341   6.864  10.343  0.00  0.00    +0.227 C 
ATOM     26  O   UNL A   1      -8.473   7.699  11.261  0.00  0.00    -0.286 OA
ENDBRANCH  23  25
ENDBRANCH  22  23
BRANCH  22  27
ATOM     27  C   UNL A   1     -11.546   5.881   9.035  0.00  0.00    +0.197 C 
BRANCH  27  28
ATOM     28  C   UNL A   1     -12.594   6.832   9.159  0.00  0.00    +0.416 C 
ATOM     29  F   UNL A   1     -12.496   7.871   8.680  0.00  0.00    -0.168 F 
ATOM     30  F   UNL A   1     -12.742   7.114  10.543  0.00  0.00    -0.168 F 
ATOM     31  F   UNL A   1     -13.876   6.360   9.010  0.00  0.00    -0.168 F 
ENDBRANCH  27  28
ENDBRANCH  22  27
ENDBRANCH   3  22
TORSDOF 6
ENDMDL
ENDMDL
