REMARK  Name = No_4943-gen_results/8p0m/2024-11-26-14-13-15/
REMARK  6 active torsions:
REMARK  status: ('A' for Active; 'I' for Inactive)
REMARK    1  A    between atoms: C_11  and  C_16
REMARK    2  A    between atoms: C_18  and  N_22
REMARK    3  A    between atoms: N_22  and  C_23
REMARK    4  A    between atoms: N_22  and  C_28
REMARK    5  A    between atoms: C_23  and  C_24
REMARK    6  A    between atoms: C_28  and  C_30
REMARK                            x       y       z     vdW  Elec       q    Type
REMARK                         _______ _______ _______ _____ _____    ______ ____
ROOT
ATOM      1  C   UNL A   1     -31.551   1.291  26.414  0.00  0.00    +0.086 A 
ATOM      2  N   UNL A   1     -31.950   0.277  27.020  0.00  0.00    -0.231 NA
ATOM      3  C   UNL A   1     -32.991  -0.417  26.818  0.00  0.00    +0.132 A 
ATOM      4  C   UNL A   1     -33.791  -0.205  26.000  0.00  0.00    +0.034 A 
ATOM      5  C   UNL A   1     -33.505   0.992  25.139  0.00  0.00    +0.004 A 
ATOM      6  C   UNL A   1     -32.312   1.665  25.292  0.00  0.00    +0.019 A 
ENDROOT
BRANCH   1  17
ATOM      7 BR   UNL A   1     -28.115  -0.626  29.081  0.00  0.00    -0.046 Br
ATOM      8  C   UNL A   1     -26.927   0.455  28.685  0.00  0.00    +0.069 A 
ATOM      9  C   UNL A   1     -25.846   0.704  29.331  0.00  0.00    +0.011 A 
ATOM     10  C   UNL A   1     -24.851   1.641  28.947  0.00  0.00    +0.019 A 
ATOM     11  C   UNL A   1     -25.010   2.321  27.727  0.00  0.00    +0.095 A 
ATOM     12  C   UNL A   1     -26.131   2.037  26.991  0.00  0.00    +0.091 A 
ATOM     13  C   UNL A   1     -27.026   1.143  27.398  0.00  0.00    +0.156 A 
ATOM     14  N   UNL A   1     -24.033   3.223  27.333  0.00  0.00    -0.128 NA
ATOM     15  O   UNL A   1     -28.114   0.894  26.636  0.00  0.00    -0.450 OA
ATOM     16  C   UNL A   1     -29.182   0.699  26.829  0.00  0.00    +0.181 C 
ATOM     17  C   UNL A   1     -30.088   1.664  26.417  0.00  0.00    +0.055 C 
ATOM     18  C   UNL A   1     -29.823   2.712  25.968  0.00  0.00    +0.008 C 
ATOM     19  C   UNL A   1     -28.500   3.200  25.969  0.00  0.00    +0.042 C 
ATOM     20  C   UNL A   1     -27.216   2.676  26.275  0.00  0.00    +0.200 C 
ATOM     21  O   UNL A   1     -26.355   3.131  25.187  0.00  0.00    -0.286 OA
ENDBRANCH   1  17
BRANCH   3  22
ATOM     22  N   UNL A   1     -33.259  -1.528  27.729  0.00  0.00    -0.280 N 
BRANCH  22  23
ATOM     23  C   UNL A   1     -33.275  -2.840  27.012  0.00  0.00    +0.139 C 
ATOM     24  C   UNL A   1     -34.272  -3.689  27.323  0.00  0.00    +0.030 C 
BRANCH  23  25
ATOM     25  C   UNL A   1     -32.271  -3.131  26.122  0.00  0.00    +0.227 C 
ATOM     26  O   UNL A   1     -31.419  -2.373  25.615  0.00  0.00    -0.286 OA
ENDBRANCH  23  25
ENDBRANCH  22  23
BRANCH  22  27
ATOM     27  C   UNL A   1     -32.518  -1.610  28.879  0.00  0.00    +0.197 C 
BRANCH  27  28
ATOM     28  C   UNL A   1     -33.186  -1.815  30.116  0.00  0.00    +0.416 C 
ATOM     29  F   UNL A   1     -34.244  -2.260  30.139  0.00  0.00    -0.168 F 
ATOM     30  F   UNL A   1     -33.345  -0.540  30.722  0.00  0.00    -0.168 F 
ATOM     31  F   UNL A   1     -32.433  -2.327  31.145  0.00  0.00    -0.168 F 
ENDBRANCH  27  28
ENDBRANCH  22  27
ENDBRANCH   3  22
TORSDOF 6
