MODEL 4944
MODEL 1
REMARK VINA RESULT:    -6.344      0.000      0.000
REMARK INTER + INTRA:          -7.796
REMARK INTER:                  -7.457
REMARK INTRA:                  -0.339
REMARK UNBOUND:                -0.339
REMARK  Name = No_4944-gen_results/8p0m/2024-11-26-14-13-15/
REMARK  3 active torsions:
REMARK  status: ('A' for Active; 'I' for Inactive)
REMARK    1  A    between atoms: C_2  and  N_7
REMARK    2  A    between atoms: N_7  and  C_8
REMARK    3  A    between atoms: N_7  and  C_14
REMARK                            x       y       z     vdW  Elec       q    Type
REMARK                         _______ _______ _______ _____ _____    ______ ____
ROOT
ATOM      1  N   UNL A   1     -23.632  -1.156  30.008  0.00  0.00    -0.250 N 
ENDROOT
BRANCH   1   3
ATOM      2  C   UNL A   1     -25.410  -2.626  30.028  0.00  0.00    +0.035 A 
ATOM      3  C   UNL A   1     -24.282  -2.355  29.688  0.00  0.00    +0.139 A 
ATOM      4  N   UNL A   1     -23.495  -3.171  28.972  0.00  0.00    -0.229 NA
ATOM      5  C   UNL A   1     -24.003  -4.425  28.611  0.00  0.00    +0.100 A 
ATOM      6  C   UNL A   1     -25.264  -4.762  29.013  0.00  0.00    +0.021 A 
ATOM      7  C   UNL A   1     -25.969  -3.912  29.714  0.00  0.00    +0.004 A 
ENDBRANCH   1   3
BRANCH   1   8
ATOM      8  C   UNL A   1     -22.995  -0.412  29.175  0.00  0.00    +0.057 A 
ATOM      9  C   UNL A   1     -21.823  -0.298  29.093  0.00  0.00    +0.015 A 
ATOM     10  C   UNL A   1     -21.145   0.636  28.177  0.00  0.00    +0.001 A 
ATOM     11  C   UNL A   1     -21.967   1.410  27.395  0.00  0.00    +0.000 A 
ATOM     12  C   UNL A   1     -23.349   1.303  27.431  0.00  0.00    +0.001 A 
ATOM     13  C   UNL A   1     -23.932   0.421  28.300  0.00  0.00    +0.015 A 
ENDBRANCH   1   8
BRANCH   1  14
ATOM     14  C   UNL A   1     -23.583  -0.850  31.512  0.00  0.00    +0.071 C 
ATOM     15  C   UNL A   1     -22.968  -1.200  32.220  0.00  0.00    +0.018 C 
ENDBRANCH   1  14
TORSDOF 3
ENDMDL
ENDMDL
