REMARK  Name = No_4944-gen_results/8p0m/2024-11-26-14-13-15/
REMARK  3 active torsions:
REMARK  status: ('A' for Active; 'I' for Inactive)
REMARK    1  A    between atoms: C_2  and  N_7
REMARK    2  A    between atoms: N_7  and  C_8
REMARK    3  A    between atoms: N_7  and  C_14
REMARK                            x       y       z     vdW  Elec       q    Type
REMARK                         _______ _______ _______ _____ _____    ______ ____
ROOT
ATOM      1  N   UNL A   1     -27.132   1.029  27.807  0.00  0.00    -0.250 N 
ENDROOT
BRANCH   1   3
ATOM      2  C   UNL A   1     -28.016  -0.814  28.878  0.00  0.00    +0.035 A 
ATOM      3  C   UNL A   1     -27.064  -0.119  28.608  0.00  0.00    +0.139 A 
ATOM      4  N   UNL A   1     -25.818  -0.343  29.049  0.00  0.00    -0.229 NA
ATOM      5  C   UNL A   1     -25.607  -1.441  29.893  0.00  0.00    +0.100 A 
ATOM      6  C   UNL A   1     -26.676  -2.219  30.236  0.00  0.00    +0.021 A 
ATOM      7  C   UNL A   1     -27.863  -1.932  29.767  0.00  0.00    +0.004 A 
ENDBRANCH   1   3
BRANCH   1   8
ATOM      8  C   UNL A   1     -27.814   1.138  26.723  0.00  0.00    +0.057 A 
ATOM      9  C   UNL A   1     -28.595   0.356  26.306  0.00  0.00    +0.015 A 
ATOM     10  C   UNL A   1     -29.287   0.489  25.012  0.00  0.00    +0.001 A 
ATOM     11  C   UNL A   1     -28.967   1.601  24.273  0.00  0.00    +0.000 A 
ATOM     12  C   UNL A   1     -28.076   2.564  24.722  0.00  0.00    +0.001 A 
ATOM     13  C   UNL A   1     -27.457   2.396  25.931  0.00  0.00    +0.015 A 
ENDBRANCH   1   8
BRANCH   1  14
ATOM     14  C   UNL A   1     -26.171   2.149  28.232  0.00  0.00    +0.071 C 
ATOM     15  C   UNL A   1     -26.214   3.134  28.058  0.00  0.00    +0.018 C 
ENDBRANCH   1  14
TORSDOF 3
