MODEL 4945
MODEL 1
REMARK VINA RESULT:    -5.000      0.000      0.000
REMARK INTER + INTRA:          -5.000
REMARK INTER:                  -5.000
REMARK INTRA:                   0.000
REMARK UNBOUND:                 0.000
REMARK  Name = No_4945-gen_results/8p0m/2024-11-26-14-13-15/
REMARK  0 active torsions:
REMARK  status: ('A' for Active; 'I' for Inactive)
REMARK                            x       y       z     vdW  Elec       q    Type
REMARK                         _______ _______ _______ _____ _____    ______ ____
ROOT
ATOM      1  C   UNL A   1     -10.476  -9.317  19.164  0.00  0.00    +0.042 A 
ATOM      2  C   UNL A   1      -9.706  -9.141  20.080  0.00  0.00    +0.003 A 
ATOM      3  C   UNL A   1      -8.422  -9.673  20.051  0.00  0.00    +0.000 A 
ATOM      4  C   UNL A   1      -7.983 -10.490  18.949  0.00  0.00    +0.003 A 
ATOM      5  C   UNL A   1      -8.945 -10.662  17.945  0.00  0.00    +0.042 A 
ATOM      6  C   UNL A   1     -10.152 -10.152  18.028  0.00  0.00    +0.196 A 
ATOM      7  O   UNL A   1     -11.040 -10.399  17.026  0.00  0.00    -0.287 OA
ENDROOT
TORSDOF 0
ENDMDL
ENDMDL
