REMARK  Name = No_4946-gen_results/8p0m/2024-11-26-14-13-15/
REMARK  6 active torsions:
REMARK  status: ('A' for Active; 'I' for Inactive)
REMARK    1  A    between atoms: C_2  and  C_14
REMARK    2  A    between atoms: C_3  and  C_4
REMARK    3  A    between atoms: C_4  and  C_8
REMARK    4  A    between atoms: C_9  and  C_17
REMARK    5  A    between atoms: C_17  and  C_18
REMARK    6  A    between atoms: C_19  and  C_20
REMARK                            x       y       z     vdW  Elec       q    Type
REMARK                         _______ _______ _______ _____ _____    ______ ____
ROOT
ATOM      1  C   UNL A   1     -25.213   0.692  27.383  0.00  0.00    -0.021 A 
ATOM      2  C   UNL A   1     -25.365   1.100  26.094  0.00  0.00    -0.021 A 
ATOM      3  C   UNL A   1     -24.596   1.525  28.292  0.00  0.00    -0.004 A 
ATOM      4  C   UNL A   1     -24.107   2.763  27.857  0.00  0.00    -0.000 A 
ATOM      5  C   UNL A   1     -24.911   2.342  25.640  0.00  0.00    -0.004 A 
ATOM      6  C   UNL A   1     -24.237   3.211  26.580  0.00  0.00    -0.000 A 
ENDROOT
BRANCH   1   7
ATOM      7  C   UNL A   1     -25.654  -0.660  27.719  0.00  0.00    +0.052 C 
BRANCH   7  10
ATOM      8  C   UNL A   1     -28.016  -0.814  28.878  0.00  0.00    +0.003 A 
ATOM      9  C   UNL A   1     -28.469  -0.785  29.829  0.00  0.00    +0.080 A 
ATOM     10  C   UNL A   1     -26.504  -0.778  28.877  0.00  0.00    -0.018 A 
ATOM     11  C   UNL A   1     -27.918  -0.937  31.182  0.00  0.00    +0.007 A 
ATOM     12  C   UNL A   1     -26.542  -0.940  31.261  0.00  0.00    -0.000 A 
ATOM     13  C   UNL A   1     -25.783  -0.893  30.120  0.00  0.00    -0.004 A 
BRANCH   9  14
ATOM     14  C   UNL A   1     -30.030  -0.822  30.009  0.00  0.00    +0.388 C 
ATOM     15  O   UNL A   1     -30.672  -1.728  30.290  0.00  0.00    -0.241 OA
ATOM     16  O   UNL A   1     -30.632   0.288  29.584  0.00  0.00    -0.241 OA
ENDBRANCH   9  14
ENDBRANCH   7  10
ENDBRANCH   1   7
BRANCH   2  17
ATOM     17  C   UNL A   1     -25.980   0.299  25.063  0.00  0.00    +0.052 C 
BRANCH  17  18
ATOM     18  C   UNL A   1     -27.407   0.129  25.048  0.00  0.00    -0.021 C 
ATOM     19  C   UNL A   1     -28.150   0.993  25.879  0.00  0.00    -0.005 C 
BRANCH  19  20
ATOM     20  C   UNL A   1     -29.330   1.331  25.523  0.00  0.00    -0.005 C 
ATOM     21  C   UNL A   1     -30.085   0.591  24.627  0.00  0.00    -0.026 C 
ATOM     22  C   UNL A   1     -31.437   0.809  24.426  0.00  0.00    +0.031 C 
ENDBRANCH  19  20
ENDBRANCH  17  18
ENDBRANCH   2  17
TORSDOF 6
