MODEL 4946
MODEL 1
REMARK VINA RESULT:    -6.525      0.000      0.000
REMARK INTER + INTRA:         -11.559
REMARK INTER:                  -8.813
REMARK INTRA:                  -2.746
REMARK UNBOUND:                -2.746
REMARK  Name = No_4946-gen_results/8p0m/2024-11-26-14-13-15/
REMARK  6 active torsions:
REMARK  status: ('A' for Active; 'I' for Inactive)
REMARK    1  A    between atoms: C_2  and  C_14
REMARK    2  A    between atoms: C_3  and  C_4
REMARK    3  A    between atoms: C_4  and  C_8
REMARK    4  A    between atoms: C_9  and  C_17
REMARK    5  A    between atoms: C_17  and  C_18
REMARK    6  A    between atoms: C_19  and  C_20
REMARK                            x       y       z     vdW  Elec       q    Type
REMARK                         _______ _______ _______ _____ _____    ______ ____
ROOT
ATOM      1  C   UNL A   1     -24.268  -2.553  29.509  0.00  0.00    -0.021 A 
ATOM      2  C   UNL A   1     -25.483  -2.589  30.121  0.00  0.00    -0.021 A 
ATOM      3  C   UNL A   1     -23.846  -3.639  28.772  0.00  0.00    -0.004 A 
ATOM      4  C   UNL A   1     -24.666  -4.771  28.697  0.00  0.00    -0.000 A 
ATOM      5  C   UNL A   1     -26.333  -3.696  30.040  0.00  0.00    -0.004 A 
ATOM      6  C   UNL A   1     -25.886  -4.850  29.292  0.00  0.00    -0.000 A 
ENDROOT
BRANCH   1   7
ATOM      7  C   UNL A   1     -23.434  -1.375  29.734  0.00  0.00    +0.052 C 
BRANCH   7  10
ATOM      8  C   UNL A   1     -24.458  -0.272  27.571  0.00  0.00    +0.003 A 
ATOM      9  C   UNL A   1     -24.239   0.445  26.830  0.00  0.00    +0.080 A 
ATOM     10  C   UNL A   1     -23.445  -0.383  28.688  0.00  0.00    -0.018 A 
ATOM     11  C   UNL A   1     -23.244   1.524  26.776  0.00  0.00    +0.007 A 
ATOM     12  C   UNL A   1     -22.299   1.506  27.779  0.00  0.00    -0.000 A 
ATOM     13  C   UNL A   1     -22.377   0.580  28.787  0.00  0.00    -0.004 A 
BRANCH   9  14
ATOM     14  C   UNL A   1     -25.190   0.693  25.604  0.00  0.00    +0.388 C 
ATOM     15  O   UNL A   1     -25.869   1.599  25.429  0.00  0.00    -0.241 OA
ATOM     16  O   UNL A   1     -25.331  -0.379  24.826  0.00  0.00    -0.241 OA
ENDBRANCH   9  14
ENDBRANCH   7  10
ENDBRANCH   1   7
BRANCH   2  17
ATOM     17  C   UNL A   1     -26.010  -1.515  30.928  0.00  0.00    +0.052 C 
BRANCH  17  18
ATOM     18  C   UNL A   1     -26.791  -0.477  30.313  0.00  0.00    -0.021 C 
ATOM     19  C   UNL A   1     -26.372   0.848  30.552  0.00  0.00    -0.005 C 
BRANCH  19  20
ATOM     20  C   UNL A   1     -26.577   1.734  29.654  0.00  0.00    -0.005 C 
ATOM     21  C   UNL A   1     -25.728   2.811  29.454  0.00  0.00    -0.026 C 
ATOM     22  C   UNL A   1     -25.804   3.629  28.340  0.00  0.00    +0.031 C 
ENDBRANCH  19  20
ENDBRANCH  17  18
ENDBRANCH   2  17
TORSDOF 6
ENDMDL
ENDMDL
