MODEL 4947
MODEL 1
REMARK VINA RESULT:    -7.720      0.000      0.000
REMARK INTER + INTRA:         -10.855
REMARK INTER:                  -9.977
REMARK INTRA:                  -0.878
REMARK UNBOUND:                -0.878
REMARK  Name = No_4947-gen_results/8p0m/2024-11-26-14-13-15/
REMARK  5 active torsions:
REMARK  status: ('A' for Active; 'I' for Inactive)
REMARK    1  A    between atoms: C_2  and  O_15
REMARK    2  A    between atoms: C_3  and  C_7
REMARK    3  A    between atoms: C_6  and  C_21
REMARK    4  A    between atoms: O_15  and  C_16
REMARK    5  A    between atoms: C_16  and  C_17
REMARK                            x       y       z     vdW  Elec       q    Type
REMARK                         _______ _______ _______ _____ _____    ______ ____
ROOT
ATOM      1  C   UNL A   1     -11.313   0.848  36.257  0.00  0.00    +0.038 A 
ATOM      2  C   UNL A   1     -10.845   1.228  35.393  0.00  0.00    +0.149 A 
ATOM      3  C   UNL A   1     -10.496  -0.120  36.989  0.00  0.00    +0.006 A 
ATOM      4  C   UNL A   1      -9.233  -0.467  36.577  0.00  0.00    +0.004 A 
ATOM      5  C   UNL A   1      -9.552   1.051  34.733  0.00  0.00    +0.042 A 
ATOM      6  C   UNL A   1      -8.753   0.116  35.433  0.00  0.00    +0.074 A 
ENDROOT
BRANCH   3   7
ATOM      7  C   UNL A   1     -10.970  -0.738  38.261  0.00  0.00    +0.038 A 
ATOM      8  C   UNL A   1     -10.823  -0.072  39.341  0.00  0.00    +0.060 A 
ATOM      9  C   UNL A   1     -11.197  -0.744  40.595  0.00  0.00    +0.011 A 
ATOM     10  C   UNL A   1     -11.915  -1.974  40.507  0.00  0.00    +0.003 A 
ATOM     11  C   UNL A   1     -11.565  -2.015  38.234  0.00  0.00    +0.141 A 
ATOM     12  C   UNL A   1     -12.035  -2.563  39.314  0.00  0.00    +0.030 A 
ATOM     13  F   UNL A   1     -11.740  -2.501  36.962  0.00  0.00    -0.204 F 
ATOM     14 CL   UNL A   1      -9.984   1.400  39.559  0.00  0.00    -0.082 Cl
ENDBRANCH   3   7
BRANCH   6  15
ATOM     15  C   UNL A   1      -7.399  -0.212  34.899  0.00  0.00    +0.419 C 
ATOM     16  F   UNL A   1      -6.556  -0.611  35.666  0.00  0.00    -0.166 F 
ATOM     17  F   UNL A   1      -6.892   0.872  34.200  0.00  0.00    -0.166 F 
ATOM     18  F   UNL A   1      -7.576  -1.166  33.923  0.00  0.00    -0.166 F 
ENDBRANCH   6  15
BRANCH   2  19
ATOM     19  O   UNL A   1     -11.598   2.225  34.623  0.00  0.00    -0.416 OA
BRANCH  19  20
ATOM     20  C   UNL A   1     -12.864   2.061  34.504  0.00  0.00    +0.427 C 
ATOM     21  O   UNL A   1     -13.682   2.380  35.328  0.00  0.00    -0.237 OA
BRANCH  20  22
ATOM     22  C   UNL A   1     -13.175   1.732  33.191  0.00  0.00    +0.463 C 
ATOM     23  O   UNL A   1     -12.461   1.059  32.558  0.00  0.00    -0.233 OA
ATOM     24  O   UNL A   1     -14.049   2.466  32.499  0.00  0.00    -0.233 OA
ENDBRANCH  20  22
ENDBRANCH  19  20
ENDBRANCH   2  19
TORSDOF 5
ENDMDL
ENDMDL
