REMARK  Name = No_4947-gen_results/8p0m/2024-11-26-14-13-15/
REMARK  5 active torsions:
REMARK  status: ('A' for Active; 'I' for Inactive)
REMARK    1  A    between atoms: C_2  and  O_15
REMARK    2  A    between atoms: C_3  and  C_7
REMARK    3  A    between atoms: C_6  and  C_21
REMARK    4  A    between atoms: O_15  and  C_16
REMARK    5  A    between atoms: C_16  and  C_17
REMARK                            x       y       z     vdW  Elec       q    Type
REMARK                         _______ _______ _______ _____ _____    ______ ____
ROOT
ATOM      1  C   UNL A   1     -28.016  -0.814  28.878  0.00  0.00    +0.038 A 
ATOM      2  C   UNL A   1     -28.469  -0.785  29.829  0.00  0.00    +0.149 A 
ATOM      3  C   UNL A   1     -27.087   0.290  28.638  0.00  0.00    +0.006 A 
ATOM      4  C   UNL A   1     -26.832   1.249  29.587  0.00  0.00    +0.004 A 
ATOM      5  C   UNL A   1     -28.391   0.080  31.006  0.00  0.00    +0.042 A 
ATOM      6  C   UNL A   1     -27.494   1.152  30.784  0.00  0.00    +0.074 A 
ENDROOT
BRANCH   3   7
ATOM      7  C   UNL A   1     -26.317   0.399  27.365  0.00  0.00    +0.038 A 
ATOM      8  C   UNL A   1     -26.881   0.971  26.372  0.00  0.00    +0.060 A 
ATOM      9  C   UNL A   1     -26.146   0.970  25.097  0.00  0.00    +0.011 A 
ATOM     10  C   UNL A   1     -24.779   0.561  25.112  0.00  0.00    +0.003 A 
ATOM     11  C   UNL A   1     -25.007  -0.116  27.299  0.00  0.00    +0.141 A 
ATOM     12  C   UNL A   1     -24.288   0.006  26.223  0.00  0.00    +0.030 A 
ATOM     13  F   UNL A   1     -24.547  -0.575  28.508  0.00  0.00    -0.204 F 
ATOM     14 CL   UNL A   1     -28.502   1.495  26.245  0.00  0.00    -0.082 Cl
ENDBRANCH   3   7
BRANCH   6  15
ATOM     15  C   UNL A   1     -27.295   2.157  31.868  0.00  0.00    +0.419 C 
ATOM     16  F   UNL A   1     -27.560   1.844  33.004  0.00  0.00    -0.166 F 
ATOM     17  F   UNL A   1     -27.972   3.326  31.557  0.00  0.00    -0.166 F 
ATOM     18  F   UNL A   1     -25.972   2.534  31.826  0.00  0.00    -0.166 F 
ENDBRANCH   6  15
BRANCH   2  19
ATOM     19  O   UNL A   1     -29.394  -1.878  30.149  0.00  0.00    -0.416 OA
BRANCH  19  20
ATOM     20  C   UNL A   1     -30.652  -1.638  30.087  0.00  0.00    +0.427 C 
ATOM     21  O   UNL A   1     -31.140  -0.552  29.910  0.00  0.00    -0.237 OA
BRANCH  20  22
ATOM     22  C   UNL A   1     -31.354  -2.831  29.968  0.00  0.00    +0.463 C 
ATOM     23  O   UNL A   1     -32.182  -2.959  29.154  0.00  0.00    -0.233 OA
ATOM     24  O   UNL A   1     -31.399  -3.693  30.986  0.00  0.00    -0.233 OA
ENDBRANCH  20  22
ENDBRANCH  19  20
ENDBRANCH   2  19
TORSDOF 5
