MODEL 4948
MODEL 1
REMARK VINA RESULT:    -6.350      0.000      0.000
REMARK INTER + INTRA:          -6.791
REMARK INTER:                  -6.721
REMARK INTRA:                  -0.070
REMARK UNBOUND:                -0.070
REMARK  Name = No_4948-gen_results/8p0m/2024-11-26-14-13-15/
REMARK  1 active torsions:
REMARK  status: ('A' for Active; 'I' for Inactive)
REMARK    1  A    between atoms: C_9  and  C_11
REMARK                            x       y       z     vdW  Elec       q    Type
REMARK                         _______ _______ _______ _____ _____    ______ ____
ROOT
ATOM      1  C   UNL A   1     -30.675  -9.804  29.636  0.00  0.00    +0.000 A 
ATOM      2  C   UNL A   1     -30.552 -10.121  28.638  0.00  0.00    +0.000 A 
ATOM      3  C   UNL A   1     -29.992 -10.521  30.643  0.00  0.00    +0.000 A 
ATOM      4  C   UNL A   1     -29.971 -10.141  32.081  0.00  0.00    +0.000 A 
ATOM      5  C   UNL A   1     -29.775 -11.231  28.059  0.00  0.00    +0.000 A 
ATOM      6  C   UNL A   1     -29.074 -11.986  28.999  0.00  0.00    +0.000 A 
ATOM      7  C   UNL A   1     -29.124 -11.627  30.308  0.00  0.00    +0.000 A 
ATOM      8  C   UNL A   1     -29.262 -10.302  32.950  0.00  0.00    +0.007 A 
ATOM      9  C   UNL A   1     -28.145 -11.307  32.618  0.00  0.00    +0.080 A 
ATOM     10  C   UNL A   1     -28.113 -11.933  31.349  0.00  0.00    +0.007 A 
ENDROOT
BRANCH   9  11
ATOM     11  C   UNL A   1     -27.205 -11.723  33.733  0.00  0.00    +0.388 C 
ATOM     12  O   UNL A   1     -26.706 -12.727  33.713  0.00  0.00    -0.241 OA
ATOM     13  O   UNL A   1     -26.748 -10.796  34.533  0.00  0.00    -0.241 OA
ENDBRANCH   9  11
TORSDOF 1
ENDMDL
ENDMDL
