MODEL 4949
MODEL 1
REMARK VINA RESULT:    -7.308      0.000      0.000
REMARK INTER + INTRA:          -8.355
REMARK INTER:                  -8.163
REMARK INTRA:                  -0.192
REMARK UNBOUND:                -0.192
REMARK  Name = No_4949-gen_results/8p0m/2024-11-26-14-13-15/
REMARK  2 active torsions:
REMARK  status: ('A' for Active; 'I' for Inactive)
REMARK    1  A    between atoms: N_7  and  C_8
REMARK    2  A    between atoms: N_7  and  C_14
REMARK                            x       y       z     vdW  Elec       q    Type
REMARK                         _______ _______ _______ _____ _____    ______ ____
ROOT
ATOM      1  N   UNL A   1     -25.540  -0.609  31.623  0.00  0.00    -0.212 NA
ATOM      2  C   UNL A   1     -24.671  -1.028  31.098  0.00  0.00    +0.228 A 
ATOM      3  C   UNL A   1     -25.461  -0.510  33.035  0.00  0.00    +0.103 A 
ATOM      4  C   UNL A   1     -24.207  -0.857  33.619  0.00  0.00    +0.041 A 
ATOM      5  N   UNL A   1     -23.579  -1.403  31.446  0.00  0.00    -0.212 NA
ATOM      6  C   UNL A   1     -23.261  -1.381  32.746  0.00  0.00    +0.103 A 
ATOM      7  N   UNL A   1     -24.779  -1.131  29.626  0.00  0.00    -0.234 N 
ENDROOT
BRANCH   7   8
ATOM      8  C   UNL A   1     -24.565  -0.502  28.751  0.00  0.00    +0.077 A 
ATOM      9  C   UNL A   1     -25.379  -0.450  27.760  0.00  0.00    +0.018 A 
ATOM     10  C   UNL A   1     -23.316   0.264  28.579  0.00  0.00    +0.114 A 
ATOM     11  C   UNL A   1     -25.119   0.214  26.453  0.00  0.00    +0.022 A 
ATOM     12  N   UNL A   1     -23.062   0.932  27.412  0.00  0.00    -0.241 NA
ATOM     13  C   UNL A   1     -23.962   0.949  26.472  0.00  0.00    +0.099 A 
ENDBRANCH   7   8
BRANCH   7  14
ATOM     14  C   UNL A   1     -24.883  -2.605  29.315  0.00  0.00    +0.058 A 
ATOM     15  C   UNL A   1     -23.886  -3.270  28.656  0.00  0.00    +0.015 A 
ATOM     16  C   UNL A   1     -24.000  -4.655  28.592  0.00  0.00    +0.001 A 
ATOM     17  C   UNL A   1     -25.098  -5.298  29.098  0.00  0.00    +0.000 A 
ATOM     18  C   UNL A   1     -25.951  -3.352  29.805  0.00  0.00    +0.015 A 
ATOM     19  C   UNL A   1     -26.070  -4.664  29.590  0.00  0.00    +0.001 A 
ENDBRANCH   7  14
TORSDOF 2
ENDMDL
ENDMDL
