MODEL 494
MODEL 1
REMARK VINA RESULT:    -4.265      0.000      0.000
REMARK INTER + INTRA:          -4.265
REMARK INTER:                  -4.265
REMARK INTRA:                   0.000
REMARK UNBOUND:                 0.000
REMARK  Name = No_494-gen_results/8p0m/2024-11-26-14-13-15/
REMARK  0 active torsions:
REMARK  status: ('A' for Active; 'I' for Inactive)
REMARK                            x       y       z     vdW  Elec       q    Type
REMARK                         _______ _______ _______ _____ _____    ______ ____
ROOT
ATOM      1  C   UNL A   1     -26.208  -4.770  29.653  0.00  0.00    +0.000 A 
ATOM      2  C   UNL A   1     -26.132  -3.722  29.735  0.00  0.00    +0.000 A 
ATOM      3  C   UNL A   1     -25.060  -5.389  28.992  0.00  0.00    +0.000 A 
ATOM      4  C   UNL A   1     -23.988  -4.654  28.548  0.00  0.00    +0.000 A 
ATOM      5  C   UNL A   1     -25.145  -2.706  29.370  0.00  0.00    +0.000 A 
ATOM      6  C   UNL A   1     -24.029  -3.296  28.730  0.00  0.00    +0.000 A 
ENDROOT
TORSDOF 0
ENDMDL
ENDMDL
