MODEL 4950
MODEL 1
REMARK VINA RESULT:    -8.274      0.000      0.000
REMARK INTER + INTRA:          -9.617
REMARK INTER:                  -8.758
REMARK INTRA:                  -0.859
REMARK UNBOUND:                -0.859
REMARK  Name = No_4950-gen_results/8p0m/2024-11-26-14-13-15/
REMARK  1 active torsions:
REMARK  status: ('A' for Active; 'I' for Inactive)
REMARK    1  A    between atoms: C_10  and  C_28
REMARK                            x       y       z     vdW  Elec       q    Type
REMARK                         _______ _______ _______ _____ _____    ______ ____
ROOT
ATOM      1  O   UNL A   1      -4.882   2.140   9.076  0.00  0.00    -0.269 OA
ATOM      2  C   UNL A   1      -5.586   1.747   9.899  0.00  0.00    +0.259 C 
ATOM      3  C   UNL A   1      -5.965   2.540  10.963  0.00  0.00    +0.054 A 
ATOM      4  N   UNL A   1      -6.029   0.343   9.988  0.00  0.00    -0.200 N 
ATOM      5  C   UNL A   1      -5.311   2.392  12.116  0.00  0.00    +0.004 A 
ATOM      6  C   UNL A   1      -7.035   3.492  10.834  0.00  0.00    +0.007 A 
ATOM      7  C   UNL A   1      -5.809   3.132  13.349  0.00  0.00    +0.000 A 
ATOM      8  C   UNL A   1      -7.445   4.252  11.952  0.00  0.00    +0.000 A 
ATOM      9  C   UNL A   1      -6.865   4.044  13.203  0.00  0.00    +0.000 A 
ATOM     10  C   UNL A   1      -5.593  -0.552   8.938  0.00  0.00    +0.259 C 
ATOM     11  C   UNL A   1      -6.818  -0.135  11.016  0.00  0.00    +0.071 C 
ATOM     12  C   UNL A   1      -7.768  -0.646  10.906  0.00  0.00    -0.005 C 
ATOM     13  C   UNL A   1      -8.864  -0.396  11.147  0.00  0.00    +0.057 C 
ATOM     14  C   UNL A   1      -9.259   0.932  11.385  0.00  0.00    +0.017 A 
ATOM     15  C   UNL A   1      -9.307   1.199  12.812  0.00  0.00    -0.001 A 
ATOM     16  C   UNL A   1      -9.738   1.845  10.511  0.00  0.00    +0.142 A 
ATOM     17  C   UNL A   1      -9.922   2.474  13.260  0.00  0.00    -0.000 A 
ATOM     18  C   UNL A   1     -10.439   2.995  10.921  0.00  0.00    +0.037 A 
ATOM     19  C   UNL A   1     -10.505   3.291  12.365  0.00  0.00    +0.003 A 
ATOM     20  C   UNL A   1      -7.592   3.762   9.532  0.00  0.00    +0.035 A 
ATOM     21  C   UNL A   1      -7.136   4.707   8.764  0.00  0.00    +0.003 A 
ATOM     22  C   UNL A   1      -7.611   4.988   7.468  0.00  0.00    +0.000 A 
ATOM     23  C   UNL A   1      -8.535   4.123   6.889  0.00  0.00    +0.003 A 
ATOM     24  C   UNL A   1      -9.018   3.050   7.604  0.00  0.00    +0.037 A 
ATOM     25  C   UNL A   1      -8.495   2.758   8.911  0.00  0.00    +0.145 A 
ATOM     26  O   UNL A   1      -9.165   1.871   9.417  0.00  0.00    -0.454 OA
ATOM     27  O   UNL A   1      -6.392  -0.888   8.286  0.00  0.00    -0.269 OA
ENDROOT
BRANCH  10  28
ATOM     28  C   UNL A   1      -4.231  -0.798   8.970  0.00  0.00    +0.054 A 
ATOM     29  C   UNL A   1      -3.749  -0.773   7.721  0.00  0.00    +0.004 A 
ATOM     30  C   UNL A   1      -2.406  -0.191   7.646  0.00  0.00    +0.000 A 
ATOM     31  C   UNL A   1      -1.670   0.102   8.811  0.00  0.00    +0.000 A 
ATOM     32  C   UNL A   1      -2.293   0.052  10.068  0.00  0.00    +0.000 A 
ATOM     33  C   UNL A   1      -3.369  -1.157   9.990  0.00  0.00    +0.004 A 
ENDBRANCH  10  28
TORSDOF 1
ENDMDL
ENDMDL
