REMARK  Name = No_4950-gen_results/8p0m/2024-11-26-14-13-15/
REMARK  1 active torsions:
REMARK  status: ('A' for Active; 'I' for Inactive)
REMARK    1  A    between atoms: C_10  and  C_28
REMARK                            x       y       z     vdW  Elec       q    Type
REMARK                         _______ _______ _______ _____ _____    ______ ____
ROOT
ATOM      1  O   UNL A   1     -28.123  -1.335  28.487  0.00  0.00    -0.269 OA
ATOM      2  C   UNL A   1     -27.481  -0.404  28.709  0.00  0.00    +0.259 C 
ATOM      3  C   UNL A   1     -26.380  -0.087  27.939  0.00  0.00    +0.054 A 
ATOM      4  N   UNL A   1     -27.666   0.447  29.899  0.00  0.00    -0.200 N 
ATOM      5  C   UNL A   1     -25.177  -0.439  28.395  0.00  0.00    +0.004 A 
ATOM      6  C   UNL A   1     -26.526   0.604  26.687  0.00  0.00    +0.007 A 
ATOM      7  C   UNL A   1     -23.937   0.037  27.652  0.00  0.00    +0.000 A 
ATOM      8  C   UNL A   1     -25.382   0.970  25.943  0.00  0.00    +0.000 A 
ATOM      9  C   UNL A   1     -24.103   0.725  26.441  0.00  0.00    +0.000 A 
ATOM     10  C   UNL A   1     -28.759   0.110  30.785  0.00  0.00    +0.259 C 
ATOM     11  C   UNL A   1     -26.849   1.521  30.193  0.00  0.00    +0.071 C 
ATOM     12  C   UNL A   1     -27.173   2.542  30.360  0.00  0.00    -0.005 C 
ATOM     13  C   UNL A   1     -27.064   3.538  29.795  0.00  0.00    +0.057 C 
ATOM     14  C   UNL A   1     -26.695   3.555  28.439  0.00  0.00    +0.017 A 
ATOM     15  C   UNL A   1     -25.268   3.787  28.305  0.00  0.00    -0.001 A 
ATOM     16  C   UNL A   1     -27.487   3.565  27.344  0.00  0.00    +0.142 A 
ATOM     17  C   UNL A   1     -24.734   4.065  26.947  0.00  0.00    -0.000 A 
ATOM     18  C   UNL A   1     -27.021   3.954  26.073  0.00  0.00    +0.037 A 
ATOM     19  C   UNL A   1     -25.576   4.198  25.907  0.00  0.00    +0.003 A 
ATOM     20  C   UNL A   1     -27.842   0.800  26.133  0.00  0.00    +0.035 A 
ATOM     21  C   UNL A   1     -28.387  -0.053  25.316  0.00  0.00    +0.003 A 
ATOM     22  C   UNL A   1     -29.683   0.064  24.779  0.00  0.00    +0.000 A 
ATOM     23  C   UNL A   1     -30.514   1.079  25.245  0.00  0.00    +0.003 A 
ATOM     24  C   UNL A   1     -30.045   1.986  26.168  0.00  0.00    +0.037 A 
ATOM     25  C   UNL A   1     -28.732   1.829  26.733  0.00  0.00    +0.145 A 
ATOM     26  O   UNL A   1     -28.467   2.816  27.401  0.00  0.00    -0.454 OA
ATOM     27  O   UNL A   1     -29.565   0.836  30.785  0.00  0.00    -0.269 OA
ENDROOT
BRANCH  10  28
ATOM     28  C   UNL A   1     -28.561  -1.084  31.456  0.00  0.00    +0.054 A 
ATOM     29  C   UNL A   1     -29.488  -1.211  32.414  0.00  0.00    +0.004 A 
ATOM     30  C   UNL A   1     -29.934  -2.596  32.589  0.00  0.00    +0.000 A 
ATOM     31  C   UNL A   1     -29.280  -3.662  31.941  0.00  0.00    +0.000 A 
ATOM     32  C   UNL A   1     -28.331  -3.400  30.940  0.00  0.00    +0.000 A 
ATOM     33  C   UNL A   1     -27.567  -2.043  31.386  0.00  0.00    +0.004 A 
ENDBRANCH  10  28
TORSDOF 1
