REMARK  Name = No_4951-gen_results/8p0m/2024-11-26-14-13-15/
REMARK  5 active torsions:
REMARK  status: ('A' for Active; 'I' for Inactive)
REMARK    1  A    between atoms: C_2  and  C_15
REMARK    2  A    between atoms: C_4  and  C_7
REMARK    3  A    between atoms: C_18  and  C_19
REMARK    4  A    between atoms: C_22  and  C_27
REMARK    5  A    between atoms: C_27  and  C_28
REMARK                            x       y       z     vdW  Elec       q    Type
REMARK                         _______ _______ _______ _____ _____    ______ ____
ROOT
ATOM      1  C   UNL A   1     -30.097  -0.753  29.873  0.00  0.00    +0.272 C 
ATOM      2  O   UNL A   1     -30.754  -1.581  30.294  0.00  0.00    -0.268 OA
ATOM      3  N   UNL A   1     -30.615   0.347  29.285  0.00  0.00    -0.137 NA
ATOM      4  C   UNL A   1     -32.026   0.518  29.155  0.00  0.00    +0.272 C 
ATOM      5  O   UNL A   1     -32.743  -0.066  29.876  0.00  0.00    -0.268 OA
ENDROOT
BRANCH   1   7
ATOM      6  C   UNL A   1     -28.016  -0.814  28.878  0.00  0.00    +0.016 A 
ATOM      7  C   UNL A   1     -28.469  -0.785  29.829  0.00  0.00    +0.056 A 
ATOM      8  C   UNL A   1     -26.546  -0.876  28.850  0.00  0.00    +0.062 A 
ATOM      9  C   UNL A   1     -25.804  -1.032  30.057  0.00  0.00    +0.064 A 
ATOM     10  C   UNL A   1     -27.944  -0.987  31.207  0.00  0.00    +0.005 A 
ATOM     11  C   UNL A   1     -26.582  -1.039  31.223  0.00  0.00    +0.005 A 
ATOM     12 CL   UNL A   1     -25.767  -0.667  27.327  0.00  0.00    -0.082 Cl
BRANCH   9  13
ATOM     13  C   UNL A   1     -24.381  -1.108  30.085  0.00  0.00    +0.250 C 
ATOM     14  N   UNL A   1     -23.740   0.068  29.843  0.00  0.00    -0.276 N 
ATOM     15  C   UNL A   1     -22.588   0.190  29.093  0.00  0.00    +0.094 C 
ATOM     16  C   UNL A   1     -24.194   1.270  30.414  0.00  0.00    +0.094 C 
ATOM     17  C   UNL A   1     -22.207   1.297  28.343  0.00  0.00    +0.022 C 
ATOM     18  C   UNL A   1     -23.948   2.507  29.758  0.00  0.00    +0.022 C 
ATOM     19  C   UNL A   1     -22.819   2.558  28.855  0.00  0.00    +0.004 C 
ATOM     20  O   UNL A   1     -23.829  -2.156  30.294  0.00  0.00    -0.270 OA
ENDBRANCH   9  13
ENDBRANCH   1   7
BRANCH   4  21
ATOM     21  C   UNL A   1     -32.362   1.242  28.163  0.00  0.00    +0.056 A 
ATOM     22  C   UNL A   1     -33.455   1.467  27.680  0.00  0.00    +0.005 A 
ATOM     23  C   UNL A   1     -31.323   2.256  27.649  0.00  0.00    +0.008 A 
ATOM     24  C   UNL A   1     -31.570   3.111  26.557  0.00  0.00    +0.039 A 
ATOM     25  C   UNL A   1     -33.833   2.320  26.552  0.00  0.00    +0.000 A 
ATOM     26  C   UNL A   1     -32.857   3.180  26.063  0.00  0.00    +0.003 A 
BRANCH  24  27
ATOM     27  C   UNL A   1     -30.514   4.005  26.078  0.00  0.00    +0.196 C 
ATOM     28  O   UNL A   1     -30.806   5.067  25.476  0.00  0.00    -0.287 OA
BRANCH  27  29
ATOM     29  C   UNL A   1     -29.207   3.684  26.389  0.00  0.00    +0.039 A 
ATOM     30  C   UNL A   1     -28.407   3.360  25.436  0.00  0.00    +0.003 A 
ATOM     31  C   UNL A   1     -27.071   2.852  25.760  0.00  0.00    +0.000 A 
ATOM     32  C   UNL A   1     -26.480   3.032  26.578  0.00  0.00    +0.000 A 
ATOM     33  C   UNL A   1     -26.882   3.652  27.666  0.00  0.00    +0.000 A 
ATOM     34  C   UNL A   1     -28.548   4.008  27.651  0.00  0.00    +0.003 A 
ENDBRANCH  27  29
ENDBRANCH  24  27
ENDBRANCH   4  21
TORSDOF 5
