REMARK  Name = No_4952-gen_results/8p0m/2024-11-26-14-13-15/
REMARK  2 active torsions:
REMARK  status: ('A' for Active; 'I' for Inactive)
REMARK    1  A    between atoms: C_10  and  C_11
REMARK    2  A    between atoms: N_13  and  C_14
REMARK                            x       y       z     vdW  Elec       q    Type
REMARK                         _______ _______ _______ _____ _____    ______ ____
ROOT
ATOM      1  C   UNL A   1     -25.833   3.559  30.016  0.00  0.00    +0.253 C 
ATOM      2  O   UNL A   1     -25.956   4.766  29.560  0.00  0.00    -0.270 OA
ATOM      3  N   UNL A   1     -25.331   3.332  31.244  0.00  0.00    -0.253 N 
ATOM      4  C   UNL A   1     -24.918   2.027  31.783  0.00  0.00    +0.120 C 
ENDROOT
BRANCH   1  14
ATOM      5  C   UNL A   1     -28.016  -0.814  28.878  0.00  0.00    +0.000 A 
ATOM      6  C   UNL A   1     -28.469  -0.785  29.829  0.00  0.00    +0.000 A 
ATOM      7  C   UNL A   1     -27.136   0.236  28.535  0.00  0.00    +0.000 A 
ATOM      8  C   UNL A   1     -26.875   1.282  29.398  0.00  0.00    +0.004 A 
ATOM      9  C   UNL A   1     -27.507   1.238  30.630  0.00  0.00    +0.000 A 
ATOM     10  C   UNL A   1     -28.329   0.174  30.935  0.00  0.00    +0.000 A 
ATOM     11  C   UNL A   1     -26.408   0.307  27.226  0.00  0.00    +0.000 A 
ATOM     12  C   UNL A   1     -25.713   1.490  26.921  0.00  0.00    +0.000 A 
ATOM     13  C   UNL A   1     -25.430   2.454  27.866  0.00  0.00    +0.004 A 
ATOM     14  C   UNL A   1     -26.092   2.416  29.092  0.00  0.00    +0.054 A 
ENDBRANCH   1  14
BRANCH   3  15
ATOM     15  C   UNL A   1     -25.042   4.445  32.197  0.00  0.00    +0.056 A 
ATOM     16  C   UNL A   1     -25.936   4.556  33.320  0.00  0.00    +0.015 A 
ATOM     17  C   UNL A   1     -25.747   5.611  34.062  0.00  0.00    +0.004 A 
ATOM     18  C   UNL A   1     -24.729   6.580  33.834  0.00  0.00    +0.030 A 
ATOM     19  C   UNL A   1     -23.880   6.414  32.703  0.00  0.00    +0.141 A 
ATOM     20  C   UNL A   1     -24.064   5.304  31.929  0.00  0.00    +0.044 A 
ATOM     21  F   UNL A   1     -22.886   7.217  32.576  0.00  0.00    -0.204 F 
ENDBRANCH   3  15
TORSDOF 2
