MODEL 4952
MODEL 1
REMARK VINA RESULT:    -7.470      0.000      0.000
REMARK INTER + INTRA:          -8.645
REMARK INTER:                  -8.343
REMARK INTRA:                  -0.302
REMARK UNBOUND:                -0.302
REMARK  Name = No_4952-gen_results/8p0m/2024-11-26-14-13-15/
REMARK  2 active torsions:
REMARK  status: ('A' for Active; 'I' for Inactive)
REMARK    1  A    between atoms: C_10  and  C_11
REMARK    2  A    between atoms: N_13  and  C_14
REMARK                            x       y       z     vdW  Elec       q    Type
REMARK                         _______ _______ _______ _____ _____    ______ ____
ROOT
ATOM      1  C   UNL A   1     -25.400   0.580  25.499  0.00  0.00    +0.253 C 
ATOM      2  O   UNL A   1     -25.151   0.014  24.360  0.00  0.00    -0.270 OA
ATOM      3  N   UNL A   1     -26.582   1.180  25.729  0.00  0.00    -0.253 N 
ATOM      4  C   UNL A   1     -26.902   2.056  26.868  0.00  0.00    +0.120 C 
ENDROOT
BRANCH   1  14
ATOM      5  C   UNL A   1     -22.915  -0.922  29.592  0.00  0.00    +0.000 A 
ATOM      6  C   UNL A   1     -23.623  -1.697  29.684  0.00  0.00    +0.000 A 
ATOM      7  C   UNL A   1     -23.078  -0.002  28.533  0.00  0.00    +0.000 A 
ATOM      8  C   UNL A   1     -24.118  -0.105  27.630  0.00  0.00    +0.004 A 
ATOM      9  C   UNL A   1     -25.007  -1.148  27.829  0.00  0.00    +0.000 A 
ATOM     10  C   UNL A   1     -24.828  -2.000  28.898  0.00  0.00    +0.000 A 
ATOM     11  C   UNL A   1     -22.158   1.158  28.300  0.00  0.00    +0.000 A 
ATOM     12  C   UNL A   1     -22.307   1.889  27.109  0.00  0.00    +0.000 A 
ATOM     13  C   UNL A   1     -23.418   1.779  26.299  0.00  0.00    +0.004 A 
ATOM     14  C   UNL A   1     -24.291   0.709  26.490  0.00  0.00    +0.054 A 
ENDBRANCH   1  14
BRANCH   3  15
ATOM     15  C   UNL A   1     -27.715   1.091  24.760  0.00  0.00    +0.056 A 
ATOM     16  C   UNL A   1     -28.192   2.344  24.237  0.00  0.00    +0.015 A 
ATOM     17  C   UNL A   1     -29.264   2.252  23.500  0.00  0.00    +0.004 A 
ATOM     18  C   UNL A   1     -29.919   1.028  23.187  0.00  0.00    +0.030 A 
ATOM     19  C   UNL A   1     -29.399  -0.177  23.740  0.00  0.00    +0.141 A 
ATOM     20  C   UNL A   1     -28.269  -0.089  24.502  0.00  0.00    +0.044 A 
ATOM     21  F   UNL A   1     -29.915  -1.287  23.352  0.00  0.00    -0.204 F 
ENDBRANCH   3  15
TORSDOF 2
ENDMDL
ENDMDL
