MODEL 4953
MODEL 1
REMARK VINA RESULT:    -6.885      0.000      0.000
REMARK INTER + INTRA:          -8.145
REMARK INTER:                  -7.690
REMARK INTRA:                  -0.455
REMARK UNBOUND:                -0.455
REMARK  Name = No_4953-gen_results/8p0m/2024-11-26-14-13-15/
REMARK  2 active torsions:
REMARK  status: ('A' for Active; 'I' for Inactive)
REMARK    1  A    between atoms: C_2  and  C_3
REMARK    2  A    between atoms: C_6  and  C_7
REMARK                            x       y       z     vdW  Elec       q    Type
REMARK                         _______ _______ _______ _____ _____    ______ ____
ROOT
ATOM      1  C   UNL A   1     -25.781  -2.756  29.502  0.00  0.00    +0.003 A 
ATOM      2  C   UNL A   1     -24.652  -2.695  29.072  0.00  0.00    +0.000 A 
ATOM      3  C   UNL A   1     -26.327  -4.096  29.818  0.00  0.00    +0.042 A 
ATOM      4  C   UNL A   1     -25.532  -5.214  29.365  0.00  0.00    +0.003 A 
ATOM      5  C   UNL A   1     -24.392  -5.159  28.725  0.00  0.00    +0.000 A 
ATOM      6  C   UNL A   1     -23.863  -3.928  28.556  0.00  0.00    +0.000 A 
ENDROOT
BRANCH   2   7
ATOM      7  C   UNL A   1     -23.970  -1.524  28.786  0.00  0.00    +0.000 A 
ATOM      8  C   UNL A   1     -24.583  -0.626  27.863  0.00  0.00    +0.000 A 
ATOM      9  C   UNL A   1     -23.953   0.485  27.468  0.00  0.00    +0.000 A 
ATOM     10  C   UNL A   1     -22.651   0.791  27.939  0.00  0.00    +0.000 A 
ATOM     11  C   UNL A   1     -22.009  -0.020  28.837  0.00  0.00    +0.000 A 
ATOM     12  C   UNL A   1     -22.628  -1.189  29.239  0.00  0.00    +0.000 A 
ENDBRANCH   2   7
BRANCH   3  13
ATOM     13  C   UNL A   1     -27.665  -4.269  30.334  0.00  0.00    +0.234 C 
ATOM     14  O   UNL A   1     -28.458  -4.451  29.725  0.00  0.00    -0.283 OA
ENDBRANCH   3  13
TORSDOF 2
ENDMDL
ENDMDL
