REMARK  Name = No_4953-gen_results/8p0m/2024-11-26-14-13-15/
REMARK  2 active torsions:
REMARK  status: ('A' for Active; 'I' for Inactive)
REMARK    1  A    between atoms: C_2  and  C_3
REMARK    2  A    between atoms: C_6  and  C_7
REMARK                            x       y       z     vdW  Elec       q    Type
REMARK                         _______ _______ _______ _____ _____    ______ ____
ROOT
ATOM      1  C   UNL A   1     -28.016  -0.814  28.878  0.00  0.00    +0.003 A 
ATOM      2  C   UNL A   1     -27.064  -0.119  28.608  0.00  0.00    +0.000 A 
ATOM      3  C   UNL A   1     -27.970  -1.589  30.139  0.00  0.00    +0.042 A 
ATOM      4  C   UNL A   1     -26.689  -1.610  30.808  0.00  0.00    +0.003 A 
ATOM      5  C   UNL A   1     -25.591  -1.012  30.422  0.00  0.00    +0.000 A 
ATOM      6  C   UNL A   1     -25.696  -0.218  29.335  0.00  0.00    +0.000 A 
ENDROOT
BRANCH   2   7
ATOM      7  C   UNL A   1     -26.972   0.714  27.506  0.00  0.00    +0.000 A 
ATOM      8  C   UNL A   1     -28.105   0.774  26.642  0.00  0.00    +0.000 A 
ATOM      9  C   UNL A   1     -28.068   1.487  25.512  0.00  0.00    +0.000 A 
ATOM     10  C   UNL A   1     -26.895   2.186  25.130  0.00  0.00    +0.000 A 
ATOM     11  C   UNL A   1     -25.775   2.184  25.918  0.00  0.00    +0.000 A 
ATOM     12  C   UNL A   1     -25.779   1.431  27.078  0.00  0.00    +0.000 A 
ENDBRANCH   2   7
BRANCH   3  13
ATOM     13  C   UNL A   1     -29.058  -2.448  30.545  0.00  0.00    +0.234 C 
ATOM     14  O   UNL A   1     -29.770  -2.761  29.891  0.00  0.00    -0.283 OA
ENDBRANCH   3  13
TORSDOF 2
