REMARK  Name = No_4954-gen_results/8p0m/2024-11-26-14-13-15/
REMARK  5 active torsions:
REMARK  status: ('A' for Active; 'I' for Inactive)
REMARK    1  A    between atoms: C_3  and  C_11
REMARK    2  A    between atoms: C_6  and  C_17
REMARK    3  A    between atoms: C_8  and  C_21
REMARK    4  A    between atoms: N_23  and  C_25
REMARK    5  A    between atoms: C_25  and  C_26
REMARK                            x       y       z     vdW  Elec       q    Type
REMARK                         _______ _______ _______ _____ _____    ______ ____
ROOT
ATOM      1  C   UNL A   1     -28.016  -0.814  28.878  0.00  0.00    +0.004 A 
ATOM      2  C   UNL A   1     -27.064  -0.119  28.608  0.00  0.00    +0.000 A 
ATOM      3  C   UNL A   1     -26.972   0.714  27.506  0.00  0.00    -0.000 A 
ATOM      4  C   UNL A   1     -25.820   1.491  27.116  0.00  0.00    -0.000 A 
ATOM      5  C   UNL A   1     -24.656   1.424  27.918  0.00  0.00    +0.004 A 
ATOM      6  C   UNL A   1     -24.711   0.542  29.051  0.00  0.00    +0.071 A 
ATOM      7  C   UNL A   1     -25.804  -0.206  29.388  0.00  0.00    +0.004 A 
ATOM      8  C   UNL A   1     -28.031  -1.590  30.149  0.00  0.00    +0.054 A 
ATOM      9  C   UNL A   1     -26.810  -1.796  30.851  0.00  0.00    +0.004 A 
ATOM     10  C   UNL A   1     -25.696  -1.068  30.503  0.00  0.00    +0.000 A 
ENDROOT
BRANCH   3  11
ATOM     11  C   UNL A   1     -28.091   0.880  26.538  0.00  0.00    -0.000 A 
ATOM     12  C   UNL A   1     -29.247   0.936  26.855  0.00  0.00    -0.000 A 
ATOM     13  C   UNL A   1     -30.308   0.987  25.958  0.00  0.00    +0.000 A 
ATOM     14  C   UNL A   1     -27.866   0.488  25.188  0.00  0.00    -0.000 A 
ATOM     15  C   UNL A   1     -28.748   0.474  24.247  0.00  0.00    +0.000 A 
ATOM     16  C   UNL A   1     -30.024   0.745  24.605  0.00  0.00    +0.000 A 
ENDBRANCH   3  11
BRANCH   6  17
ATOM     17  C   UNL A   1     -23.382   0.472  29.814  0.00  0.00    +0.419 C 
ATOM     18  F   UNL A   1     -23.502   1.020  30.955  0.00  0.00    -0.166 F 
ATOM     19  F   UNL A   1     -22.364   1.088  29.179  0.00  0.00    -0.166 F 
ATOM     20  F   UNL A   1     -23.022  -0.808  29.919  0.00  0.00    -0.166 F 
ENDBRANCH   6  17
BRANCH   8  21
ATOM     21  C   UNL A   1     -29.209  -2.409  30.491  0.00  0.00    +0.249 C 
ATOM     22  O   UNL A   1     -30.291  -1.988  30.387  0.00  0.00    -0.270 OA
ATOM     23  N   UNL A   1     -29.000  -3.812  30.634  0.00  0.00    -0.270 N 
ATOM     24  C   UNL A   1     -27.777  -4.447  30.620  0.00  0.00    +0.116 C 
BRANCH  23  25
ATOM     25  C   UNL A   1     -30.172  -4.601  30.372  0.00  0.00    +0.120 C 
BRANCH  25  26
ATOM     26  C   UNL A   1     -30.605  -5.315  31.303  0.00  0.00    -0.002 A 
ATOM     27  C   UNL A   1     -30.040  -5.162  32.622  0.00  0.00    -0.003 A 
ATOM     28  C   UNL A   1     -30.428  -6.128  33.669  0.00  0.00    -0.000 A 
ATOM     29  C   UNL A   1     -31.420  -7.008  33.346  0.00  0.00    -0.000 A 
ATOM     30  C   UNL A   1     -31.960  -7.152  32.086  0.00  0.00    -0.000 A 
ATOM     31  C   UNL A   1     -31.513  -6.331  31.059  0.00  0.00    -0.003 A 
ENDBRANCH  25  26
ENDBRANCH  23  25
ENDBRANCH   8  21
TORSDOF 5
