MODEL 4954
MODEL 1
REMARK VINA RESULT:    -8.524      0.000      0.000
REMARK INTER + INTRA:         -11.931
REMARK INTER:                 -11.015
REMARK INTRA:                  -0.916
REMARK UNBOUND:                -0.916
REMARK  Name = No_4954-gen_results/8p0m/2024-11-26-14-13-15/
REMARK  5 active torsions:
REMARK  status: ('A' for Active; 'I' for Inactive)
REMARK    1  A    between atoms: C_3  and  C_11
REMARK    2  A    between atoms: C_6  and  C_17
REMARK    3  A    between atoms: C_8  and  C_21
REMARK    4  A    between atoms: N_23  and  C_25
REMARK    5  A    between atoms: C_25  and  C_26
REMARK                            x       y       z     vdW  Elec       q    Type
REMARK                         _______ _______ _______ _____ _____    ______ ____
ROOT
ATOM      1  C   UNL A   1     -25.860  -0.536  26.870  0.00  0.00    +0.004 A 
ATOM      2  C   UNL A   1     -24.795  -0.566  27.443  0.00  0.00    +0.000 A 
ATOM      3  C   UNL A   1     -24.461  -1.445  28.459  0.00  0.00    -0.000 A 
ATOM      4  C   UNL A   1     -23.231  -1.451  29.213  0.00  0.00    -0.000 A 
ATOM      5  C   UNL A   1     -22.245  -0.483  28.907  0.00  0.00    +0.004 A 
ATOM      6  C   UNL A   1     -22.577   0.463  27.878  0.00  0.00    +0.071 A 
ATOM      7  C   UNL A   1     -23.760   0.468  27.194  0.00  0.00    +0.004 A 
ATOM      8  C   UNL A   1     -26.059   0.393  25.723  0.00  0.00    +0.054 A 
ATOM      9  C   UNL A   1     -25.149   1.472  25.538  0.00  0.00    +0.004 A 
ATOM     10  C   UNL A   1     -23.967   1.491  26.241  0.00  0.00    +0.000 A 
ENDROOT
BRANCH   3  11
ATOM     11  C   UNL A   1     -25.392  -2.507  28.931  0.00  0.00    -0.000 A 
ATOM     12  C   UNL A   1     -26.293  -2.313  29.700  0.00  0.00    -0.000 A 
ATOM     13  C   UNL A   1     -27.104  -3.311  30.229  0.00  0.00    +0.000 A 
ATOM     14  C   UNL A   1     -24.946  -3.857  28.870  0.00  0.00    -0.000 A 
ATOM     15  C   UNL A   1     -25.581  -4.885  29.322  0.00  0.00    +0.000 A 
ATOM     16  C   UNL A   1     -26.715  -4.642  30.018  0.00  0.00    +0.000 A 
ENDBRANCH   3  11
BRANCH   6  17
ATOM     17  C   UNL A   1     -21.485   1.521  27.670  0.00  0.00    +0.419 C 
ATOM     18  F   UNL A   1     -21.829   2.618  28.212  0.00  0.00    -0.166 F 
ATOM     19  F   UNL A   1     -21.227   1.779  26.372  0.00  0.00    -0.166 F 
ATOM     20  F   UNL A   1     -20.344   1.057  28.181  0.00  0.00    -0.166 F 
ENDBRANCH   6  17
BRANCH   8  21
ATOM     21  C   UNL A   1     -27.347   0.402  25.005  0.00  0.00    +0.249 C 
ATOM     22  O   UNL A   1     -27.600  -0.406  24.204  0.00  0.00    -0.270 OA
ATOM     23  N   UNL A   1     -28.383   1.217  25.549  0.00  0.00    -0.270 N 
ATOM     24  C   UNL A   1     -28.243   2.100  26.598  0.00  0.00    +0.116 C 
BRANCH  23  25
ATOM     25  C   UNL A   1     -29.707   0.765  25.221  0.00  0.00    +0.120 C 
BRANCH  25  26
ATOM     26  C   UNL A   1     -30.425   1.531  24.542  0.00  0.00    -0.002 A 
ATOM     27  C   UNL A   1     -31.655   2.025  25.112  0.00  0.00    -0.003 A 
ATOM     28  C   UNL A   1     -32.580   2.779  24.242  0.00  0.00    -0.000 A 
ATOM     29  C   UNL A   1     -32.124   3.087  22.994  0.00  0.00    -0.000 A 
ATOM     30  C   UNL A   1     -30.947   2.616  22.451  0.00  0.00    -0.000 A 
ATOM     31  C   UNL A   1     -30.126   1.801  23.217  0.00  0.00    -0.003 A 
ENDBRANCH  25  26
ENDBRANCH  23  25
ENDBRANCH   8  21
TORSDOF 5
ENDMDL
ENDMDL
