REMARK  Name = No_4955-gen_results/8p0m/2024-11-26-14-13-15/
REMARK  3 active torsions:
REMARK  status: ('A' for Active; 'I' for Inactive)
REMARK    1  A    between atoms: C_2  and  C_9
REMARK    2  A    between atoms: C_9  and  N_10
REMARK    3  A    between atoms: C_9  and  P_16
REMARK                            x       y       z     vdW  Elec       q    Type
REMARK                         _______ _______ _______ _____ _____    ______ ____
ROOT
ATOM      1  C   UNL A   1     -27.138   1.138  27.729  0.00  0.00    +0.136 C 
ENDROOT
BRANCH   1   3
ATOM      2  C   UNL A   1     -28.016  -0.814  28.878  0.00  0.00    +0.029 A 
ATOM      3  C   UNL A   1     -27.064  -0.119  28.608  0.00  0.00    +0.029 A 
ATOM      4  C   UNL A   1     -25.765  -0.390  29.036  0.00  0.00    +0.138 A 
ATOM      5  C   UNL A   1     -25.530  -1.530  29.901  0.00  0.00    +0.032 A 
ATOM      6  C   UNL A   1     -26.689  -2.289  30.181  0.00  0.00    +0.032 A 
ATOM      7  C   UNL A   1     -27.873  -1.951  29.737  0.00  0.00    +0.140 A 
ATOM      8  F   UNL A   1     -24.699   0.360  28.775  0.00  0.00    -0.204 F 
ATOM      9  F   UNL A   1     -28.935  -2.718  30.051  0.00  0.00    -0.204 F 
ENDBRANCH   1   3
BRANCH   1  10
ATOM     10  N   UNL A   1     -26.731   1.151  26.524  0.00  0.00    -0.249 NA
ATOM     11  C   UNL A   1     -26.863   0.400  25.808  0.00  0.00    +0.164 C 
ATOM     12  N   UNL A   1     -26.237   0.464  24.528  0.00  0.00    -0.199 NA
ATOM     13  C   UNL A   1     -25.680   2.005  25.979  0.00  0.00    +0.077 C 
ATOM     14  C   UNL A   1     -25.065   3.140  26.616  0.00  0.00    +0.019 C 
ATOM     15  C   UNL A   1     -25.391   1.482  24.717  0.00  0.00    +0.106 C 
ENDBRANCH   1  10
BRANCH   1  16
ATOM     16  P   UNL A   1     -28.143   2.418  28.342  0.00  0.00    +0.136 P 
ATOM     17  O   UNL A   1     -28.114   2.444  29.662  0.00  0.00    -0.356 OA
ATOM     18  O   UNL A   1     -27.469   3.595  27.808  0.00  0.00    -0.458 OA
ATOM     19  O   UNL A   1     -29.432   2.230  27.675  0.00  0.00    -0.356 OA
ENDBRANCH   1  16
TORSDOF 3
