MODEL 4955
MODEL 1
REMARK VINA RESULT:    -6.249      0.000      0.000
REMARK INTER + INTRA:          -7.900
REMARK INTER:                  -7.345
REMARK INTRA:                  -0.555
REMARK UNBOUND:                -0.555
REMARK  Name = No_4955-gen_results/8p0m/2024-11-26-14-13-15/
REMARK  3 active torsions:
REMARK  status: ('A' for Active; 'I' for Inactive)
REMARK    1  A    between atoms: C_2  and  C_9
REMARK    2  A    between atoms: C_9  and  N_10
REMARK    3  A    between atoms: C_9  and  P_16
REMARK                            x       y       z     vdW  Elec       q    Type
REMARK                         _______ _______ _______ _____ _____    ______ ____
ROOT
ATOM      1  C   UNL A   1     -24.625  -0.783  29.853  0.00  0.00    +0.136 C 
ENDROOT
BRANCH   1   3
ATOM      2  C   UNL A   1     -26.031  -2.762  29.929  0.00  0.00    +0.029 A 
ATOM      3  C   UNL A   1     -24.971  -2.263  29.633  0.00  0.00    +0.029 A 
ATOM      4  C   UNL A   1     -23.932  -2.964  29.020  0.00  0.00    +0.138 A 
ATOM      5  C   UNL A   1     -24.091  -4.383  28.769  0.00  0.00    +0.032 A 
ATOM      6  C   UNL A   1     -25.351  -4.898  29.149  0.00  0.00    +0.032 A 
ATOM      7  C   UNL A   1     -26.265  -4.160  29.727  0.00  0.00    +0.140 A 
ATOM      8  F   UNL A   1     -22.748  -2.453  28.697  0.00  0.00    -0.204 F 
ATOM      9  F   UNL A   1     -27.440  -4.722  30.070  0.00  0.00    -0.204 F 
ENDBRANCH   1   3
BRANCH   1  10
ATOM     10  N   UNL A   1     -24.951   0.123  29.022  0.00  0.00    -0.249 NA
ATOM     11  C   UNL A   1     -25.913   0.343  28.677  0.00  0.00    +0.164 C 
ATOM     12  N   UNL A   1     -26.140   1.290  27.635  0.00  0.00    -0.199 NA
ATOM     13  C   UNL A   1     -24.056   0.791  28.081  0.00  0.00    +0.077 C 
ATOM     14  C   UNL A   1     -22.618   0.734  28.059  0.00  0.00    +0.019 C 
ATOM     15  C   UNL A   1     -24.890   1.487  27.203  0.00  0.00    +0.106 C 
ENDBRANCH   1  10
BRANCH   1  16
ATOM     16  P   UNL A   1     -24.105  -0.370  31.460  0.00  0.00    +0.136 P 
ATOM     17  O   UNL A   1     -24.762  -1.078  32.361  0.00  0.00    -0.356 OA
ATOM     18  O   UNL A   1     -22.708  -0.785  31.427  0.00  0.00    -0.458 OA
ATOM     19  O   UNL A   1     -24.195   1.089  31.517  0.00  0.00    -0.356 OA
ENDBRANCH   1  16
TORSDOF 3
ENDMDL
ENDMDL
