MODEL 4956
MODEL 1
REMARK VINA RESULT:    -4.837      0.000      0.000
REMARK INTER + INTRA:          -5.545
REMARK INTER:                  -5.402
REMARK INTRA:                  -0.143
REMARK UNBOUND:                -0.143
REMARK  Name = No_4956-gen_results/8p0m/2024-11-26-14-13-15/
REMARK  2 active torsions:
REMARK  status: ('A' for Active; 'I' for Inactive)
REMARK    1  A    between atoms: C_5  and  N_7
REMARK    2  A    between atoms: N_7  and  C_8
REMARK                            x       y       z     vdW  Elec       q    Type
REMARK                         _______ _______ _______ _____ _____    ______ ____
ROOT
ATOM      1  C   UNL A   1     -26.333  -3.643  29.819  0.00  0.00    +0.001 A 
ATOM      2  C   UNL A   1     -26.147  -4.813  29.578  0.00  0.00    +0.000 A 
ATOM      3  C   UNL A   1     -25.000  -5.299  28.982  0.00  0.00    +0.001 A 
ATOM      4  C   UNL A   1     -23.966  -4.371  28.673  0.00  0.00    +0.016 A 
ATOM      5  C   UNL A   1     -24.149  -3.106  29.115  0.00  0.00    +0.065 A 
ATOM      6  C   UNL A   1     -25.265  -2.738  29.715  0.00  0.00    +0.016 A 
ENDROOT
BRANCH   5   7
ATOM      7  N   UNL A   1     -23.116  -2.216  28.839  0.00  0.00    -0.238 NA
BRANCH   7   8
ATOM      8  C   UNL A   1     -23.057  -1.017  29.363  0.00  0.00    +0.112 C 
ATOM      9  C   UNL A   1     -23.157   0.046  28.417  0.00  0.00    +0.025 C 
ENDBRANCH   7   8
ENDBRANCH   5   7
TORSDOF 2
ENDMDL
ENDMDL
