REMARK  Name = No_4956-gen_results/8p0m/2024-11-26-14-13-15/
REMARK  2 active torsions:
REMARK  status: ('A' for Active; 'I' for Inactive)
REMARK    1  A    between atoms: C_5  and  N_7
REMARK    2  A    between atoms: N_7  and  C_8
REMARK                            x       y       z     vdW  Elec       q    Type
REMARK                         _______ _______ _______ _____ _____    ______ ____
ROOT
ATOM      1  C   UNL A   1     -28.016  -0.814  28.878  0.00  0.00    +0.001 A 
ATOM      2  C   UNL A   1     -27.064  -0.119  28.608  0.00  0.00    +0.000 A 
ATOM      3  C   UNL A   1     -27.001   0.691  27.491  0.00  0.00    +0.001 A 
ATOM      4  C   UNL A   1     -28.137   0.736  26.635  0.00  0.00    +0.016 A 
ATOM      5  C   UNL A   1     -29.236   0.076  27.069  0.00  0.00    +0.065 A 
ATOM      6  C   UNL A   1     -29.218  -0.643  28.175  0.00  0.00    +0.016 A 
ENDROOT
BRANCH   5   7
ATOM      7  N   UNL A   1     -30.352   0.156  26.243  0.00  0.00    -0.238 NA
BRANCH   7   8
ATOM      8  C   UNL A   1     -30.269   0.123  24.937  0.00  0.00    +0.112 C 
ATOM      9  C   UNL A   1     -29.205   0.903  24.393  0.00  0.00    +0.025 C 
ENDBRANCH   7   8
ENDBRANCH   5   7
TORSDOF 2
