REMARK  Name = No_4957-gen_results/8p0m/2024-11-26-14-13-15/
REMARK  2 active torsions:
REMARK  status: ('A' for Active; 'I' for Inactive)
REMARK    1  A    between atoms: C_3  and  C_4
REMARK    2  A    between atoms: C_4  and  C_8
REMARK                            x       y       z     vdW  Elec       q    Type
REMARK                         _______ _______ _______ _____ _____    ______ ____
ROOT
ATOM      1  C   UNL A   1     -28.016  -0.814  28.878  0.00  0.00    +0.003 A 
ATOM      2  C   UNL A   1     -28.469  -0.785  29.829  0.00  0.00    +0.034 A 
ATOM      3  C   UNL A   1     -26.504  -0.778  28.877  0.00  0.00    -0.017 A 
ATOM      4  C   UNL A   1     -27.918  -0.937  31.182  0.00  0.00    +0.007 A 
ATOM      5  C   UNL A   1     -26.542  -0.940  31.261  0.00  0.00    +0.000 A 
ATOM      6  C   UNL A   1     -25.783  -0.893  30.120  0.00  0.00    -0.004 A 
ATOM      7 BR   UNL A   1     -30.448  -0.812  29.840  0.00  0.00    -0.049 Br
ENDROOT
BRANCH   3   8
ATOM      8  C   UNL A   1     -25.654  -0.660  27.719  0.00  0.00    +0.053 C 
BRANCH   8   9
ATOM      9  C   UNL A   1     -25.220   0.687  27.394  0.00  0.00    -0.018 A 
ATOM     10  C   UNL A   1     -25.900   1.643  27.354  0.00  0.00    -0.004 A 
ATOM     11  C   UNL A   1     -25.314   2.959  27.032  0.00  0.00    -0.000 A 
ATOM     12  C   UNL A   1     -23.954   3.089  26.688  0.00  0.00    -0.000 A 
ATOM     13  C   UNL A   1     -23.754   0.823  27.140  0.00  0.00    -0.004 A 
ATOM     14  C   UNL A   1     -23.185   2.006  26.845  0.00  0.00    -0.000 A 
ENDBRANCH   8   9
ENDBRANCH   3   8
TORSDOF 2
