MODEL 4957
MODEL 1
REMARK VINA RESULT:    -6.718      0.000      0.000
REMARK INTER + INTRA:          -8.046
REMARK INTER:                  -7.504
REMARK INTRA:                  -0.542
REMARK UNBOUND:                -0.542
REMARK  Name = No_4957-gen_results/8p0m/2024-11-26-14-13-15/
REMARK  2 active torsions:
REMARK  status: ('A' for Active; 'I' for Inactive)
REMARK    1  A    between atoms: C_3  and  C_4
REMARK    2  A    between atoms: C_4  and  C_8
REMARK                            x       y       z     vdW  Elec       q    Type
REMARK                         _______ _______ _______ _____ _____    ______ ____
ROOT
ATOM      1  C   UNL A   1     -25.330  -0.424  27.288  0.00  0.00    +0.003 A 
ATOM      2  C   UNL A   1     -24.950   0.114  26.466  0.00  0.00    +0.034 A 
ATOM      3  C   UNL A   1     -24.487  -0.375  28.543  0.00  0.00    -0.017 A 
ATOM      4  C   UNL A   1     -23.862   1.094  26.354  0.00  0.00    +0.007 A 
ATOM      5  C   UNL A   1     -23.062   1.216  27.470  0.00  0.00    +0.000 A 
ATOM      6  C   UNL A   1     -23.356   0.517  28.612  0.00  0.00    -0.004 A 
ATOM      7 BR   UNL A   1     -26.037   0.040  24.814  0.00  0.00    -0.049 Br
ENDROOT
BRANCH   3   8
ATOM      8  C   UNL A   1     -24.704  -1.136  29.747  0.00  0.00    +0.053 C 
BRANCH   8   9
ATOM      9  C   UNL A   1     -24.966  -2.552  29.557  0.00  0.00    -0.018 A 
ATOM     10  C   UNL A   1     -25.939  -3.125  29.877  0.00  0.00    -0.004 A 
ATOM     11  C   UNL A   1     -26.078  -4.567  29.595  0.00  0.00    -0.000 A 
ATOM     12  C   UNL A   1     -25.027  -5.303  29.014  0.00  0.00    -0.000 A 
ATOM     13  C   UNL A   1     -23.884  -3.293  28.840  0.00  0.00    -0.004 A 
ATOM     14  C   UNL A   1     -23.977  -4.606  28.565  0.00  0.00    -0.000 A 
ENDBRANCH   8   9
ENDBRANCH   3   8
TORSDOF 2
ENDMDL
ENDMDL
