REMARK  Name = No_4958-gen_results/8p0m/2024-11-26-14-13-15/
REMARK  12 active torsions:
REMARK  status: ('A' for Active; 'I' for Inactive)
REMARK    1  A    between atoms: C_1  and  C_2
REMARK    2  A    between atoms: C_3  and  O_15
REMARK    3  A    between atoms: C_5  and  C_10
REMARK    4  A    between atoms: N_11  and  C_13
REMARK    5  A    between atoms: O_15  and  C_16
REMARK    6  A    between atoms: C_16  and  C_17
REMARK    7  A    between atoms: C_20  and  C_21
REMARK    8  A    between atoms: C_24  and  C_28
REMARK    9  A    between atoms: C_28  and  N_29
REMARK   10  A    between atoms: N_29  and  C_30
REMARK   11  A    between atoms: C_31  and  C_32
REMARK   12  A    between atoms: C_33  and  C_34
REMARK                            x       y       z     vdW  Elec       q    Type
REMARK                         _______ _______ _______ _____ _____    ______ ____
ROOT
ATOM      1  C   UNL A   1     -29.081   0.063  24.779  0.00  0.00    +0.293 C 
ATOM      2  O   UNL A   1     -29.105  -0.792  23.947  0.00  0.00    -0.269 OA
ATOM      3  N   UNL A   1     -30.166   0.808  24.888  0.00  0.00    -0.138 NA
ATOM      4  C   UNL A   1     -31.431   0.563  24.322  0.00  0.00    +0.271 C 
ATOM      5  O   UNL A   1     -31.818  -0.666  24.349  0.00  0.00    -0.268 OA
ENDROOT
BRANCH   4   6
ATOM      6  C   UNL A   1     -32.085   1.501  23.797  0.00  0.00    +0.055 A 
ATOM      7  C   UNL A   1     -31.620   2.658  23.687  0.00  0.00    +0.004 A 
ATOM      8  C   UNL A   1     -32.301   3.835  23.127  0.00  0.00    -0.002 A 
ATOM      9  C   UNL A   1     -33.364   3.764  22.857  0.00  0.00    -0.001 A 
ATOM     10  C   UNL A   1     -34.116   2.519  22.803  0.00  0.00    -0.002 A 
ATOM     11  C   UNL A   1     -33.461   1.403  23.292  0.00  0.00    +0.004 A 
BRANCH   9  12
ATOM     12  C   UNL A   1     -34.184   4.954  22.291  0.00  0.00    +0.139 C 
BRANCH  12  13
ATOM     13  N   UNL A   1     -34.382   5.940  23.099  0.00  0.00    -0.232 NA
BRANCH  13  14
ATOM     14  C   UNL A   1     -34.398   5.819  24.401  0.00  0.00    +0.081 C 
ATOM     15  C   UNL A   1     -34.827   4.953  25.080  0.00  0.00    +0.017 C 
BRANCH  15  16
ATOM     16  C   UNL A   1     -35.796   4.083  24.706  0.00  0.00    +0.001 C 
ATOM     17  C   UNL A   1     -36.362   3.161  25.640  0.00  0.00    +0.000 C 
BRANCH  17  18
ATOM     18  C   UNL A   1     -37.335   2.247  25.258  0.00  0.00    +0.000 C 
ATOM     19  C   UNL A   1     -37.779   2.303  23.929  0.00  0.00    +0.000 C 
ENDBRANCH  17  18
ENDBRANCH  15  16
ENDBRANCH  13  14
ENDBRANCH  12  13
ENDBRANCH   9  12
ENDBRANCH   4   6
BRANCH   1  20
ATOM     20  C   UNL A   1     -27.848   0.440  25.363  0.00  0.00    +0.292 C 
BRANCH  20  21
ATOM     21  O   UNL A   1     -27.991   0.818  26.669  0.00  0.00    -0.466 OA
BRANCH  21  23
ATOM     22  C   UNL A   1     -27.064  -0.119  28.608  0.00  0.00    +0.077 A 
ATOM     23  C   UNL A   1     -26.972   0.714  27.506  0.00  0.00    +0.141 A 
ATOM     24  C   UNL A   1     -25.820   1.491  27.116  0.00  0.00    +0.041 A 
ATOM     25  C   UNL A   1     -24.656   1.424  27.918  0.00  0.00    +0.058 A 
ATOM     26  C   UNL A   1     -24.711   0.542  29.051  0.00  0.00    +0.005 A 
ATOM     27  C   UNL A   1     -25.804  -0.206  29.388  0.00  0.00    +0.004 A 
BRANCH  22  28
ATOM     28  C   UNL A   1     -28.016  -0.814  28.878  0.00  0.00    +0.344 C 
ATOM     29  F   UNL A   1     -27.874  -1.990  29.264  0.00  0.00    -0.193 F 
ATOM     30  F   UNL A   1     -29.195  -0.444  28.726  0.00  0.00    -0.193 F 
ENDBRANCH  22  28
BRANCH  25  31
ATOM     31  C   UNL A   1     -23.472   2.165  27.631  0.00  0.00    +0.265 C 
ATOM     32  N   UNL A   1     -22.420   1.677  27.329  0.00  0.00    -0.202 NA
ATOM     33  O   UNL A   1     -23.662   3.438  27.438  0.00  0.00    -0.268 OA
BRANCH  32  34
ATOM     34  C   UNL A   1     -21.849   0.491  27.914  0.00  0.00    +0.116 C 
ATOM     35  C   UNL A   1     -21.135   0.772  29.229  0.00  0.00    +0.025 C 
ENDBRANCH  32  34
ENDBRANCH  25  31
ENDBRANCH  21  23
ENDBRANCH  20  21
ENDBRANCH   1  20
TORSDOF 12
