MODEL 4958
MODEL 1
REMARK VINA RESULT:    -7.296      0.000      0.000
REMARK INTER + INTRA:         -13.710
REMARK INTER:                 -12.414
REMARK INTRA:                  -1.297
REMARK UNBOUND:                -1.297
REMARK  Name = No_4958-gen_results/8p0m/2024-11-26-14-13-15/
REMARK  12 active torsions:
REMARK  status: ('A' for Active; 'I' for Inactive)
REMARK    1  A    between atoms: C_1  and  C_2
REMARK    2  A    between atoms: C_3  and  O_15
REMARK    3  A    between atoms: C_5  and  C_10
REMARK    4  A    between atoms: N_11  and  C_13
REMARK    5  A    between atoms: O_15  and  C_16
REMARK    6  A    between atoms: C_16  and  C_17
REMARK    7  A    between atoms: C_20  and  C_21
REMARK    8  A    between atoms: C_24  and  C_28
REMARK    9  A    between atoms: C_28  and  N_29
REMARK   10  A    between atoms: N_29  and  C_30
REMARK   11  A    between atoms: C_31  and  C_32
REMARK   12  A    between atoms: C_33  and  C_34
REMARK                            x       y       z     vdW  Elec       q    Type
REMARK                         _______ _______ _______ _____ _____    ______ ____
ROOT
ATOM      1  C   UNL A   1     -25.305   1.910  26.432  0.00  0.00    +0.293 C 
ATOM      2  O   UNL A   1     -24.553   2.222  25.559  0.00  0.00    -0.269 OA
ATOM      3  N   UNL A   1     -26.385   1.244  26.068  0.00  0.00    -0.138 NA
ATOM      4  C   UNL A   1     -26.637   0.641  24.821  0.00  0.00    +0.271 C 
ATOM      5  O   UNL A   1     -25.630   0.042  24.285  0.00  0.00    -0.268 OA
ENDROOT
BRANCH   4   6
ATOM      6  C   UNL A   1     -27.770   0.744  24.283  0.00  0.00    +0.055 A 
ATOM      7  C   UNL A   1     -28.297   1.854  24.045  0.00  0.00    +0.004 A 
ATOM      8  C   UNL A   1     -29.623   2.095  23.457  0.00  0.00    -0.002 A 
ATOM      9  C   UNL A   1     -30.298   1.245  23.284  0.00  0.00    -0.001 A 
ATOM     10  C   UNL A   1     -29.903  -0.151  23.389  0.00  0.00    -0.002 A 
ATOM     11  C   UNL A   1     -28.639  -0.378  23.905  0.00  0.00    +0.004 A 
BRANCH   9  12
ATOM     12  C   UNL A   1     -31.728   1.394  22.700  0.00  0.00    +0.139 C 
BRANCH  12  13
ATOM     13  N   UNL A   1     -31.801   1.809  21.480  0.00  0.00    -0.232 NA
BRANCH  13  14
ATOM     14  C   UNL A   1     -32.193   3.011  21.145  0.00  0.00    +0.081 C 
ATOM     15  C   UNL A   1     -32.934   3.361  20.295  0.00  0.00    +0.017 C 
BRANCH  15  16
ATOM     16  C   UNL A   1     -33.220   2.651  19.177  0.00  0.00    +0.001 C 
ATOM     17  C   UNL A   1     -33.711   3.294  17.998  0.00  0.00    +0.000 C 
BRANCH  17  18
ATOM     18  C   UNL A   1     -34.034   2.570  16.858  0.00  0.00    +0.000 C 
ATOM     19  C   UNL A   1     -34.858   3.199  15.913  0.00  0.00    +0.000 C 
ENDBRANCH  17  18
ENDBRANCH  15  16
ENDBRANCH  13  14
ENDBRANCH  12  13
ENDBRANCH   9  12
ENDBRANCH   4   6
BRANCH   1  20
ATOM     20  C   UNL A   1     -25.186   2.511  27.708  0.00  0.00    +0.292 C 
BRANCH  20  21
ATOM     21  O   UNL A   1     -23.899   2.494  28.168  0.00  0.00    -0.466 OA
BRANCH  21  23
ATOM     22  C   UNL A   1     -22.057   1.047  28.070  0.00  0.00    +0.077 A 
ATOM     23  C   UNL A   1     -23.332   1.351  28.516  0.00  0.00    +0.141 A 
ATOM     24  C   UNL A   1     -24.144   0.547  29.397  0.00  0.00    +0.041 A 
ATOM     25  C   UNL A   1     -23.620  -0.681  29.867  0.00  0.00    +0.058 A 
ATOM     26  C   UNL A   1     -22.285  -1.008  29.447  0.00  0.00    +0.005 A 
ATOM     27  C   UNL A   1     -21.523  -0.219  28.632  0.00  0.00    +0.004 A 
BRANCH  22  28
ATOM     28  C   UNL A   1     -21.368   1.768  27.387  0.00  0.00    +0.344 C 
ATOM     29  F   UNL A   1     -21.616   1.951  26.180  0.00  0.00    -0.193 F 
ATOM     30  F   UNL A   1     -20.332   2.317  27.805  0.00  0.00    -0.193 F 
ENDBRANCH  22  28
BRANCH  25  31
ATOM     31  C   UNL A   1     -24.346  -1.557  30.726  0.00  0.00    +0.265 C 
ATOM     32  N   UNL A   1     -24.583  -2.707  30.483  0.00  0.00    -0.202 NA
ATOM     33  O   UNL A   1     -24.507  -1.117  31.940  0.00  0.00    -0.268 OA
BRANCH  32  34
ATOM     34  C   UNL A   1     -24.964  -3.230  29.196  0.00  0.00    +0.116 C 
ATOM     35  C   UNL A   1     -25.157  -4.740  29.211  0.00  0.00    +0.025 C 
ENDBRANCH  32  34
ENDBRANCH  25  31
ENDBRANCH  21  23
ENDBRANCH  20  21
ENDBRANCH   1  20
TORSDOF 12
ENDMDL
ENDMDL
