MODEL 4959
MODEL 1
REMARK VINA RESULT:    -7.438      0.000      0.000
REMARK INTER + INTRA:          -9.268
REMARK INTER:                  -8.308
REMARK INTRA:                  -0.960
REMARK UNBOUND:                -0.960
REMARK  Name = No_4959-gen_results/8p0m/2024-11-26-14-13-15/
REMARK  2 active torsions:
REMARK  status: ('A' for Active; 'I' for Inactive)
REMARK    1  A    between atoms: C_1  and  C_6
REMARK    2  A    between atoms: C_18  and  C_19
REMARK                            x       y       z     vdW  Elec       q    Type
REMARK                         _______ _______ _______ _____ _____    ______ ____
ROOT
ATOM      1  C   UNL A   1     -12.695   2.555  35.857  0.00  0.00    +0.080 A 
ATOM      2  C   UNL A   1     -12.200   1.678  36.526  0.00  0.00    +0.002 A 
ATOM      3  C   UNL A   1     -10.863   1.319  36.508  0.00  0.00    -0.022 A 
ATOM      4  C   UNL A   1     -10.002   2.068  35.652  0.00  0.00    -0.020 A 
ATOM      5  C   UNL A   1     -10.557   3.132  35.036  0.00  0.00    +0.050 A 
ATOM      6  C   UNL A   1     -11.851   3.382  35.159  0.00  0.00    +0.011 A 
ATOM      7  C   UNL A   1      -9.643   3.912  34.182  0.00  0.00    +0.249 C 
ATOM      8  N   UNL A   1      -8.632   3.493  33.623  0.00  0.00    -0.274 N 
ATOM      9  O   UNL A   1     -10.047   5.110  33.876  0.00  0.00    -0.270 OA
ATOM     10  C   UNL A   1      -8.063   2.137  33.880  0.00  0.00    +0.098 C 
ATOM     11  C   UNL A   1      -8.494   1.640  34.728  0.00  0.00    +0.042 C 
ATOM     12  C   UNL A   1      -8.194   0.258  35.437  0.00  0.00    +0.007 C 
ATOM     13  C   UNL A   1      -7.807   4.264  32.643  0.00  0.00    +0.115 C 
ATOM     14  C   UNL A   1      -8.970  -0.451  36.360  0.00  0.00    +0.009 C 
ATOM     15  C   UNL A   1     -10.185   0.031  36.949  0.00  0.00    +0.045 C 
ENDROOT
BRANCH  15  16
ATOM     16  C   UNL A   1     -10.922  -0.765  37.951  0.00  0.00    -0.008 A 
ATOM     17  C   UNL A   1     -11.570  -1.844  37.607  0.00  0.00    -0.003 A 
ATOM     18  C   UNL A   1     -12.106  -2.696  38.684  0.00  0.00    -0.000 A 
ATOM     19  C   UNL A   1     -10.648  -0.463  39.302  0.00  0.00    +0.054 A 
ATOM     20  C   UNL A   1     -11.211  -1.303  40.327  0.00  0.00    +0.011 A 
ATOM     21  C   UNL A   1     -11.943  -2.374  39.925  0.00  0.00    +0.001 A 
ATOM     22 CL   UNL A   1      -9.779   0.927  39.822  0.00  0.00    -0.083 Cl
ENDBRANCH  15  16
BRANCH   1  23
ATOM     23  C   UNL A   1     -14.086   2.881  36.010  0.00  0.00    +0.388 C 
ATOM     24  O   UNL A   1     -14.775   3.294  35.305  0.00  0.00    -0.241 OA
ATOM     25  O   UNL A   1     -14.574   2.759  37.297  0.00  0.00    -0.241 OA
ENDBRANCH   1  23
TORSDOF 2
ENDMDL
ENDMDL
