MODEL 495
MODEL 1
REMARK VINA RESULT:    -5.765      0.000      0.000
REMARK INTER + INTRA:          -6.713
REMARK INTER:                  -6.439
REMARK INTRA:                  -0.273
REMARK UNBOUND:                -0.273
REMARK  Name = No_495-gen_results/8p0m/2024-11-26-14-13-15/
REMARK  2 active torsions:
REMARK  status: ('A' for Active; 'I' for Inactive)
REMARK    1  A    between atoms: C_2  and  C_11
REMARK    2  A    between atoms: C_3  and  C_7
REMARK                            x       y       z     vdW  Elec       q    Type
REMARK                         _______ _______ _______ _____ _____    ______ ____
ROOT
ATOM      1  C   UNL A   1     -28.264 -11.778  31.691  0.00  0.00    +0.010 A 
ATOM      2  C   UNL A   1     -28.239 -11.284  32.622  0.00  0.00    +0.080 A 
ATOM      3  C   UNL A   1     -29.125 -11.265  30.696  0.00  0.00    +0.072 A 
ATOM      4  C   UNL A   1     -29.925 -10.162  30.920  0.00  0.00    +0.004 A 
ATOM      5  C   UNL A   1     -29.824  -9.569  32.168  0.00  0.00    +0.000 A 
ATOM      6  C   UNL A   1     -28.943 -10.083  33.096  0.00  0.00    +0.007 A 
ENDROOT
BRANCH   3   7
ATOM      7  C   UNL A   1     -29.243 -11.856  29.323  0.00  0.00    +0.419 C 
ATOM      8  F   UNL A   1     -28.349 -11.679  28.603  0.00  0.00    -0.166 F 
ATOM      9  F   UNL A   1     -29.502 -13.261  29.347  0.00  0.00    -0.166 F 
ATOM     10  F   UNL A   1     -30.497 -11.394  28.744  0.00  0.00    -0.166 F 
ENDBRANCH   3   7
BRANCH   2  11
ATOM     11  C   UNL A   1     -27.182 -11.745  33.759  0.00  0.00    +0.388 C 
ATOM     12  O   UNL A   1     -26.751 -12.754  33.741  0.00  0.00    -0.241 OA
ATOM     13  O   UNL A   1     -26.836 -10.903  34.592  0.00  0.00    -0.241 OA
ENDBRANCH   2  11
TORSDOF 2
ENDMDL
ENDMDL
