REMARK  Name = No_496-gen_results/8p0m/2024-11-26-14-13-15/
REMARK  2 active torsions:
REMARK  status: ('A' for Active; 'I' for Inactive)
REMARK    1  A    between atoms: C_3  and  C_13
REMARK    2  A    between atoms: C_5  and  C_8
REMARK                            x       y       z     vdW  Elec       q    Type
REMARK                         _______ _______ _______ _____ _____    ______ ____
ROOT
ATOM      1  C   UNL A   1     -28.016  -0.814  28.878  0.00  0.00    +0.031 C 
ATOM      2  C   UNL A   1     -28.469  -0.785  29.829  0.00  0.00    -0.030 C 
ATOM      3  C   UNL A   1     -27.087   0.290  28.638  0.00  0.00    +0.037 C 
ATOM      4  C   UNL A   1     -26.024   0.364  29.253  0.00  0.00    +0.070 C 
ATOM      5  C   UNL A   1     -26.246   0.433  30.799  0.00  0.00    +0.110 C 
ATOM      6  C   UNL A   1     -28.180  -0.069  30.908  0.00  0.00    -0.030 C 
ATOM      7  C   UNL A   1     -26.831   0.121  31.973  0.00  0.00    +0.035 C 
ATOM      8 BR   UNL A   1     -25.994   0.316  29.712  0.00  0.00    -0.081 Br
ENDROOT
BRANCH   5   9
ATOM      9  C   UNL A   1     -24.895   1.013  31.341  0.00  0.00    +0.399 C 
ATOM     10  F   UNL A   1     -24.914   1.207  32.449  0.00  0.00    -0.170 F 
ATOM     11  F   UNL A   1     -23.795   0.241  30.963  0.00  0.00    -0.170 F 
ATOM     12  F   UNL A   1     -24.691   2.261  30.653  0.00  0.00    -0.170 F 
ENDBRANCH   5   9
BRANCH   3  13
ATOM     13  C   UNL A   1     -27.357   0.877  27.256  0.00  0.00    -0.025 C 
ATOM     14  C   UNL A   1     -28.546   1.267  26.841  0.00  0.00    -0.005 C 
ENDBRANCH   3  13
TORSDOF 2
