MODEL 4960
MODEL 1
REMARK VINA RESULT:    -6.572      0.000      0.000
REMARK INTER + INTRA:          -9.977
REMARK INTER:                  -9.261
REMARK INTRA:                  -0.716
REMARK UNBOUND:                -0.716
REMARK  Name = No_4960-gen_results/8p0m/2024-11-26-14-13-15/
REMARK  7 active torsions:
REMARK  status: ('A' for Active; 'I' for Inactive)
REMARK    1  A    between atoms: C_3  and  C_4
REMARK    2  A    between atoms: C_6  and  O_13
REMARK    3  A    between atoms: O_13  and  C_15
REMARK    4  A    between atoms: C_15  and  C_16
REMARK    5  A    between atoms: C_16  and  C_17
REMARK    6  A    between atoms: C_18  and  C_19
REMARK    7  A    between atoms: C_20  and  C_21
REMARK                            x       y       z     vdW  Elec       q    Type
REMARK                         _______ _______ _______ _____ _____    ______ ____
ROOT
ATOM      1  C   UNL A   1     -29.492 -12.024  27.576  0.00  0.00    +0.037 A 
ATOM      2  C   UNL A   1     -29.117 -11.470  28.583  0.00  0.00    +0.003 A 
ATOM      3  C   UNL A   1     -29.168 -12.111  29.816  0.00  0.00    +0.000 A 
ATOM      4  C   UNL A   1     -30.187 -13.319  27.660  0.00  0.00    +0.139 A 
ATOM      5  C   UNL A   1     -30.214 -14.047  28.824  0.00  0.00    +0.037 A 
ATOM      6  C   UNL A   1     -29.739 -13.456  30.007  0.00  0.00    +0.003 A 
ENDROOT
BRANCH   3   7
ATOM      7  C   UNL A   1     -28.748 -11.535  31.126  0.00  0.00    +0.003 A 
ATOM      8  C   UNL A   1     -29.383 -10.431  31.793  0.00  0.00    +0.000 A 
ATOM      9  C   UNL A   1     -28.930 -10.055  33.038  0.00  0.00    +0.003 A 
ATOM     10  C   UNL A   1     -28.053 -10.712  33.838  0.00  0.00    +0.042 A 
ATOM     11  C   UNL A   1     -28.023 -12.293  32.152  0.00  0.00    +0.042 A 
ATOM     12  C   UNL A   1     -27.600 -11.856  33.340  0.00  0.00    +0.196 A 
ATOM     13  O   UNL A   1     -26.743 -12.639  34.044  0.00  0.00    -0.287 OA
ENDBRANCH   3   7
BRANCH   4  14
ATOM     14  O   UNL A   1     -30.688 -13.931  26.541  0.00  0.00    -0.475 OA
BRANCH  14  15
ATOM     15  C   UNL A   1     -31.585 -13.323  25.718  0.00  0.00    +0.210 C 
BRANCH  15  16
ATOM     16  C   UNL A   1     -30.898 -12.712  24.575  0.00  0.00    +0.073 C 
BRANCH  16  17
ATOM     17  C   UNL A   1     -31.098 -13.164  23.460  0.00  0.00    -0.022 C 
ATOM     18  C   UNL A   1     -30.237 -13.730  22.741  0.00  0.00    -0.004 C 
BRANCH  18  19
ATOM     19  C   UNL A   1     -30.463 -14.255  21.434  0.00  0.00    -0.000 C 
ATOM     20  C   UNL A   1     -30.098 -13.493  20.309  0.00  0.00    -0.000 C 
BRANCH  20  21
ATOM     21  C   UNL A   1     -29.216 -12.355  20.390  0.00  0.00    -0.000 C 
ATOM     22  C   UNL A   1     -27.833 -12.670  20.317  0.00  0.00    -0.000 C 
ENDBRANCH  20  21
ENDBRANCH  18  19
ENDBRANCH  16  17
ENDBRANCH  15  16
ENDBRANCH  14  15
ENDBRANCH   4  14
TORSDOF 7
ENDMDL
ENDMDL
