MODEL 4961
MODEL 1
REMARK VINA RESULT:    -7.364      0.000      0.000
REMARK INTER + INTRA:          -5.202
REMARK INTER:                  -7.364
REMARK INTRA:                   2.162
REMARK UNBOUND:                 2.162
REMARK  Name = No_4961-gen_results/8p0m/2024-11-26-14-13-15/
REMARK  1 active torsions:
REMARK  status: ('A' for Active; 'I' for Inactive)
REMARK    1  A    between atoms: N_16  and  C_17
REMARK                            x       y       z     vdW  Elec       q    Type
REMARK                         _______ _______ _______ _____ _____    ______ ____
ROOT
ATOM      1  C   UNL A   1     -22.809   1.450  27.111  0.00  0.00    +0.006 A 
ATOM      2  C   UNL A   1     -23.621   2.104  26.960  0.00  0.00    +0.000 A 
ATOM      3  C   UNL A   1     -22.783   0.847  28.444  0.00  0.00    +0.069 A 
ATOM      4  C   UNL A   1     -21.804  -0.183  28.860  0.00  0.00    +0.270 C 
ATOM      5  C   UNL A   1     -24.741   2.560  27.773  0.00  0.00    +0.001 A 
ATOM      6  C   UNL A   1     -24.743   2.022  29.043  0.00  0.00    +0.015 A 
ATOM      7  C   UNL A   1     -23.805   1.122  29.388  0.00  0.00    +0.057 A 
ATOM      8  N   UNL A   1     -22.002  -1.167  29.218  0.00  0.00    -0.174 NA
ATOM      9  O   UNL A   1     -20.528   0.072  28.397  0.00  0.00    -0.268 OA
ATOM     10  C   UNL A   1     -23.347  -1.692  29.680  0.00  0.00    +0.087 A 
ATOM     11  C   UNL A   1     -23.749  -2.849  28.858  0.00  0.00    +0.018 A 
ATOM     12  C   UNL A   1     -24.970  -2.990  28.749  0.00  0.00    +0.001 A 
ATOM     13  C   UNL A   1     -26.012  -2.430  29.627  0.00  0.00    +0.001 A 
ATOM     14  C   UNL A   1     -25.530  -1.366  30.431  0.00  0.00    +0.016 A 
ATOM     15  C   UNL A   1     -24.190  -0.952  30.348  0.00  0.00    +0.068 A 
ATOM     16  N   UNL A   1     -24.348   0.417  29.815  0.00  0.00    -0.280 N 
ENDROOT
BRANCH  16  17
ATOM     17  C   UNL A   1     -25.301   1.067  31.070  0.00  0.00    +0.122 C 
ATOM     18  C   UNL A   1     -24.844   1.351  32.126  0.00  0.00    -0.002 C 
ATOM     19  C   UNL A   1     -25.593   1.949  33.103  0.00  0.00    -0.003 C 
ATOM     20  C   UNL A   1     -27.000   2.030  32.903  0.00  0.00    -0.003 C 
ATOM     21  C   UNL A   1     -26.729   1.327  31.151  0.00  0.00    -0.002 C 
ENDBRANCH  16  17
TORSDOF 1
ENDMDL
ENDMDL
