REMARK  Name = No_4961-gen_results/8p0m/2024-11-26-14-13-15/
REMARK  1 active torsions:
REMARK  status: ('A' for Active; 'I' for Inactive)
REMARK    1  A    between atoms: N_16  and  C_17
REMARK                            x       y       z     vdW  Elec       q    Type
REMARK                         _______ _______ _______ _____ _____    ______ ____
ROOT
ATOM      1  C   UNL A   1     -28.016  -0.814  28.878  0.00  0.00    +0.006 A 
ATOM      2  C   UNL A   1     -28.469  -0.785  29.829  0.00  0.00    +0.000 A 
ATOM      3  C   UNL A   1     -27.087   0.290  28.638  0.00  0.00    +0.069 A 
ATOM      4  C   UNL A   1     -26.252   0.411  27.422  0.00  0.00    +0.270 C 
ATOM      5  C   UNL A   1     -28.391   0.104  30.980  0.00  0.00    +0.001 A 
ATOM      6  C   UNL A   1     -27.533   1.167  30.787  0.00  0.00    +0.015 A 
ATOM      7  C   UNL A   1     -26.828   1.256  29.645  0.00  0.00    +0.057 A 
ATOM      8  N   UNL A   1     -25.189   0.469  27.361  0.00  0.00    -0.174 NA
ATOM      9  O   UNL A   1     -26.929   0.063  26.270  0.00  0.00    -0.268 OA
ATOM     10  C   UNL A   1     -24.245   0.737  28.516  0.00  0.00    +0.087 A 
ATOM     11  C   UNL A   1     -23.305  -0.389  28.675  0.00  0.00    +0.018 A 
ATOM     12  C   UNL A   1     -22.909  -0.555  29.831  0.00  0.00    +0.001 A 
ATOM     13  C   UNL A   1     -22.928   0.429  30.928  0.00  0.00    +0.001 A 
ATOM     14  C   UNL A   1     -23.805   1.512  30.671  0.00  0.00    +0.016 A 
ATOM     15  C   UNL A   1     -24.539   1.575  29.474  0.00  0.00    +0.068 A 
ATOM     16  N   UNL A   1     -25.921   1.453  29.981  0.00  0.00    -0.280 N 
ENDROOT
BRANCH  16  17
ATOM     17  C   UNL A   1     -25.939   2.825  30.993  0.00  0.00    +0.122 C 
ATOM     18  C   UNL A   1     -25.466   3.860  30.660  0.00  0.00    -0.002 C 
ATOM     19  C   UNL A   1     -25.555   4.982  31.439  0.00  0.00    -0.003 C 
ATOM     20  C   UNL A   1     -26.044   4.828  32.767  0.00  0.00    -0.003 C 
ATOM     21  C   UNL A   1     -26.415   3.004  32.354  0.00  0.00    -0.002 C 
ENDBRANCH  16  17
TORSDOF 1
