REMARK  Name = No_4962-gen_results/8p0m/2024-11-26-14-13-15/
REMARK  2 active torsions:
REMARK  status: ('A' for Active; 'I' for Inactive)
REMARK    1  A    between atoms: C_3  and  C_7
REMARK    2  A    between atoms: C_5  and  C_13
REMARK                            x       y       z     vdW  Elec       q    Type
REMARK                         _______ _______ _______ _____ _____    ______ ____
ROOT
ATOM      1  C   UNL A   1     -28.016  -0.814  28.878  0.00  0.00    -0.000 A 
ATOM      2  C   UNL A   1     -27.064  -0.119  28.608  0.00  0.00    -0.000 A 
ATOM      3  C   UNL A   1     -26.972   0.714  27.506  0.00  0.00    +0.000 A 
ATOM      4  C   UNL A   1     -28.105   0.774  26.642  0.00  0.00    +0.004 A 
ATOM      5  C   UNL A   1     -29.204   0.118  27.048  0.00  0.00    +0.071 A 
ATOM      6  C   UNL A   1     -29.213  -0.609  28.128  0.00  0.00    +0.004 A 
ENDROOT
BRANCH   3   7
ATOM      7  C   UNL A   1     -25.711   1.452  27.138  0.00  0.00    +0.003 A 
ATOM      8  C   UNL A   1     -25.377   2.046  26.174  0.00  0.00    +0.000 A 
ATOM      9  C   UNL A   1     -24.075   2.719  25.978  0.00  0.00    +0.003 A 
ATOM     10  C   UNL A   1     -23.077   2.499  26.948  0.00  0.00    +0.042 A 
ATOM     11  C   UNL A   1     -23.364   1.622  28.010  0.00  0.00    +0.196 A 
ATOM     12  C   UNL A   1     -24.624   1.088  28.175  0.00  0.00    +0.042 A 
ATOM     13  O   UNL A   1     -22.342   1.444  28.887  0.00  0.00    -0.287 OA
ENDBRANCH   3   7
BRANCH   5  14
ATOM     14  C   UNL A   1     -30.403   0.268  26.186  0.00  0.00    +0.419 C 
ATOM     15  F   UNL A   1     -31.034   1.324  26.472  0.00  0.00    -0.166 F 
ATOM     16  F   UNL A   1     -30.109   0.238  24.895  0.00  0.00    -0.166 F 
ATOM     17  F   UNL A   1     -31.232  -0.786  26.288  0.00  0.00    -0.166 F 
ENDBRANCH   5  14
TORSDOF 2
