MODEL 4962
MODEL 1
REMARK VINA RESULT:    -7.467      0.000      0.000
REMARK INTER + INTRA:          -8.893
REMARK INTER:                  -8.340
REMARK INTRA:                  -0.553
REMARK UNBOUND:                -0.553
REMARK  Name = No_4962-gen_results/8p0m/2024-11-26-14-13-15/
REMARK  2 active torsions:
REMARK  status: ('A' for Active; 'I' for Inactive)
REMARK    1  A    between atoms: C_3  and  C_7
REMARK    2  A    between atoms: C_5  and  C_13
REMARK                            x       y       z     vdW  Elec       q    Type
REMARK                         _______ _______ _______ _____ _____    ______ ____
ROOT
ATOM      1  C   UNL A   1     -21.746  -0.157  29.119  0.00  0.00    -0.000 A 
ATOM      2  C   UNL A   1     -22.554  -1.036  29.312  0.00  0.00    -0.000 A 
ATOM      3  C   UNL A   1     -23.801  -1.116  28.716  0.00  0.00    +0.000 A 
ATOM      4  C   UNL A   1     -24.140  -0.095  27.781  0.00  0.00    +0.004 A 
ATOM      5  C   UNL A   1     -23.168   0.777  27.466  0.00  0.00    +0.071 A 
ATOM      6  C   UNL A   1     -22.004   0.750  28.048  0.00  0.00    +0.004 A 
ENDROOT
BRANCH   3   7
ATOM      7  C   UNL A   1     -24.827  -2.153  29.095  0.00  0.00    +0.003 A 
ATOM      8  C   UNL A   1     -25.830  -2.106  29.716  0.00  0.00    +0.000 A 
ATOM      9  C   UNL A   1     -26.729  -3.245  29.999  0.00  0.00    +0.003 A 
ATOM     10  C   UNL A   1     -26.278  -4.532  29.646  0.00  0.00    +0.042 A 
ATOM     11  C   UNL A   1     -24.990  -4.657  29.094  0.00  0.00    +0.196 A 
ATOM     12  C   UNL A   1     -24.234  -3.547  28.785  0.00  0.00    +0.042 A 
ATOM     13  O   UNL A   1     -24.621  -5.932  28.805  0.00  0.00    -0.287 OA
ENDBRANCH   3   7
BRANCH   5  14
ATOM     14  C   UNL A   1     -23.507   1.775  26.422  0.00  0.00    +0.419 C 
ATOM     15  F   UNL A   1     -24.081   2.780  26.928  0.00  0.00    -0.166 F 
ATOM     16  F   UNL A   1     -22.452   2.150  25.715  0.00  0.00    -0.166 F 
ATOM     17  F   UNL A   1     -24.291   1.254  25.461  0.00  0.00    -0.166 F 
ENDBRANCH   5  14
TORSDOF 2
ENDMDL
ENDMDL
