REMARK  Name = No_4963-gen_results/8p0m/2024-11-26-14-13-15/
REMARK  8 active torsions:
REMARK  status: ('A' for Active; 'I' for Inactive)
REMARK    1  A    between atoms: C_2  and  O_23
REMARK    2  A    between atoms: C_3  and  C_7
REMARK    3  A    between atoms: C_6  and  O_13
REMARK    4  A    between atoms: C_9  and  O_21
REMARK    5  A    between atoms: O_13  and  C_14
REMARK    6  A    between atoms: C_14  and  C_15
REMARK    7  A    between atoms: O_23  and  C_24
REMARK    8  A    between atoms: C_24  and  C_25
REMARK                            x       y       z     vdW  Elec       q    Type
REMARK                         _______ _______ _______ _____ _____    ______ ____
ROOT
ATOM      1  C   UNL A   1     -28.016  -0.814  28.878  0.00  0.00    +0.075 A 
ATOM      2  C   UNL A   1     -27.064  -0.119  28.608  0.00  0.00    +0.152 A 
ATOM      3  C   UNL A   1     -25.765  -0.390  29.036  0.00  0.00    +0.035 A 
ATOM      4  C   UNL A   1     -25.530  -1.530  29.901  0.00  0.00    +0.006 A 
ATOM      5  C   UNL A   1     -26.689  -2.289  30.181  0.00  0.00    +0.037 A 
ATOM      6  C   UNL A   1     -27.873  -1.951  29.737  0.00  0.00    +0.147 A 
ENDROOT
BRANCH   3   7
ATOM      7  C   UNL A   1     -24.549   0.410  28.734  0.00  0.00    +0.006 A 
ATOM      8  C   UNL A   1     -24.479   1.187  27.684  0.00  0.00    +0.037 A 
ATOM      9  C   UNL A   1     -23.272   1.897  27.373  0.00  0.00    +0.139 A 
ATOM     10  C   UNL A   1     -22.106   1.703  28.041  0.00  0.00    +0.037 A 
ATOM     11  C   UNL A   1     -23.319   0.179  29.467  0.00  0.00    +0.000 A 
ATOM     12  C   UNL A   1     -22.116   0.840  29.101  0.00  0.00    +0.003 A 
BRANCH   9  13
ATOM     13  O   UNL A   1     -23.322   2.769  26.306  0.00  0.00    -0.471 OA
ATOM     14  C   UNL A   1     -24.586   3.272  25.968  0.00  0.00    +0.253 C 
ENDBRANCH   9  13
ENDBRANCH   3   7
BRANCH   6  15
ATOM     15  O   UNL A   1     -28.958  -2.707  30.102  0.00  0.00    -0.424 OA
BRANCH  15  16
ATOM     16  C   UNL A   1     -30.073  -2.132  30.581  0.00  0.00    +0.500 C 
ATOM     17  F   UNL A   1     -29.812  -0.882  30.838  0.00  0.00    -0.156 F 
ATOM     18  F   UNL A   1     -30.974  -2.157  29.577  0.00  0.00    -0.156 F 
BRANCH  16  19
ATOM     19  C   UNL A   1     -30.513  -2.839  31.713  0.00  0.00    +0.497 C 
ATOM     20  F   UNL A   1     -31.517  -2.403  32.172  0.00  0.00    -0.162 F 
ATOM     21  F   UNL A   1     -29.564  -2.742  32.683  0.00  0.00    -0.162 F 
ATOM     22  F   UNL A   1     -30.639  -4.147  31.467  0.00  0.00    -0.162 F 
ENDBRANCH  16  19
ENDBRANCH  15  16
ENDBRANCH   6  15
BRANCH   2  23
ATOM     23  O   UNL A   1     -27.172   0.976  27.783  0.00  0.00    -0.418 OA
BRANCH  23  24
ATOM     24  C   UNL A   1     -27.924   0.839  26.634  0.00  0.00    +0.400 C 
ATOM     25  O   UNL A   1     -27.319   0.404  25.626  0.00  0.00    -0.239 OA
BRANCH  24  26
ATOM     26  C   UNL A   1     -29.129   1.448  26.692  0.00  0.00    +0.326 C 
ATOM     27  O   UNL A   1     -29.494   2.044  27.632  0.00  0.00    -0.263 OA
ATOM     28  N   UNL A   1     -30.105   0.885  25.858  0.00  0.00    -0.271 N 
ATOM     29  C   UNL A   1     -31.511   1.229  25.928  0.00  0.00    +0.094 C 
ATOM     30  C   UNL A   1     -32.272   0.459  25.268  0.00  0.00    +0.022 C 
ATOM     31  C   UNL A   1     -31.785  -0.530  24.438  0.00  0.00    +0.004 C 
ATOM     32  C   UNL A   1     -30.402  -0.858  24.390  0.00  0.00    +0.022 C 
ATOM     33  C   UNL A   1     -29.567  -0.146  25.183  0.00  0.00    +0.094 C 
ENDBRANCH  24  26
ENDBRANCH  23  24
ENDBRANCH   2  23
TORSDOF 8
