MODEL 4963
MODEL 1
REMARK VINA RESULT:    -6.972      0.000      0.000
REMARK INTER + INTRA:         -11.834
REMARK INTER:                 -10.233
REMARK INTRA:                  -1.601
REMARK UNBOUND:                -1.601
REMARK  Name = No_4963-gen_results/8p0m/2024-11-26-14-13-15/
REMARK  8 active torsions:
REMARK  status: ('A' for Active; 'I' for Inactive)
REMARK    1  A    between atoms: C_2  and  O_23
REMARK    2  A    between atoms: C_3  and  C_7
REMARK    3  A    between atoms: C_6  and  O_13
REMARK    4  A    between atoms: C_9  and  O_21
REMARK    5  A    between atoms: O_13  and  C_14
REMARK    6  A    between atoms: C_14  and  C_15
REMARK    7  A    between atoms: O_23  and  C_24
REMARK    8  A    between atoms: C_24  and  C_25
REMARK                            x       y       z     vdW  Elec       q    Type
REMARK                         _______ _______ _______ _____ _____    ______ ____
ROOT
ATOM      1  C   UNL A   1     -27.467   1.654  25.031  0.00  0.00    +0.075 A 
ATOM      2  C   UNL A   1     -26.462   1.736  25.698  0.00  0.00    +0.152 A 
ATOM      3  C   UNL A   1     -25.472   0.755  25.725  0.00  0.00    +0.035 A 
ATOM      4  C   UNL A   1     -25.666  -0.465  24.964  0.00  0.00    +0.006 A 
ATOM      5  C   UNL A   1     -26.866  -0.493  24.218  0.00  0.00    +0.037 A 
ATOM      6  C   UNL A   1     -27.742   0.478  24.261  0.00  0.00    +0.147 A 
ENDROOT
BRANCH   3   7
ATOM      7  C   UNL A   1     -24.209   0.793  26.508  0.00  0.00    +0.006 A 
ATOM      8  C   UNL A   1     -24.021   0.024  27.549  0.00  0.00    +0.037 A 
ATOM      9  C   UNL A   1     -22.824   0.125  28.333  0.00  0.00    +0.139 A 
ATOM     10  C   UNL A   1     -21.896   1.098  28.144  0.00  0.00    +0.037 A 
ATOM     11  C   UNL A   1     -23.237   1.845  26.281  0.00  0.00    +0.000 A 
ATOM     12  C   UNL A   1     -22.091   1.972  27.111  0.00  0.00    +0.003 A 
BRANCH   9  13
ATOM     13  O   UNL A   1     -22.668  -0.792  29.350  0.00  0.00    -0.471 OA
ATOM     14  C   UNL A   1     -23.359  -2.004  29.211  0.00  0.00    +0.253 C 
ENDBRANCH   9  13
ENDBRANCH   3   7
BRANCH   6  15
ATOM     15  O   UNL A   1     -28.911   0.349  23.554  0.00  0.00    -0.424 OA
BRANCH  15  16
ATOM     16  C   UNL A   1     -30.014  -0.159  24.127  0.00  0.00    +0.500 C 
ATOM     17  F   UNL A   1     -29.814  -0.230  25.412  0.00  0.00    -0.156 F 
ATOM     18  F   UNL A   1     -30.997   0.743  23.922  0.00  0.00    -0.156 F 
BRANCH  16  19
ATOM     19  C   UNL A   1     -30.306  -1.408  23.552  0.00  0.00    +0.497 C 
ATOM     20  F   UNL A   1     -31.303  -1.402  22.910  0.00  0.00    -0.162 F 
ATOM     21  F   UNL A   1     -30.487  -2.314  24.550  0.00  0.00    -0.162 F 
ATOM     22  F   UNL A   1     -29.284  -1.874  22.828  0.00  0.00    -0.162 F 
ENDBRANCH  16  19
ENDBRANCH  15  16
ENDBRANCH   6  15
BRANCH   2  23
ATOM     23  O   UNL A   1     -26.171   2.855  26.443  0.00  0.00    -0.418 OA
BRANCH  23  24
ATOM     24  C   UNL A   1     -26.766   2.970  27.682  0.00  0.00    +0.400 C 
ATOM     25  O   UNL A   1     -28.016   3.065  27.688  0.00  0.00    -0.239 OA
BRANCH  24  26
ATOM     26  C   UNL A   1     -25.899   3.237  28.684  0.00  0.00    +0.326 C 
ATOM     27  O   UNL A   1     -24.968   3.934  28.548  0.00  0.00    -0.263 OA
ATOM     28  N   UNL A   1     -25.833   2.246  29.674  0.00  0.00    -0.271 N 
ATOM     29  C   UNL A   1     -24.819   2.216  30.708  0.00  0.00    +0.094 C 
ATOM     30  C   UNL A   1     -24.773   1.133  31.365  0.00  0.00    +0.022 C 
ATOM     31  C   UNL A   1     -25.707   0.130  31.205  0.00  0.00    +0.004 C 
ATOM     32  C   UNL A   1     -26.690   0.174  30.179  0.00  0.00    +0.022 C 
ATOM     33  C   UNL A   1     -26.689   1.256  29.365  0.00  0.00    +0.094 C 
ENDBRANCH  24  26
ENDBRANCH  23  24
ENDBRANCH   2  23
TORSDOF 8
ENDMDL
ENDMDL
