REMARK  Name = No_4964-gen_results/8p0m/2024-11-26-14-13-15/
REMARK  6 active torsions:
REMARK  status: ('A' for Active; 'I' for Inactive)
REMARK    1  A    between atoms: C_3  and  C_15
REMARK    2  A    between atoms: C_4  and  C_7
REMARK    3  A    between atoms: C_7  and  C_9
REMARK    4  A    between atoms: C_15  and  C_16
REMARK    5  A    between atoms: C_16  and  C_18
REMARK    6  A    between atoms: C_22  and  C_24
REMARK                            x       y       z     vdW  Elec       q    Type
REMARK                         _______ _______ _______ _____ _____    ______ ____
ROOT
ATOM      1  C   UNL A   1     -28.016  -0.814  28.878  0.00  0.00    -0.004 A 
ATOM      2  C   UNL A   1     -28.469  -0.785  29.829  0.00  0.00    -0.000 A 
ATOM      3  C   UNL A   1     -26.504  -0.778  28.877  0.00  0.00    -0.022 A 
ATOM      4  C   UNL A   1     -25.915  -0.658  29.923  0.00  0.00    -0.004 A 
ATOM      5  C   UNL A   1     -27.969  -0.724  31.205  0.00  0.00    -0.000 A 
ATOM      6  C   UNL A   1     -26.585  -0.639  31.206  0.00  0.00    -0.000 A 
ENDROOT
BRANCH   4   7
ATOM      7  C   UNL A   1     -24.403  -0.585  30.042  0.00  0.00    -0.000 C 
ATOM      8  C   UNL A   1     -23.744  -1.371  30.551  0.00  0.00    -0.000 C 
BRANCH   7   9
ATOM      9  C   UNL A   1     -23.817   0.772  30.003  0.00  0.00    -0.000 A 
ATOM     10  C   UNL A   1     -22.951   1.107  29.472  0.00  0.00    -0.000 A 
ATOM     11  C   UNL A   1     -22.600   2.463  29.060  0.00  0.00    -0.000 A 
ATOM     12  C   UNL A   1     -24.680   1.916  30.626  0.00  0.00    -0.000 A 
ATOM     13  C   UNL A   1     -24.466   3.214  30.360  0.00  0.00    -0.000 A 
ATOM     14  C   UNL A   1     -23.357   3.480  29.570  0.00  0.00    +0.000 A 
ENDBRANCH   7   9
ENDBRANCH   4   7
BRANCH   3  15
ATOM     15  C   UNL A   1     -25.773  -0.710  27.557  0.00  0.00    +0.031 C 
BRANCH  15  16
ATOM     16  C   UNL A   1     -26.170   0.247  26.514  0.00  0.00    +0.027 C 
ATOM     17  C   UNL A   1     -25.486   0.300  25.376  0.00  0.00    +0.005 C 
BRANCH  16  18
ATOM     18  C   UNL A   1     -26.378   1.629  26.986  0.00  0.00    -0.022 A 
ATOM     19  C   UNL A   1     -26.556   2.689  26.127  0.00  0.00    -0.004 A 
ATOM     20  C   UNL A   1     -26.650   3.974  26.717  0.00  0.00    -0.000 A 
ATOM     21  C   UNL A   1     -27.082   4.208  27.934  0.00  0.00    -0.000 A 
ATOM     22  C   UNL A   1     -27.244   3.051  28.812  0.00  0.00    -0.001 A 
ATOM     23  C   UNL A   1     -26.928   1.819  28.367  0.00  0.00    -0.004 A 
BRANCH  22  24
ATOM     24  C   UNL A   1     -27.756   3.348  30.185  0.00  0.00    -0.005 C 
ATOM     25  C   UNL A   1     -28.488   2.308  30.813  0.00  0.00    -0.026 C 
ATOM     26  C   UNL A   1     -29.187   2.730  31.859  0.00  0.00    +0.031 C 
ENDBRANCH  22  24
ENDBRANCH  16  18
ENDBRANCH  15  16
ENDBRANCH   3  15
TORSDOF 6
