MODEL 4964
MODEL 1
REMARK VINA RESULT:    -7.071      0.000      0.000
REMARK INTER + INTRA:         -14.111
REMARK INTER:                  -9.551
REMARK INTRA:                  -4.560
REMARK UNBOUND:                -4.560
REMARK  Name = No_4964-gen_results/8p0m/2024-11-26-14-13-15/
REMARK  6 active torsions:
REMARK  status: ('A' for Active; 'I' for Inactive)
REMARK    1  A    between atoms: C_3  and  C_15
REMARK    2  A    between atoms: C_4  and  C_7
REMARK    3  A    between atoms: C_7  and  C_9
REMARK    4  A    between atoms: C_15  and  C_16
REMARK    5  A    between atoms: C_16  and  C_18
REMARK    6  A    between atoms: C_22  and  C_24
REMARK                            x       y       z     vdW  Elec       q    Type
REMARK                         _______ _______ _______ _____ _____    ______ ____
ROOT
ATOM      1  C   UNL A   1     -24.138  -3.701  29.375  0.00  0.00    -0.004 A 
ATOM      2  C   UNL A   1     -24.875  -4.448  29.278  0.00  0.00    -0.000 A 
ATOM      3  C   UNL A   1     -24.619  -2.381  29.935  0.00  0.00    -0.022 A 
ATOM      4  C   UNL A   1     -25.792  -2.234  30.176  0.00  0.00    -0.004 A 
ATOM      5  C   UNL A   1     -26.308  -4.523  29.575  0.00  0.00    -0.000 A 
ATOM      6  C   UNL A   1     -26.763  -3.299  30.041  0.00  0.00    -0.000 A 
ENDROOT
BRANCH   4   7
ATOM      7  C   UNL A   1     -26.393  -0.948  30.716  0.00  0.00    -0.000 C 
ATOM      8  C   UNL A   1     -26.955  -0.851  31.709  0.00  0.00    -0.000 C 
BRANCH   7   9
ATOM      9  C   UNL A   1     -26.754   0.070  29.706  0.00  0.00    -0.000 A 
ATOM     10  C   UNL A   1     -27.495   0.010  28.937  0.00  0.00    -0.000 A 
ATOM     11  C   UNL A   1     -28.168   1.097  28.231  0.00  0.00    -0.000 A 
ATOM     12  C   UNL A   1     -26.146   1.494  29.913  0.00  0.00    -0.000 A 
ATOM     13  C   UNL A   1     -26.641   2.589  29.315  0.00  0.00    -0.000 A 
ATOM     14  C   UNL A   1     -27.672   2.356  28.417  0.00  0.00    +0.000 A 
ENDBRANCH   7   9
ENDBRANCH   4   7
BRANCH   3  15
ATOM     15  C   UNL A   1     -23.655  -1.221  30.011  0.00  0.00    +0.031 C 
BRANCH  15  16
ATOM     16  C   UNL A   1     -22.857  -0.816  28.844  0.00  0.00    +0.027 C 
ATOM     17  C   UNL A   1     -21.586  -0.466  29.008  0.00  0.00    +0.005 C 
BRANCH  16  18
ATOM     18  C   UNL A   1     -23.497   0.186  27.971  0.00  0.00    -0.022 A 
ATOM     19  C   UNL A   1     -22.940   1.419  27.721  0.00  0.00    -0.004 A 
ATOM     20  C   UNL A   1     -23.710   2.316  26.939  0.00  0.00    -0.000 A 
ATOM     21  C   UNL A   1     -24.603   1.954  26.048  0.00  0.00    -0.000 A 
ATOM     22  C   UNL A   1     -24.995   0.546  26.039  0.00  0.00    -0.001 A 
ATOM     23  C   UNL A   1     -24.464  -0.306  26.937  0.00  0.00    -0.004 A 
BRANCH  22  24
ATOM     24  C   UNL A   1     -25.998   0.161  24.999  0.00  0.00    -0.005 C 
ATOM     25  C   UNL A   1     -27.025   1.107  24.748  0.00  0.00    -0.026 C 
ATOM     26  C   UNL A   1     -28.050   0.589  24.082  0.00  0.00    +0.031 C 
ENDBRANCH  22  24
ENDBRANCH  16  18
ENDBRANCH  15  16
ENDBRANCH   3  15
TORSDOF 6
ENDMDL
ENDMDL
