MODEL 4965
MODEL 1
REMARK VINA RESULT:    -5.013      0.000      0.000
REMARK INTER + INTRA:          -5.013
REMARK INTER:                  -5.013
REMARK INTRA:                   0.000
REMARK UNBOUND:                 0.000
REMARK  Name = No_4965-gen_results/8p0m/2024-11-26-14-13-15/
REMARK  0 active torsions:
REMARK  status: ('A' for Active; 'I' for Inactive)
REMARK                            x       y       z     vdW  Elec       q    Type
REMARK                         _______ _______ _______ _____ _____    ______ ____
ROOT
ATOM      1  C   UNL A   1     -10.474  -9.278  19.196  0.00  0.00    +0.042 A 
ATOM      2  C   UNL A   1      -9.732  -9.088  20.132  0.00  0.00    +0.003 A 
ATOM      3  C   UNL A   1      -8.442  -9.607  20.142  0.00  0.00    +0.000 A 
ATOM      4  C   UNL A   1      -7.965 -10.427  19.058  0.00  0.00    +0.003 A 
ATOM      5  C   UNL A   1      -8.896 -10.615  18.029  0.00  0.00    +0.042 A 
ATOM      6  C   UNL A   1     -10.110 -10.116  18.075  0.00  0.00    +0.196 A 
ATOM      7  O   UNL A   1     -10.967 -10.378  17.051  0.00  0.00    -0.287 OA
ENDROOT
TORSDOF 0
ENDMDL
ENDMDL
