REMARK  Name = No_4966-gen_results/8p0m/2024-11-26-14-13-15/
REMARK  7 active torsions:
REMARK  status: ('A' for Active; 'I' for Inactive)
REMARK    1  A    between atoms: C_2  and  C_23
REMARK    2  A    between atoms: C_4  and  C_7
REMARK    3  A    between atoms: C_7  and  C_8
REMARK    4  A    between atoms: N_18  and  C_19
REMARK    5  A    between atoms: C_19  and  C_26
REMARK    6  A    between atoms: C_27  and  C_32
REMARK    7  A    between atoms: C_33  and  C_34
REMARK                            x       y       z     vdW  Elec       q    Type
REMARK                         _______ _______ _______ _____ _____    ______ ____
ROOT
ATOM      1  C   UNL A   1     -23.705   0.096  29.844  0.00  0.00    -0.044 C 
ATOM      2  C   UNL A   1     -22.428   0.116  29.217  0.00  0.00    -0.034 C 
ATOM      3  C   UNL A   1     -21.815   1.294  28.877  0.00  0.00    +0.025 C 
ATOM      4  C   UNL A   1     -24.197   1.377  30.271  0.00  0.00    +0.025 C 
ATOM      5  C   UNL A   1     -25.418   1.420  31.057  0.00  0.00    +0.026 C 
ATOM      6  C   UNL A   1     -22.347   1.921  27.757  0.00  0.00    +0.005 C 
ATOM      7  C   UNL A   1     -25.735   2.895  31.416  0.00  0.00    +0.094 C 
ATOM      8  C   UNL A   1     -23.711   2.393  27.764  0.00  0.00    +0.010 C 
ATOM      9  C   UNL A   1     -24.470   2.097  29.028  0.00  0.00    +0.080 C 
ATOM     10  C   UNL A   1     -25.562   3.150  29.111  0.00  0.00    +0.226 C 
ATOM     11  N   UNL A   1     -26.241   3.347  30.258  0.00  0.00    -0.275 N 
ATOM     12  O   UNL A   1     -26.104   3.604  28.031  0.00  0.00    -0.275 OA
ATOM     13  C   UNL A   1     -23.143   2.114  31.244  0.00  0.00    +0.005 C 
ENDROOT
BRANCH   1  14
ATOM     14  C   UNL A   1     -24.381  -1.108  30.085  0.00  0.00    +0.051 C 
BRANCH  14  18
ATOM     15  C   UNL A   1     -28.016  -0.814  28.878  0.00  0.00    +0.048 A 
ATOM     16  C   UNL A   1     -28.469  -0.785  29.829  0.00  0.00    +0.083 A 
ATOM     17  C   UNL A   1     -26.546  -0.876  28.850  0.00  0.00    +0.192 A 
ATOM     18  C   UNL A   1     -25.804  -1.032  30.057  0.00  0.00    +0.021 A 
ATOM     19  C   UNL A   1     -27.944  -0.987  31.207  0.00  0.00    +0.006 A 
ATOM     20  C   UNL A   1     -26.582  -1.039  31.223  0.00  0.00    -0.001 A 
ATOM     21  O   UNL A   1     -25.831  -0.796  27.714  0.00  0.00    -0.287 OA
BRANCH  16  22
ATOM     22  C   UNL A   1     -30.098  -0.674  29.858  0.00  0.00    +0.388 C 
ATOM     23  O   UNL A   1     -30.619   0.413  30.423  0.00  0.00    -0.241 OA
ATOM     24  O   UNL A   1     -30.721  -1.189  28.973  0.00  0.00    -0.241 OA
ENDBRANCH  16  22
ENDBRANCH  14  18
ENDBRANCH   1  14
BRANCH  11  25
ATOM     25  C   UNL A   1     -27.464   4.079  30.246  0.00  0.00    +0.120 C 
BRANCH  25  26
ATOM     26  C   UNL A   1     -27.552   5.252  30.836  0.00  0.00    -0.002 A 
ATOM     27  C   UNL A   1     -27.886   6.253  30.677  0.00  0.00    -0.002 A 
ATOM     28  C   UNL A   1     -27.889   7.508  31.486  0.00  0.00    -0.000 A 
ATOM     29  C   UNL A   1     -27.342   7.511  32.367  0.00  0.00    -0.000 A 
ATOM     30  C   UNL A   1     -26.600   6.391  32.971  0.00  0.00    -0.000 A 
ATOM     31  C   UNL A   1     -26.675   5.203  32.190  0.00  0.00    -0.003 A 
BRANCH  27  32
ATOM     32  C   UNL A   1     -28.734   6.395  29.329  0.00  0.00    -0.000 C 
ATOM     33  C   UNL A   1     -29.861   5.648  29.250  0.00  0.00    -0.000 C 
BRANCH  33  34
ATOM     34  C   UNL A   1     -30.585   5.641  28.052  0.00  0.00    -0.000 C 
ATOM     35  C   UNL A   1     -30.097   6.463  27.010  0.00  0.00    -0.000 C 
ENDBRANCH  33  34
ENDBRANCH  27  32
ENDBRANCH  25  26
ENDBRANCH  11  25
TORSDOF 7
