MODEL 4967
MODEL 1
REMARK VINA RESULT:    -3.302      0.000      0.000
REMARK INTER + INTRA:          -3.781
REMARK INTER:                  -3.688
REMARK INTRA:                  -0.093
REMARK UNBOUND:                -0.093
REMARK  Name = No_4967-gen_results/8p0m/2024-11-26-14-13-15/
REMARK  2 active torsions:
REMARK  status: ('A' for Active; 'I' for Inactive)
REMARK    1  A    between atoms: C_2  and  C_3
REMARK    2  A    between atoms: C_4  and  C_5
REMARK                            x       y       z     vdW  Elec       q    Type
REMARK                         _______ _______ _______ _____ _____    ______ ____
ROOT
ATOM      1  C   UNL A   1     -24.378  -1.945  29.096  0.00  0.00    -0.013 C 
ATOM      2  C   UNL A   1     -25.019  -3.233  28.871  0.00  0.00    -0.029 C 
ENDROOT
BRANCH   1   4
ATOM      3 CL   UNL A   1     -22.314  -0.780  28.924  0.00  0.00    -0.109 Cl
ATOM      4  C   UNL A   1     -23.266  -1.749  29.408  0.00  0.00    +0.120 C 
ENDBRANCH   1   4
BRANCH   2   5
ATOM      5  C   UNL A   1     -24.318  -4.122  28.736  0.00  0.00    +0.026 C 
ATOM      6  C   UNL A   1     -24.778  -5.563  28.911  0.00  0.00    +0.005 C 
ENDBRANCH   2   5
TORSDOF 2
ENDMDL
ENDMDL
