REMARK  Name = No_4967-gen_results/8p0m/2024-11-26-14-13-15/
REMARK  2 active torsions:
REMARK  status: ('A' for Active; 'I' for Inactive)
REMARK    1  A    between atoms: C_2  and  C_3
REMARK    2  A    between atoms: C_4  and  C_5
REMARK                            x       y       z     vdW  Elec       q    Type
REMARK                         _______ _______ _______ _____ _____    ______ ____
ROOT
ATOM      1  C   UNL A   1     -25.966  -0.212  29.623  0.00  0.00    -0.013 C 
ATOM      2  C   UNL A   1     -24.762   0.606  29.631  0.00  0.00    -0.029 C 
ENDROOT
BRANCH   1   4
ATOM      3 CL   UNL A   1     -28.149  -0.820  28.908  0.00  0.00    -0.109 Cl
ATOM      4  C   UNL A   1     -26.912  -0.080  28.945  0.00  0.00    +0.120 C 
ENDBRANCH   1   4
BRANCH   2   5
ATOM      5  C   UNL A   1     -24.612   1.281  28.724  0.00  0.00    +0.026 C 
ATOM      6  C   UNL A   1     -23.404   2.196  28.573  0.00  0.00    +0.005 C 
ENDBRANCH   2   5
TORSDOF 2
