MODEL 4968
MODEL 1
REMARK VINA RESULT:    -7.288      0.000      0.000
REMARK INTER + INTRA:         -13.404
REMARK INTER:                 -11.548
REMARK INTRA:                  -1.856
REMARK UNBOUND:                -1.856
REMARK  Name = No_4968-gen_results/8p0m/2024-11-26-14-13-15/
REMARK  10 active torsions:
REMARK  status: ('A' for Active; 'I' for Inactive)
REMARK    1  A    between atoms: C_2  and  C_23
REMARK    2  A    between atoms: C_7  and  O_12
REMARK    3  A    between atoms: O_12  and  C_13
REMARK    4  A    between atoms: C_13  and  C_14
REMARK    5  A    between atoms: C_19  and  C_20
REMARK    6  A    between atoms: N_25  and  C_26
REMARK    7  A    between atoms: C_26  and  C_27
REMARK    8  A    between atoms: C_27  and  C_28
REMARK    9  A    between atoms: C_29  and  C_30
REMARK   10  A    between atoms: C_31  and  C_32
REMARK                            x       y       z     vdW  Elec       q    Type
REMARK                         _______ _______ _______ _____ _____    ______ ____
ROOT
ATOM      1  C   UNL A   1      -9.773  -1.042  36.613  0.00  0.00    +0.007 A 
ATOM      2  C   UNL A   1      -9.415  -0.106  36.288  0.00  0.00    +0.058 A 
ATOM      3  C   UNL A   1     -10.807  -0.944  37.651  0.00  0.00    +0.030 A 
ATOM      4  C   UNL A   1     -11.562  -2.135  38.082  0.00  0.00    +0.140 A 
ATOM      5  C   UNL A   1     -12.134  -2.241  39.257  0.00  0.00    +0.030 A 
ATOM      6  C   UNL A   1      -9.539   1.219  36.829  0.00  0.00    +0.042 A 
ATOM      7  C   UNL A   1     -10.436   1.332  37.788  0.00  0.00    +0.139 A 
ATOM      8  C   UNL A   1     -11.157   0.242  38.219  0.00  0.00    +0.036 A 
ATOM      9  C   UNL A   1     -12.440  -1.023  39.989  0.00  0.00    +0.002 A 
ATOM     10  C   UNL A   1     -11.944   0.191  39.423  0.00  0.00    +0.003 A 
ATOM     11  F   UNL A   1     -11.319  -3.313  37.520  0.00  0.00    -0.204 F 
ENDROOT
BRANCH   2  12
ATOM     12  C   UNL A   1      -8.276  -0.110  35.081  0.00  0.00    +0.265 C 
ATOM     13  O   UNL A   1      -8.411   0.678  34.175  0.00  0.00    -0.268 OA
ATOM     14  N   UNL A   1      -7.308  -0.999  35.076  0.00  0.00    -0.201 NA
BRANCH  14  15
ATOM     15  C   UNL A   1      -6.796  -1.539  34.183  0.00  0.00    +0.120 C 
BRANCH  15  16
ATOM     16  C   UNL A   1      -5.591  -2.322  34.423  0.00  0.00    +0.050 C 
BRANCH  16  17
ATOM     17  C   UNL A   1      -4.478  -1.749  34.721  0.00  0.00    -0.024 C 
ATOM     18  C   UNL A   1      -3.334  -2.303  34.171  0.00  0.00    -0.004 C 
BRANCH  18  19
ATOM     19  C   UNL A   1      -2.052  -1.548  34.490  0.00  0.00    -0.000 C 
ATOM     20  C   UNL A   1      -1.040  -1.434  33.488  0.00  0.00    -0.000 C 
BRANCH  20  21
ATOM     21  C   UNL A   1      -1.312  -1.974  32.201  0.00  0.00    -0.000 C 
ATOM     22  C   UNL A   1      -1.238  -1.203  31.055  0.00  0.00    -0.000 C 
ENDBRANCH  20  21
ENDBRANCH  18  19
ENDBRANCH  16  17
ENDBRANCH  15  16
ENDBRANCH  14  15
ENDBRANCH   2  12
BRANCH   7  23
ATOM     23  O   UNL A   1     -10.658   2.564  38.380  0.00  0.00    -0.471 OA
BRANCH  23  24
ATOM     24  C   UNL A   1     -11.102   3.535  37.639  0.00  0.00    +0.232 C 
BRANCH  24  25
ATOM     25  C   UNL A   1     -12.428   3.431  37.284  0.00  0.00    +0.028 A 
ATOM     26  C   UNL A   1     -13.430   3.497  38.069  0.00  0.00    -0.001 A 
ATOM     27  C   UNL A   1     -14.812   3.312  37.696  0.00  0.00    -0.000 A 
ATOM     28  C   UNL A   1     -15.050   3.129  36.297  0.00  0.00    +0.000 A 
ATOM     29  C   UNL A   1     -14.056   3.058  35.390  0.00  0.00    +0.006 A 
ATOM     30  C   UNL A   1     -12.739   3.202  35.829  0.00  0.00    +0.079 A 
BRANCH  30  31
ATOM     31  C   UNL A   1     -11.665   3.109  34.849  0.00  0.00    +0.388 C 
ATOM     32  O   UNL A   1     -11.593   2.126  34.176  0.00  0.00    -0.241 OA
ATOM     33  O   UNL A   1     -11.143   4.255  34.502  0.00  0.00    -0.241 OA
ENDBRANCH  30  31
ENDBRANCH  24  25
ENDBRANCH  23  24
ENDBRANCH   7  23
TORSDOF 10
ENDMDL
ENDMDL
