REMARK  Name = No_4968-gen_results/8p0m/2024-11-26-14-13-15/
REMARK  10 active torsions:
REMARK  status: ('A' for Active; 'I' for Inactive)
REMARK    1  A    between atoms: C_2  and  C_23
REMARK    2  A    between atoms: C_7  and  O_12
REMARK    3  A    between atoms: O_12  and  C_13
REMARK    4  A    between atoms: C_13  and  C_14
REMARK    5  A    between atoms: C_19  and  C_20
REMARK    6  A    between atoms: N_25  and  C_26
REMARK    7  A    between atoms: C_26  and  C_27
REMARK    8  A    between atoms: C_27  and  C_28
REMARK    9  A    between atoms: C_29  and  C_30
REMARK   10  A    between atoms: C_31  and  C_32
REMARK                            x       y       z     vdW  Elec       q    Type
REMARK                         _______ _______ _______ _____ _____    ______ ____
ROOT
ATOM      1  C   UNL A   1     -28.016  -0.814  28.878  0.00  0.00    +0.007 A 
ATOM      2  C   UNL A   1     -28.469  -0.785  29.829  0.00  0.00    +0.058 A 
ATOM      3  C   UNL A   1     -28.182   0.428  28.113  0.00  0.00    +0.030 A 
ATOM      4  C   UNL A   1     -27.450   0.643  26.850  0.00  0.00    +0.140 A 
ATOM      5  C   UNL A   1     -27.860   1.457  25.908  0.00  0.00    +0.030 A 
ATOM      6  C   UNL A   1     -29.426   0.110  30.418  0.00  0.00    +0.042 A 
ATOM      7  C   UNL A   1     -29.623   1.220  29.735  0.00  0.00    +0.139 A 
ATOM      8  C   UNL A   1     -28.961   1.453  28.551  0.00  0.00    +0.036 A 
ATOM      9  C   UNL A   1     -28.789   2.516  26.266  0.00  0.00    +0.002 A 
ATOM     10  C   UNL A   1     -29.299   2.479  27.600  0.00  0.00    +0.003 A 
ATOM     11  F   UNL A   1     -26.619  -0.289  26.399  0.00  0.00    -0.204 F 
ENDROOT
BRANCH   2  12
ATOM     12  C   UNL A   1     -28.296  -2.126  30.790  0.00  0.00    +0.265 C 
ATOM     13  O   UNL A   1     -27.594  -3.023  30.387  0.00  0.00    -0.268 OA
ATOM     14  N   UNL A   1     -28.969  -2.237  31.914  0.00  0.00    -0.201 NA
BRANCH  14  15
ATOM     15  C   UNL A   1     -29.433  -3.177  32.416  0.00  0.00    +0.120 C 
BRANCH  15  16
ATOM     16  C   UNL A   1     -30.878  -3.363  32.376  0.00  0.00    +0.050 C 
BRANCH  16  17
ATOM     17  C   UNL A   1     -31.670  -2.359  32.233  0.00  0.00    -0.024 C 
ATOM     18  C   UNL A   1     -31.592  -1.372  33.201  0.00  0.00    -0.004 C 
BRANCH  18  19
ATOM     19  C   UNL A   1     -32.492  -0.171  32.951  0.00  0.00    -0.000 C 
ATOM     20  C   UNL A   1     -32.427   0.949  33.836  0.00  0.00    -0.000 C 
BRANCH  20  21
ATOM     21  C   UNL A   1     -31.460   0.919  34.879  0.00  0.00    -0.000 C 
ATOM     22  C   UNL A   1     -30.616  -0.161  35.060  0.00  0.00    -0.000 C 
ENDBRANCH  20  21
ENDBRANCH  18  19
ENDBRANCH  16  17
ENDBRANCH  15  16
ENDBRANCH  14  15
ENDBRANCH   2  12
BRANCH   7  23
ATOM     23  O   UNL A   1     -30.513   2.170  30.208  0.00  0.00    -0.471 OA
BRANCH  23  24
ATOM     24  C   UNL A   1     -30.038   3.199  30.843  0.00  0.00    +0.232 C 
BRANCH  24  25
ATOM     25  C   UNL A   1     -30.641   4.398  30.533  0.00  0.00    +0.028 A 
ATOM     26  C   UNL A   1     -31.822   4.557  30.082  0.00  0.00    -0.001 A 
ATOM     27  C   UNL A   1     -32.416   5.813  29.690  0.00  0.00    -0.000 A 
ATOM     28  C   UNL A   1     -31.612   6.972  29.927  0.00  0.00    +0.000 A 
ATOM     29  C   UNL A   1     -30.357   6.904  30.412  0.00  0.00    +0.006 A 
ATOM     30  C   UNL A   1     -29.830   5.651  30.729  0.00  0.00    +0.079 A 
BRANCH  30  31
ATOM     31  C   UNL A   1     -28.467   5.578  31.238  0.00  0.00    +0.388 C 
ATOM     32  O   UNL A   1     -28.033   4.512  31.552  0.00  0.00    -0.241 OA
ATOM     33  O   UNL A   1     -27.710   6.593  30.915  0.00  0.00    -0.241 OA
ENDBRANCH  30  31
ENDBRANCH  24  25
ENDBRANCH  23  24
ENDBRANCH   7  23
TORSDOF 10
