MODEL 4969
MODEL 1
REMARK VINA RESULT:    -4.356      0.000      0.000
REMARK INTER + INTRA:          -4.356
REMARK INTER:                  -4.356
REMARK INTRA:                   0.000
REMARK UNBOUND:                 0.000
REMARK  Name = No_4969-gen_results/8p0m/2024-11-26-14-13-15/
REMARK  0 active torsions:
REMARK  status: ('A' for Active; 'I' for Inactive)
REMARK                            x       y       z     vdW  Elec       q    Type
REMARK                         _______ _______ _______ _____ _____    ______ ____
ROOT
ATOM      1  C   UNL A   1     -24.946  -5.402  29.020  0.00  0.00    +0.000 A 
ATOM      2  C   UNL A   1     -24.203  -4.729  28.696  0.00  0.00    +0.000 A 
ATOM      3  C   UNL A   1     -26.130  -4.741  29.583  0.00  0.00    +0.000 A 
ATOM      4  C   UNL A   1     -26.170  -3.430  29.825  0.00  0.00    +0.000 A 
ATOM      5  C   UNL A   1     -24.017  -3.308  28.864  0.00  0.00    +0.000 A 
ATOM      6  C   UNL A   1     -25.116  -2.715  29.411  0.00  0.00    +0.000 A 
ENDROOT
TORSDOF 0
ENDMDL
ENDMDL
