MODEL 496
MODEL 1
REMARK VINA RESULT:    -6.157      0.000      0.000
REMARK INTER + INTRA:          -6.784
REMARK INTER:                  -6.877
REMARK INTRA:                   0.093
REMARK UNBOUND:                 0.093
REMARK  Name = No_496-gen_results/8p0m/2024-11-26-14-13-15/
REMARK  2 active torsions:
REMARK  status: ('A' for Active; 'I' for Inactive)
REMARK    1  A    between atoms: C_3  and  C_13
REMARK    2  A    between atoms: C_5  and  C_8
REMARK                            x       y       z     vdW  Elec       q    Type
REMARK                         _______ _______ _______ _____ _____    ______ ____
ROOT
ATOM      1  C   UNL A   1     -24.524   2.125  26.372  0.00  0.00    +0.031 C 
ATOM      2  C   UNL A   1     -23.569   2.511  26.148  0.00  0.00    -0.030 C 
ATOM      3  C   UNL A   1     -24.515   0.705  26.721  0.00  0.00    +0.037 C 
ATOM      4  C   UNL A   1     -24.002   0.317  27.770  0.00  0.00    +0.070 C 
ATOM      5  C   UNL A   1     -22.490   0.703  27.860  0.00  0.00    +0.110 C 
ATOM      6  C   UNL A   1     -22.359   2.005  26.346  0.00  0.00    -0.030 C 
ATOM      7  C   UNL A   1     -21.410   1.494  27.698  0.00  0.00    +0.035 C 
ATOM      8 BR   UNL A   1     -23.582   0.450  27.910  0.00  0.00    -0.081 Br
ENDROOT
BRANCH   5   9
ATOM      9  C   UNL A   1     -21.925  -0.268  28.953  0.00  0.00    +0.399 C 
ATOM     10  F   UNL A   1     -21.972   0.165  29.990  0.00  0.00    -0.170 F 
ATOM     11  F   UNL A   1     -22.504  -1.536  28.888  0.00  0.00    -0.170 F 
ATOM     12  F   UNL A   1     -20.547  -0.501  28.608  0.00  0.00    -0.170 F 
ENDBRANCH   5   9
BRANCH   3  13
ATOM     13  C   UNL A   1     -25.636  -0.002  25.966  0.00  0.00    -0.025 C 
ATOM     14  C   UNL A   1     -25.573  -0.329  24.690  0.00  0.00    -0.005 C 
ENDBRANCH   3  13
TORSDOF 2
ENDMDL
ENDMDL
