REMARK  Name = No_497-gen_results/8p0m/2024-11-26-14-13-15/
REMARK  1 active torsions:
REMARK  status: ('A' for Active; 'I' for Inactive)
REMARK    1  A    between atoms: C_3  and  C_9
REMARK                            x       y       z     vdW  Elec       q    Type
REMARK                         _______ _______ _______ _____ _____    ______ ____
ROOT
ATOM      1  O   UNL A   1     -28.123  -1.335  28.487  0.00  0.00    -0.273 OA
ATOM      2  C   UNL A   1     -27.481  -0.404  28.709  0.00  0.00    +0.242 C 
ATOM      3  C   UNL A   1     -27.190   0.246  29.527  0.00  0.00    +0.078 C 
ATOM      4  N   UNL A   1     -26.602  -0.158  27.552  0.00  0.00    -0.191 NA
ATOM      5  C   UNL A   1     -25.642   0.903  27.582  0.00  0.00    +0.174 C 
ATOM      6  C   UNL A   1     -25.500   1.614  28.737  0.00  0.00    +0.039 C 
ATOM      7  C   UNL A   1     -26.255   1.316  29.813  0.00  0.00    +0.012 C 
ATOM      8 CL   UNL A   1     -24.706   1.208  26.212  0.00  0.00    -0.091 Cl
ENDROOT
BRANCH   3   9
ATOM      9  C   UNL A   1     -28.073  -0.214  30.823  0.00  0.00    +0.009 C 
ATOM     10  C   UNL A   1     -29.183  -0.772  30.619  0.00  0.00    +0.001 C 
ENDBRANCH   3   9
TORSDOF 1
