MODEL 4970
MODEL 1
REMARK VINA RESULT:    -8.315      0.000      0.000
REMARK INTER + INTRA:         -11.325
REMARK INTER:                 -10.259
REMARK INTRA:                  -1.066
REMARK UNBOUND:                -1.066
REMARK  Name = No_4970-gen_results/8p0m/2024-11-26-14-13-15/
REMARK  4 active torsions:
REMARK  status: ('A' for Active; 'I' for Inactive)
REMARK    1  A    between atoms: C_4  and  C_8
REMARK    2  A    between atoms: C_8  and  C_9
REMARK    3  A    between atoms: C_13  and  C_15
REMARK    4  A    between atoms: C_18  and  C_21
REMARK                            x       y       z     vdW  Elec       q    Type
REMARK                         _______ _______ _______ _____ _____    ______ ____
ROOT
ATOM      1  C   UNL A   1     -23.190   1.071  27.565  0.00  0.00    +0.001 A 
ATOM      2  C   UNL A   1     -21.754   1.056  27.773  0.00  0.00    +0.095 A 
ATOM      3  N   UNL A   1     -21.286   0.229  28.706  0.00  0.00    -0.243 NA
ATOM      4  C   UNL A   1     -22.007  -0.855  29.101  0.00  0.00    +0.099 A 
ATOM      5  C   UNL A   1     -23.323  -1.008  28.760  0.00  0.00    +0.019 A 
ATOM      6  C   UNL A   1     -23.899  -0.128  27.895  0.00  0.00    -0.001 A 
ENDROOT
BRANCH   5   7
ATOM      7  C   UNL A   1     -24.161  -2.152  29.092  0.00  0.00    +0.001 A 
ATOM      8  C   UNL A   1     -23.865  -3.336  28.923  0.00  0.00    +0.000 A 
ATOM      9  C   UNL A   1     -25.291  -1.842  29.922  0.00  0.00    +0.004 A 
ATOM     10  C   UNL A   1     -26.334  -2.718  30.032  0.00  0.00    +0.071 A 
ATOM     11  C   UNL A   1     -24.817  -4.408  28.974  0.00  0.00    -0.000 A 
ATOM     12  C   UNL A   1     -26.007  -4.090  29.634  0.00  0.00    +0.004 A 
BRANCH  10  13
ATOM     13  C   UNL A   1     -27.549  -2.503  30.691  0.00  0.00    +0.419 C 
ATOM     14  F   UNL A   1     -28.425  -1.957  30.011  0.00  0.00    -0.166 F 
ATOM     15  F   UNL A   1     -28.110  -3.625  31.181  0.00  0.00    -0.166 F 
ATOM     16  F   UNL A   1     -27.247  -1.728  31.780  0.00  0.00    -0.166 F 
ENDBRANCH  10  13
ENDBRANCH   5   7
BRANCH   1  17
ATOM     17  C   UNL A   1     -23.727   1.828  26.577  0.00  0.00    +0.046 C 
ATOM     18  C   UNL A   1     -22.734   2.248  25.490  0.00  0.00    +0.009 C 
BRANCH  17  22
ATOM     19  C   UNL A   1     -26.340   0.075  24.358  0.00  0.00    +0.029 A 
ATOM     20  C   UNL A   1     -27.103   0.790  24.492  0.00  0.00    +0.140 A 
ATOM     21  C   UNL A   1     -25.031   0.385  25.050  0.00  0.00    -0.002 A 
ATOM     22  C   UNL A   1     -24.954   1.493  25.920  0.00  0.00    -0.018 A 
ATOM     23  C   UNL A   1     -27.291   1.981  25.351  0.00  0.00    +0.029 A 
ATOM     24  C   UNL A   1     -26.109   2.293  26.008  0.00  0.00    -0.002 A 
ATOM     25  F   UNL A   1     -28.361   0.480  23.836  0.00  0.00    -0.204 F 
ENDBRANCH  17  22
ENDBRANCH   1  17
TORSDOF 4
ENDMDL
ENDMDL
