REMARK  Name = No_4970-gen_results/8p0m/2024-11-26-14-13-15/
REMARK  4 active torsions:
REMARK  status: ('A' for Active; 'I' for Inactive)
REMARK    1  A    between atoms: C_4  and  C_8
REMARK    2  A    between atoms: C_8  and  C_9
REMARK    3  A    between atoms: C_13  and  C_15
REMARK    4  A    between atoms: C_18  and  C_21
REMARK                            x       y       z     vdW  Elec       q    Type
REMARK                         _______ _______ _______ _____ _____    ______ ____
ROOT
ATOM      1  C   UNL A   1     -23.632  -0.317  29.120  0.00  0.00    +0.001 A 
ATOM      2  C   UNL A   1     -22.188  -0.241  29.246  0.00  0.00    +0.095 A 
ATOM      3  N   UNL A   1     -21.522   0.320  28.239  0.00  0.00    -0.243 NA
ATOM      4  C   UNL A   1     -22.142   1.180  27.387  0.00  0.00    +0.099 A 
ATOM      5  C   UNL A   1     -23.503   1.313  27.362  0.00  0.00    +0.019 A 
ATOM      6  C   UNL A   1     -24.258   0.672  28.297  0.00  0.00    -0.001 A 
ENDROOT
BRANCH   5   7
ATOM      7  C   UNL A   1     -24.253   2.239  26.524  0.00  0.00    +0.001 A 
ATOM      8  C   UNL A   1     -23.822   3.289  26.046  0.00  0.00    +0.000 A 
ATOM      9  C   UNL A   1     -25.493   1.717  26.021  0.00  0.00    +0.004 A 
ATOM     10  C   UNL A   1     -26.448   2.556  25.520  0.00  0.00    +0.071 A 
ATOM     11  C   UNL A   1     -24.661   4.312  25.490  0.00  0.00    -0.000 A 
ATOM     12  C   UNL A   1     -25.943   3.878  25.140  0.00  0.00    +0.004 A 
BRANCH  10  13
ATOM     13  C   UNL A   1     -27.743   2.214  25.118  0.00  0.00    +0.419 C 
ATOM     14  F   UNL A   1     -28.611   2.331  25.990  0.00  0.00    -0.166 F 
ATOM     15  F   UNL A   1     -28.190   2.916  24.059  0.00  0.00    -0.166 F 
ATOM     16  F   UNL A   1     -27.669   0.911  24.700  0.00  0.00    -0.166 F 
ENDBRANCH  10  13
ENDBRANCH   5   7
BRANCH   1  17
ATOM     17  C   UNL A   1     -24.380  -0.802  30.142  0.00  0.00    +0.046 C 
ATOM     18  C   UNL A   1     -23.985  -0.272  31.523  0.00  0.00    +0.009 C 
BRANCH  17  22
ATOM     19  C   UNL A   1     -28.016  -0.814  28.878  0.00  0.00    +0.029 A 
ATOM     20  C   UNL A   1     -28.469  -0.785  29.829  0.00  0.00    +0.140 A 
ATOM     21  C   UNL A   1     -26.504  -0.778  28.877  0.00  0.00    -0.002 A 
ATOM     22  C   UNL A   1     -25.810  -0.853  30.103  0.00  0.00    -0.018 A 
ATOM     23  C   UNL A   1     -27.991  -0.892  31.226  0.00  0.00    +0.029 A 
ATOM     24  C   UNL A   1     -26.604  -0.868  31.265  0.00  0.00    -0.002 A 
ATOM     25  F   UNL A   1     -29.920  -0.833  29.824  0.00  0.00    -0.204 F 
ENDBRANCH  17  22
ENDBRANCH   1  17
TORSDOF 4
