REMARK  Name = No_4971-gen_results/8p0m/2024-11-26-14-13-15/
REMARK  1 active torsions:
REMARK  status: ('A' for Active; 'I' for Inactive)
REMARK    1  A    between atoms: C_2  and  C_7
REMARK                            x       y       z     vdW  Elec       q    Type
REMARK                         _______ _______ _______ _____ _____    ______ ____
ROOT
ATOM      1  C   UNL A   1     -30.042  -0.769  29.653  0.00  0.00    +0.249 C 
ATOM      2  N   UNL A   1     -30.524  -0.150  28.769  0.00  0.00    -0.276 N 
ATOM      3  O   UNL A   1     -30.711  -1.725  30.318  0.00  0.00    -0.270 OA
ATOM      4  C   UNL A   1     -31.939  -0.221  28.404  0.00  0.00    +0.094 C 
ATOM      5  C   UNL A   1     -32.381   0.871  27.968  0.00  0.00    +0.022 C 
ATOM      6  C   UNL A   1     -31.558   1.894  27.380  0.00  0.00    +0.004 C 
ATOM      7  C   UNL A   1     -30.161   1.838  27.613  0.00  0.00    +0.022 C 
ATOM      8  C   UNL A   1     -29.738   0.958  28.355  0.00  0.00    +0.094 C 
ENDROOT
BRANCH   1  10
ATOM      9  C   UNL A   1     -28.016  -0.814  28.878  0.00  0.00    +0.004 A 
ATOM     10  C   UNL A   1     -28.469  -0.785  29.829  0.00  0.00    +0.054 A 
ATOM     11  C   UNL A   1     -26.504  -0.778  28.877  0.00  0.00    +0.000 A 
ATOM     12  C   UNL A   1     -25.810  -0.853  30.103  0.00  0.00    +0.000 A 
ATOM     13  C   UNL A   1     -27.991  -0.892  31.226  0.00  0.00    +0.004 A 
ATOM     14  C   UNL A   1     -26.604  -0.868  31.265  0.00  0.00    +0.000 A 
ENDBRANCH   1  10
TORSDOF 1
