MODEL 4971
MODEL 1
REMARK VINA RESULT:    -6.291      0.000      0.000
REMARK INTER + INTRA:          -6.197
REMARK INTER:                  -6.659
REMARK INTRA:                   0.462
REMARK UNBOUND:                 0.462
REMARK  Name = No_4971-gen_results/8p0m/2024-11-26-14-13-15/
REMARK  1 active torsions:
REMARK  status: ('A' for Active; 'I' for Inactive)
REMARK    1  A    between atoms: C_2  and  C_7
REMARK                            x       y       z     vdW  Elec       q    Type
REMARK                         _______ _______ _______ _____ _____    ______ ____
ROOT
ATOM      1  C   UNL A   1     -23.600  -1.265  28.906  0.00  0.00    +0.249 C 
ATOM      2  N   UNL A   1     -23.977  -0.376  28.224  0.00  0.00    -0.276 N 
ATOM      3  O   UNL A   1     -22.565  -1.142  29.752  0.00  0.00    -0.270 OA
ATOM      4  C   UNL A   1     -23.272   0.899  28.088  0.00  0.00    +0.094 C 
ATOM      5  C   UNL A   1     -23.400   1.402  26.944  0.00  0.00    +0.022 C 
ATOM      6  C   UNL A   1     -24.491   1.108  26.054  0.00  0.00    +0.004 C 
ATOM      7  C   UNL A   1     -25.266  -0.050  26.313  0.00  0.00    +0.022 C 
ATOM      8  C   UNL A   1     -24.926  -0.772  27.244  0.00  0.00    +0.094 C 
ENDROOT
BRANCH   1  10
ATOM      9  C   UNL A   1     -25.382  -2.208  29.708  0.00  0.00    +0.004 A 
ATOM     10  C   UNL A   1     -24.541  -2.514  29.151  0.00  0.00    +0.054 A 
ATOM     11  C   UNL A   1     -26.409  -3.285  29.979  0.00  0.00    +0.000 A 
ATOM     12  C   UNL A   1     -26.126  -4.618  29.613  0.00  0.00    +0.000 A 
ATOM     13  C   UNL A   1     -24.000  -3.813  28.691  0.00  0.00    +0.004 A 
ATOM     14  C   UNL A   1     -24.914  -4.829  28.929  0.00  0.00    +0.000 A 
ENDBRANCH   1  10
TORSDOF 1
ENDMDL
ENDMDL
