MODEL 4972
MODEL 1
REMARK VINA RESULT:    -7.981      0.000      0.000
REMARK INTER + INTRA:         -13.346
REMARK INTER:                 -11.247
REMARK INTRA:                  -2.098
REMARK UNBOUND:                -2.098
REMARK  Name = No_4972-gen_results/8p0m/2024-11-26-14-13-15/
REMARK  7 active torsions:
REMARK  status: ('A' for Active; 'I' for Inactive)
REMARK    1  A    between atoms: C_4  and  C_8
REMARK    2  A    between atoms: C_8  and  C_9
REMARK    3  A    between atoms: C_9  and  C_10
REMARK    4  A    between atoms: C_9  and  C_16
REMARK    5  A    between atoms: C_13  and  O_22
REMARK    6  A    between atoms: O_22  and  C_23
REMARK    7  A    between atoms: C_24  and  C_25
REMARK                            x       y       z     vdW  Elec       q    Type
REMARK                         _______ _______ _______ _____ _____    ______ ____
ROOT
ATOM      1  C   UNL A   1     -24.174   1.348  27.323  0.00  0.00    -0.012 A 
ATOM      2  C   UNL A   1     -24.874   2.562  27.584  0.00  0.00    +0.029 A 
ATOM      3  C   UNL A   1     -26.038   2.853  26.653  0.00  0.00    +0.174 A 
ATOM      4  C   UNL A   1     -26.454   1.851  25.873  0.00  0.00    +0.173 A 
ATOM      5  C   UNL A   1     -25.873   0.640  25.788  0.00  0.00    +0.040 A 
ATOM      6  C   UNL A   1     -24.721   0.393  26.441  0.00  0.00    -0.001 A 
ATOM      7  F   UNL A   1     -26.626   4.030  26.816  0.00  0.00    -0.201 F 
ENDROOT
BRANCH   1   8
ATOM      8  C   UNL A   1     -23.217   1.039  27.992  0.00  0.00    +0.122 C 
BRANCH   8   9
ATOM      9  C   UNL A   1     -21.745   1.346  27.557  0.00  0.00    +0.402 C 
ATOM     10  F   UNL A   1     -20.958   0.459  27.763  0.00  0.00    -0.170 F 
ATOM     11  F   UNL A   1     -21.746   1.785  26.231  0.00  0.00    -0.170 F 
ATOM     12  F   UNL A   1     -21.185   2.303  28.173  0.00  0.00    -0.170 F 
ENDBRANCH   8   9
BRANCH   8  13
ATOM     13  C   UNL A   1     -23.104   0.311  29.277  0.00  0.00    +0.040 C 
BRANCH  13  17
ATOM     14  C   UNL A   1     -25.856  -2.254  30.093  0.00  0.00    +0.036 A 
ATOM     15  C   UNL A   1     -25.347  -3.095  29.712  0.00  0.00    +0.141 A 
ATOM     16  C   UNL A   1     -25.097  -0.948  30.023  0.00  0.00    +0.033 A 
ATOM     17  C   UNL A   1     -23.860  -0.903  29.346  0.00  0.00    -0.015 A 
ATOM     18  C   UNL A   1     -24.100  -3.311  28.944  0.00  0.00    +0.029 A 
ATOM     19  C   UNL A   1     -23.378  -2.130  28.853  0.00  0.00    -0.002 A 
ATOM     20  F   UNL A   1     -26.086  -4.343  29.770  0.00  0.00    -0.204 F 
ATOM     21 BR   UNL A   1     -25.731   0.648  30.798  0.00  0.00    -0.049 Br
ENDBRANCH  13  17
ENDBRANCH   8  13
ENDBRANCH   1   8
BRANCH   4  22
ATOM     22  O   UNL A   1     -27.560   2.194  25.109  0.00  0.00    -0.448 OA
BRANCH  22  23
ATOM     23  C   UNL A   1     -27.908   2.522  24.228  0.00  0.00    +0.180 C 
ATOM     24  C   UNL A   1     -28.498   2.238  23.384  0.00  0.00    +0.041 C 
BRANCH  24  25
ATOM     25  C   UNL A   1     -29.273   0.966  23.484  0.00  0.00    +0.003 A 
ATOM     26  C   UNL A   1     -30.381   0.920  23.605  0.00  0.00    +0.000 A 
ATOM     27  C   UNL A   1     -31.247  -0.336  23.661  0.00  0.00    +0.000 A 
ATOM     28  C   UNL A   1     -30.500  -1.501  23.695  0.00  0.00    +0.000 A 
ATOM     29  C   UNL A   1     -29.133  -1.484  23.574  0.00  0.00    +0.000 A 
ATOM     30  C   UNL A   1     -28.494  -0.310  23.404  0.00  0.00    +0.000 A 
ENDBRANCH  24  25
ENDBRANCH  22  23
ENDBRANCH   4  22
TORSDOF 7
ENDMDL
ENDMDL
