REMARK  Name = No_4972-gen_results/8p0m/2024-11-26-14-13-15/
REMARK  7 active torsions:
REMARK  status: ('A' for Active; 'I' for Inactive)
REMARK    1  A    between atoms: C_4  and  C_8
REMARK    2  A    between atoms: C_8  and  C_9
REMARK    3  A    between atoms: C_9  and  C_10
REMARK    4  A    between atoms: C_9  and  C_16
REMARK    5  A    between atoms: C_13  and  O_22
REMARK    6  A    between atoms: O_22  and  C_23
REMARK    7  A    between atoms: C_24  and  C_25
REMARK                            x       y       z     vdW  Elec       q    Type
REMARK                         _______ _______ _______ _____ _____    ______ ____
ROOT
ATOM      1  C   UNL A   1     -24.252   1.621  30.527  0.00  0.00    -0.012 A 
ATOM      2  C   UNL A   1     -25.532   1.683  31.151  0.00  0.00    +0.029 A 
ATOM      3  C   UNL A   1     -25.964   3.064  31.613  0.00  0.00    +0.174 A 
ATOM      4  C   UNL A   1     -25.250   4.101  31.166  0.00  0.00    +0.173 A 
ATOM      5  C   UNL A   1     -24.137   4.013  30.414  0.00  0.00    +0.040 A 
ATOM      6  C   UNL A   1     -23.596   2.809  30.142  0.00  0.00    -0.001 A 
ATOM      7  F   UNL A   1     -27.101   3.115  32.292  0.00  0.00    -0.201 F 
ENDROOT
BRANCH   1   8
ATOM      8  C   UNL A   1     -23.808   0.564  30.148  0.00  0.00    +0.122 C 
BRANCH   8   9
ATOM      9  C   UNL A   1     -22.402   0.429  29.474  0.00  0.00    +0.402 C 
ATOM     10  F   UNL A   1     -21.644  -0.327  30.024  0.00  0.00    -0.170 F 
ATOM     11  F   UNL A   1     -22.575   0.145  28.117  0.00  0.00    -0.170 F 
ATOM     12  F   UNL A   1     -21.704   1.488  29.456  0.00  0.00    -0.170 F 
ENDBRANCH   8   9
BRANCH   8  13
ATOM     13  C   UNL A   1     -24.380  -0.802  30.142  0.00  0.00    +0.040 C 
BRANCH  13  17
ATOM     14  C   UNL A   1     -28.016  -0.814  28.878  0.00  0.00    +0.036 A 
ATOM     15  C   UNL A   1     -28.469  -0.785  29.829  0.00  0.00    +0.141 A 
ATOM     16  C   UNL A   1     -26.504  -0.778  28.877  0.00  0.00    +0.033 A 
ATOM     17  C   UNL A   1     -25.810  -0.853  30.103  0.00  0.00    -0.015 A 
ATOM     18  C   UNL A   1     -27.991  -0.892  31.226  0.00  0.00    +0.029 A 
ATOM     19  C   UNL A   1     -26.604  -0.868  31.265  0.00  0.00    -0.002 A 
ATOM     20  F   UNL A   1     -29.920  -0.833  29.824  0.00  0.00    -0.204 F 
ATOM     21 BR   UNL A   1     -25.484  -0.643  27.299  0.00  0.00    -0.049 Br
ENDBRANCH  13  17
ENDBRANCH   8  13
ENDBRANCH   1   8
BRANCH   4  22
ATOM     22  O   UNL A   1     -25.760   5.320  31.588  0.00  0.00    -0.448 OA
BRANCH  22  23
ATOM     23  C   UNL A   1     -26.041   6.249  31.338  0.00  0.00    +0.180 C 
ATOM     24  C   UNL A   1     -26.877   6.915  31.327  0.00  0.00    +0.041 C 
BRANCH  24  25
ATOM     25  C   UNL A   1     -28.106   6.486  32.058  0.00  0.00    +0.003 A 
ATOM     26  C   UNL A   1     -28.094   5.970  33.047  0.00  0.00    +0.000 A 
ATOM     27  C   UNL A   1     -29.304   5.551  33.878  0.00  0.00    +0.000 A 
ATOM     28  C   UNL A   1     -30.503   5.740  33.212  0.00  0.00    +0.000 A 
ATOM     29  C   UNL A   1     -30.557   6.348  31.983  0.00  0.00    +0.000 A 
ATOM     30  C   UNL A   1     -29.421   6.788  31.408  0.00  0.00    +0.000 A 
ENDBRANCH  24  25
ENDBRANCH  22  23
ENDBRANCH   4  22
TORSDOF 7
