MODEL 4973
MODEL 1
REMARK VINA RESULT:    -8.292      0.000      0.000
REMARK INTER + INTRA:         -13.699
REMARK INTER:                 -11.200
REMARK INTRA:                  -2.499
REMARK UNBOUND:                -2.499
REMARK  Name = No_4973-gen_results/8p0m/2024-11-26-14-13-15/
REMARK  6 active torsions:
REMARK  status: ('A' for Active; 'I' for Inactive)
REMARK    1  A    between atoms: C_4  and  C_5
REMARK    2  A    between atoms: C_6  and  C_14
REMARK    3  A    between atoms: C_8  and  C_20
REMARK    4  A    between atoms: C_30  and  C_31
REMARK    5  A    between atoms: C_31  and  C_32
REMARK    6  A    between atoms: C_32  and  C_33
REMARK                            x       y       z     vdW  Elec       q    Type
REMARK                         _______ _______ _______ _____ _____    ______ ____
ROOT
ATOM      1  O   UNL A   1     -28.291  -6.418   8.689  0.00  0.00    -0.273 OA
ATOM      2  C   UNL A   1     -29.282  -6.679   9.217  0.00  0.00    +0.246 C 
ATOM      3  N   UNL A   1     -30.092  -5.776   9.607  0.00  0.00    -0.202 NA
ATOM      4  C   UNL A   1     -30.983  -5.852  10.078  0.00  0.00    +0.118 C 
ATOM      5  C   UNL A   1     -29.907  -8.094   9.319  0.00  0.00    +0.104 C 
ATOM      6  C   UNL A   1     -31.052  -8.272   9.952  0.00  0.00    +0.037 C 
ATOM      7  C   UNL A   1     -31.780  -7.133  10.415  0.00  0.00    +0.031 C 
ENDROOT
BRANCH   6   8
ATOM      8  C   UNL A   1     -31.631  -9.620  10.158  0.00  0.00    -0.026 A 
ATOM      9  C   UNL A   1     -32.568  -9.952   9.306  0.00  0.00    -0.026 A 
ATOM     10  C   UNL A   1     -32.921  -9.347   8.106  0.00  0.00    +0.031 C 
ATOM     11  C   UNL A   1     -33.291 -11.264   9.636  0.00  0.00    -0.005 A 
ATOM     12  C   UNL A   1     -34.457 -11.557   9.140  0.00  0.00    -0.000 A 
ATOM     13  C   UNL A   1     -35.005 -12.836   9.517  0.00  0.00    -0.000 A 
ATOM     14  C   UNL A   1     -34.406 -13.588  10.420  0.00  0.00    -0.000 A 
ATOM     15  C   UNL A   1     -32.710 -12.148  10.577  0.00  0.00    -0.004 A 
ATOM     16  C   UNL A   1     -33.273 -13.284  10.965  0.00  0.00    -0.000 A 
ATOM     17  C   UNL A   1     -31.017 -10.342  11.220  0.00  0.00    -0.009 A 
ATOM     18  C   UNL A   1     -31.558 -11.543  11.328  0.00  0.00    -0.022 A 
BRANCH  18  19
ATOM     19  C   UNL A   1     -30.981 -12.444  12.476  0.00  0.00    +0.031 C 
BRANCH  19  20
ATOM     20  C   UNL A   1     -29.920 -13.190  12.136  0.00  0.00    +0.030 C 
BRANCH  20  21
ATOM     21  C   UNL A   1     -29.804 -14.133  11.518  0.00  0.00    -0.030 C 
ATOM     22  C   UNL A   1     -29.687 -15.506  11.960  0.00  0.00    -0.030 C 
ATOM     23  C   UNL A   1     -29.457 -15.654  13.312  0.00  0.00    +0.030 C 
ENDBRANCH  20  21
ENDBRANCH  19  20
ENDBRANCH  18  19
ENDBRANCH   6   8
BRANCH   4  24
ATOM     24  C   UNL A   1     -31.887  -4.767  10.586  0.00  0.00    -0.003 A 
ATOM     25  C   UNL A   1     -32.364  -4.564  11.624  0.00  0.00    -0.003 A 
ATOM     26  C   UNL A   1     -32.373  -3.635   9.591  0.00  0.00    -0.003 A 
ATOM     27  C   UNL A   1     -33.356  -2.685  10.124  0.00  0.00    -0.000 A 
ATOM     28  C   UNL A   1     -32.866  -3.453  12.249  0.00  0.00    -0.000 A 
ATOM     29  C   UNL A   1     -33.385  -2.485  11.385  0.00  0.00    -0.000 A 
ENDBRANCH   4  24
BRANCH   5  30
ATOM     30  C   UNL A   1     -28.999  -9.166   8.839  0.00  0.00    -0.013 A 
ATOM     31  C   UNL A   1     -28.056  -9.599   9.557  0.00  0.00    -0.004 A 
ATOM     32  C   UNL A   1     -27.219 -10.725   9.123  0.00  0.00    -0.000 A 
ATOM     33  C   UNL A   1     -27.436 -11.219   7.868  0.00  0.00    -0.000 A 
ATOM     34  C   UNL A   1     -28.453 -10.704   7.107  0.00  0.00    -0.000 A 
ATOM     35  C   UNL A   1     -29.275  -9.702   7.567  0.00  0.00    -0.004 A 
ENDBRANCH   5  30
TORSDOF 6
ENDMDL
ENDMDL
