REMARK  Name = No_4973-gen_results/8p0m/2024-11-26-14-13-15/
REMARK  6 active torsions:
REMARK  status: ('A' for Active; 'I' for Inactive)
REMARK    1  A    between atoms: C_4  and  C_5
REMARK    2  A    between atoms: C_6  and  C_14
REMARK    3  A    between atoms: C_8  and  C_20
REMARK    4  A    between atoms: C_30  and  C_31
REMARK    5  A    between atoms: C_31  and  C_32
REMARK    6  A    between atoms: C_32  and  C_33
REMARK                            x       y       z     vdW  Elec       q    Type
REMARK                         _______ _______ _______ _____ _____    ______ ____
ROOT
ATOM      1  O   UNL A   1     -28.123  -1.335  28.487  0.00  0.00    -0.273 OA
ATOM      2  C   UNL A   1     -27.481  -0.404  28.709  0.00  0.00    +0.246 C 
ATOM      3  N   UNL A   1     -26.460  -0.110  28.005  0.00  0.00    -0.202 NA
ATOM      4  C   UNL A   1     -25.810   0.660  28.079  0.00  0.00    +0.118 C 
ATOM      5  C   UNL A   1     -27.857   0.744  29.681  0.00  0.00    +0.104 C 
ATOM      6  C   UNL A   1     -27.038   1.765  29.854  0.00  0.00    +0.037 C 
ATOM      7  C   UNL A   1     -25.873   1.875  29.033  0.00  0.00    +0.031 C 
ENDROOT
BRANCH   6   8
ATOM      8  C   UNL A   1     -27.313   2.829  30.847  0.00  0.00    -0.026 A 
ATOM      9  C   UNL A   1     -26.502   2.844  31.875  0.00  0.00    -0.026 A 
ATOM     10  C   UNL A   1     -25.290   2.187  32.050  0.00  0.00    +0.031 C 
ATOM     11  C   UNL A   1     -26.903   3.822  32.986  0.00  0.00    -0.005 A 
ATOM     12  C   UNL A   1     -26.453   3.713  34.202  0.00  0.00    -0.000 A 
ATOM     13  C   UNL A   1     -26.895   4.719  35.136  0.00  0.00    -0.000 A 
ATOM     14  C   UNL A   1     -27.808   5.606  34.792  0.00  0.00    -0.000 A 
ATOM     15  C   UNL A   1     -27.860   4.826  32.702  0.00  0.00    -0.004 A 
ATOM     16  C   UNL A   1     -28.308   5.692  33.602  0.00  0.00    -0.000 A 
ATOM     17  C   UNL A   1     -28.384   3.689  30.472  0.00  0.00    -0.009 A 
ATOM     18  C   UNL A   1     -28.553   4.631  31.384  0.00  0.00    -0.022 A 
BRANCH  18  19
ATOM     19  C   UNL A   1     -29.718   5.644  31.101  0.00  0.00    +0.031 C 
BRANCH  19  20
ATOM     20  C   UNL A   1     -29.330   6.850  30.664  0.00  0.00    +0.030 C 
BRANCH  20  21
ATOM     21  C   UNL A   1     -28.386   7.223  30.160  0.00  0.00    -0.030 C 
ATOM     22  C   UNL A   1     -28.014   8.575  29.802  0.00  0.00    -0.030 C 
ATOM     23  C   UNL A   1     -29.043   9.490  29.880  0.00  0.00    +0.030 C 
ENDBRANCH  20  21
ENDBRANCH  19  20
ENDBRANCH  18  19
ENDBRANCH   6   8
BRANCH   4  24
ATOM     24  C   UNL A   1     -24.575   0.945  27.276  0.00  0.00    -0.003 A 
ATOM     25  C   UNL A   1     -24.088   0.412  26.368  0.00  0.00    -0.003 A 
ATOM     26  C   UNL A   1     -23.663   2.178  27.670  0.00  0.00    -0.003 A 
ATOM     27  C   UNL A   1     -22.407   2.317  26.924  0.00  0.00    -0.000 A 
ATOM     28  C   UNL A   1     -23.217   0.796  25.383  0.00  0.00    -0.000 A 
ATOM     29  C   UNL A   1     -22.341   1.821  25.749  0.00  0.00    -0.000 A 
ENDBRANCH   4  24
BRANCH   5  30
ATOM     30  C   UNL A   1     -29.065   0.446  30.491  0.00  0.00    -0.013 A 
ATOM     31  C   UNL A   1     -28.983  -0.164  31.593  0.00  0.00    -0.004 A 
ATOM     32  C   UNL A   1     -30.164  -0.373  32.441  0.00  0.00    -0.000 A 
ATOM     33  C   UNL A   1     -31.371   0.030  31.944  0.00  0.00    -0.000 A 
ATOM     34  C   UNL A   1     -31.422   0.666  30.731  0.00  0.00    -0.000 A 
ATOM     35  C   UNL A   1     -30.292   0.921  29.990  0.00  0.00    -0.004 A 
ENDBRANCH   5  30
TORSDOF 6
