MODEL 4974
MODEL 1
REMARK VINA RESULT:    -5.326      0.000      0.000
REMARK INTER + INTRA:          -5.781
REMARK INTER:                  -5.637
REMARK INTRA:                  -0.144
REMARK UNBOUND:                -0.144
REMARK  Name = No_4974-gen_results/8p0m/2024-11-26-14-13-15/
REMARK  1 active torsions:
REMARK  status: ('A' for Active; 'I' for Inactive)
REMARK    1  A    between atoms: C_4  and  C_7
REMARK                            x       y       z     vdW  Elec       q    Type
REMARK                         _______ _______ _______ _____ _____    ______ ____
ROOT
ATOM      1  C   UNL A   1     -24.602  -5.243  28.909  0.00  0.00    -0.000 A 
ATOM      2  C   UNL A   1     -25.581  -5.191  29.295  0.00  0.00    -0.000 A 
ATOM      3  C   UNL A   1     -23.929  -3.961  28.645  0.00  0.00    -0.000 A 
ATOM      4  C   UNL A   1     -24.534  -2.731  29.034  0.00  0.00    -0.000 A 
ATOM      5  C   UNL A   1     -25.788  -2.825  29.582  0.00  0.00    -0.000 A 
ATOM      6  C   UNL A   1     -26.371  -4.027  29.778  0.00  0.00    -0.000 A 
ENDROOT
BRANCH   4   7
ATOM      7  C   UNL A   1     -23.882  -1.468  28.801  0.00  0.00    -0.005 C 
ATOM      8  C   UNL A   1     -22.700  -1.169  29.175  0.00  0.00    -0.026 C 
ATOM      9  C   UNL A   1     -21.999   0.046  28.739  0.00  0.00    +0.031 C 
ENDBRANCH   4   7
TORSDOF 1
ENDMDL
ENDMDL
