MODEL 4975
MODEL 1
REMARK VINA RESULT:    -4.639      0.000      0.000
REMARK INTER + INTRA:          -5.514
REMARK INTER:                  -5.453
REMARK INTRA:                  -0.061
REMARK UNBOUND:                -0.061
REMARK  Name = No_4975-gen_results/8p0m/2024-11-26-14-13-15/
REMARK  3 active torsions:
REMARK  status: ('A' for Active; 'I' for Inactive)
REMARK    1  A    between atoms: P_1  and  O_2
REMARK    2  A    between atoms: O_2  and  C_6
REMARK    3  A    between atoms: C_7  and  C_8
REMARK                            x       y       z     vdW  Elec       q    Type
REMARK                         _______ _______ _______ _____ _____    ______ ____
ROOT
ATOM      1  O   UNL A   1     -28.221 -11.462  32.950  0.00  0.00    -0.397 OA
ENDROOT
BRANCH   1   2
ATOM      2  P   UNL A   1     -27.537 -11.822  33.781  0.00  0.00    +0.589 P 
ATOM      3  O   UNL A   1     -26.506 -12.803  33.402  0.00  0.00    -0.211 OA
ATOM      4  O   UNL A   1     -28.468 -12.550  34.890  0.00  0.00    -0.104 OA
ATOM      5  O   UNL A   1     -26.899 -10.783  34.779  0.00  0.00    -0.104 OA
ENDBRANCH   1   2
BRANCH   1   6
ATOM      6  C   UNL A   1     -28.162 -11.850  31.618  0.00  0.00    +0.179 C 
ATOM      7  C   UNL A   1     -29.023 -11.226  30.619  0.00  0.00    +0.014 C 
BRANCH   7   8
ATOM      8  C   UNL A   1     -28.934 -11.755  29.350  0.00  0.00    +0.029 C 
ATOM      9  C   UNL A   1     -29.785 -11.197  28.379  0.00  0.00    +0.005 C 
ENDBRANCH   7   8
ENDBRANCH   1   6
TORSDOF 3
ENDMDL
ENDMDL
