REMARK  Name = No_4975-gen_results/8p0m/2024-11-26-14-13-15/
REMARK  3 active torsions:
REMARK  status: ('A' for Active; 'I' for Inactive)
REMARK    1  A    between atoms: P_1  and  O_2
REMARK    2  A    between atoms: O_2  and  C_6
REMARK    3  A    between atoms: C_7  and  C_8
REMARK                            x       y       z     vdW  Elec       q    Type
REMARK                         _______ _______ _______ _____ _____    ______ ____
ROOT
ATOM      1  O   UNL A   1     -27.240   0.061  28.428  0.00  0.00    -0.397 OA
ENDROOT
BRANCH   1   2
ATOM      2  P   UNL A   1     -27.951  -0.579  29.040  0.00  0.00    +0.589 P 
ATOM      3  O   UNL A   1     -29.362  -0.577  28.619  0.00  0.00    -0.211 OA
ATOM      4  O   UNL A   1     -27.930  -0.006  30.556  0.00  0.00    -0.104 OA
ATOM      5  O   UNL A   1     -27.544  -2.051  29.430  0.00  0.00    -0.104 OA
ENDBRANCH   1   2
BRANCH   1   6
ATOM      6  C   UNL A   1     -25.862   0.129  28.587  0.00  0.00    +0.179 C 
ATOM      7  C   UNL A   1     -25.211   1.392  28.919  0.00  0.00    +0.014 C 
BRANCH   7   8
ATOM      8  C   UNL A   1     -23.834   1.351  28.966  0.00  0.00    +0.029 C 
ATOM      9  C   UNL A   1     -23.265   0.808  30.132  0.00  0.00    +0.005 C 
ENDBRANCH   7   8
ENDBRANCH   1   6
TORSDOF 3
