MODEL 4976
MODEL 1
REMARK VINA RESULT:    -6.499      0.000      0.000
REMARK INTER + INTRA:          -8.193
REMARK INTER:                  -7.639
REMARK INTRA:                  -0.554
REMARK UNBOUND:                -0.554
REMARK  Name = No_4976-gen_results/8p0m/2024-11-26-14-13-15/
REMARK  3 active torsions:
REMARK  status: ('A' for Active; 'I' for Inactive)
REMARK    1  A    between atoms: N_7  and  C_8
REMARK    2  A    between atoms: N_7  and  C_14
REMARK    3  A    between atoms: C_14  and  C_15
REMARK                            x       y       z     vdW  Elec       q    Type
REMARK                         _______ _______ _______ _____ _____    ______ ____
ROOT
ATOM      1  N   UNL A   1     -23.151   0.905  28.608  0.00  0.00    -0.229 NA
ATOM      2  C   UNL A   1     -23.929  -0.032  28.418  0.00  0.00    +0.136 A 
ATOM      3  C   UNL A   1     -24.646  -0.253  27.299  0.00  0.00    +0.035 A 
ATOM      4  C   UNL A   1     -24.484   0.677  26.181  0.00  0.00    +0.004 A 
ATOM      5  C   UNL A   1     -23.646   1.721  26.438  0.00  0.00    +0.021 A 
ATOM      6  C   UNL A   1     -23.063   1.878  27.607  0.00  0.00    +0.100 A 
ATOM      7  N   UNL A   1     -24.024  -0.848  29.560  0.00  0.00    -0.268 N 
ENDROOT
BRANCH   7   8
ATOM      8  C   UNL A   1     -24.475  -2.154  29.381  0.00  0.00    +0.053 A 
ATOM      9  C   UNL A   1     -23.768  -3.034  28.960  0.00  0.00    +0.015 A 
ATOM     10  C   UNL A   1     -24.218  -4.435  28.797  0.00  0.00    +0.001 A 
ATOM     11  C   UNL A   1     -25.525  -4.722  29.162  0.00  0.00    +0.000 A 
ATOM     12  C   UNL A   1     -26.262  -3.714  29.795  0.00  0.00    +0.001 A 
ATOM     13  C   UNL A   1     -25.793  -2.458  29.909  0.00  0.00    +0.015 A 
ENDBRANCH   7   8
BRANCH   7  14
ATOM     14  C   UNL A   1     -22.858  -0.862  30.478  0.00  0.00    +0.123 C 
BRANCH  14  15
ATOM     15  C   UNL A   1     -23.323  -0.916  31.796  0.00  0.00    -0.009 C 
ATOM     16  C   UNL A   1     -24.268  -0.053  32.133  0.00  0.00    -0.029 C 
ATOM     17  C   UNL A   1     -24.866  -0.137  33.440  0.00  0.00    +0.030 C 
ENDBRANCH  14  15
ENDBRANCH   7  14
TORSDOF 3
ENDMDL
ENDMDL
