REMARK  Name = No_4976-gen_results/8p0m/2024-11-26-14-13-15/
REMARK  3 active torsions:
REMARK  status: ('A' for Active; 'I' for Inactive)
REMARK    1  A    between atoms: N_7  and  C_8
REMARK    2  A    between atoms: N_7  and  C_14
REMARK    3  A    between atoms: C_14  and  C_15
REMARK                            x       y       z     vdW  Elec       q    Type
REMARK                         _______ _______ _______ _____ _____    ______ ____
ROOT
ATOM      1  N   UNL A   1     -28.054  -1.050  28.725  0.00  0.00    -0.229 NA
ATOM      2  C   UNL A   1     -26.966  -0.472  28.771  0.00  0.00    +0.136 A 
ATOM      3  C   UNL A   1     -25.853  -0.925  29.379  0.00  0.00    +0.035 A 
ATOM      4  C   UNL A   1     -25.907  -2.234  30.032  0.00  0.00    +0.004 A 
ATOM      5  C   UNL A   1     -27.134  -2.828  29.995  0.00  0.00    +0.021 A 
ATOM      6  C   UNL A   1     -28.175  -2.246  29.440  0.00  0.00    +0.100 A 
ATOM      7  N   UNL A   1     -27.033   0.780  28.134  0.00  0.00    -0.268 N 
ENDROOT
BRANCH   7   8
ATOM      8  C   UNL A   1     -25.836   1.345  27.699  0.00  0.00    +0.053 A 
ATOM      9  C   UNL A   1     -25.544   2.494  27.913  0.00  0.00    +0.015 A 
ATOM     10  C   UNL A   1     -24.263   3.103  27.491  0.00  0.00    +0.001 A 
ATOM     11  C   UNL A   1     -23.367   2.282  26.821  0.00  0.00    +0.000 A 
ATOM     12  C   UNL A   1     -23.672   0.919  26.733  0.00  0.00    +0.001 A 
ATOM     13  C   UNL A   1     -24.859   0.430  27.136  0.00  0.00    +0.015 A 
ENDBRANCH   7   8
BRANCH   7  14
ATOM     14  C   UNL A   1     -28.057   0.943  27.072  0.00  0.00    +0.123 C 
BRANCH  14  15
ATOM     15  C   UNL A   1     -29.212   1.491  27.640  0.00  0.00    -0.009 C 
ATOM     16  C   UNL A   1     -30.309   1.472  26.901  0.00  0.00    -0.029 C 
ATOM     17  C   UNL A   1     -31.553   1.916  27.474  0.00  0.00    +0.030 C 
ENDBRANCH  14  15
ENDBRANCH   7  14
TORSDOF 3
