REMARK  Name = No_4977-gen_results/8p0m/2024-11-26-14-13-15/
REMARK  4 active torsions:
REMARK  status: ('A' for Active; 'I' for Inactive)
REMARK    1  A    between atoms: C_1  and  C_2
REMARK    2  A    between atoms: C_1  and  N_8
REMARK    3  A    between atoms: N_8  and  C_13
REMARK    4  A    between atoms: C_13  and  C_14
REMARK                            x       y       z     vdW  Elec       q    Type
REMARK                         _______ _______ _______ _____ _____    ______ ____
ROOT
ATOM      1  C   UNL A   1     -27.064  -0.119  28.608  0.00  0.00    -0.005 A 
ATOM      2  C   UNL A   1     -26.972   0.714  27.506  0.00  0.00    -0.003 A 
ATOM      3  C   UNL A   1     -25.820   1.491  27.116  0.00  0.00    -0.000 A 
ATOM      4  C   UNL A   1     -24.656   1.424  27.918  0.00  0.00    -0.000 A 
ATOM      5  C   UNL A   1     -24.685   0.590  29.066  0.00  0.00    -0.000 A 
ATOM      6  C   UNL A   1     -25.810  -0.127  29.334  0.00  0.00    -0.003 A 
ATOM      7  C   UNL A   1     -23.463   2.176  27.608  0.00  0.00    -0.000 A 
ATOM      8  C   UNL A   1     -23.440   3.014  26.698  0.00  0.00    -0.000 A 
ATOM      9  C   UNL A   1     -24.693   3.244  25.852  0.00  0.00    -0.000 A 
ATOM     10  C   UNL A   1     -25.828   2.445  26.081  0.00  0.00    -0.000 A 
ENDROOT
BRANCH   1  11
ATOM     11  C   UNL A   1     -28.016  -0.814  28.878  0.00  0.00    +0.115 C 
BRANCH  11  12
ATOM     12  N   UNL A   1     -29.194  -0.190  29.016  0.00  0.00    -0.208 NA
BRANCH  12  13
ATOM     13  C   UNL A   1     -30.260  -0.698  29.648  0.00  0.00    +0.115 C 
BRANCH  13  14
ATOM     14  C   UNL A   1     -31.553  -0.456  29.093  0.00  0.00    -0.012 C 
ATOM     15  C   UNL A   1     -31.505   0.199  27.989  0.00  0.00    -0.029 C 
ATOM     16  C   UNL A   1     -32.347   0.553  27.188  0.00  0.00    +0.030 C 
ENDBRANCH  13  14
ENDBRANCH  12  13
ENDBRANCH  11  12
ENDBRANCH   1  11
TORSDOF 4
