MODEL 4977
MODEL 1
REMARK VINA RESULT:    -6.568      0.000      0.000
REMARK INTER + INTRA:          -8.869
REMARK INTER:                  -8.104
REMARK INTRA:                  -0.766
REMARK UNBOUND:                -0.766
REMARK  Name = No_4977-gen_results/8p0m/2024-11-26-14-13-15/
REMARK  4 active torsions:
REMARK  status: ('A' for Active; 'I' for Inactive)
REMARK    1  A    between atoms: C_1  and  C_2
REMARK    2  A    between atoms: C_1  and  N_8
REMARK    3  A    between atoms: N_8  and  C_13
REMARK    4  A    between atoms: C_13  and  C_14
REMARK                            x       y       z     vdW  Elec       q    Type
REMARK                         _______ _______ _______ _____ _____    ______ ____
ROOT
ATOM      1  C   UNL A   1     -23.144  -0.665  29.453  0.00  0.00    -0.005 A 
ATOM      2  C   UNL A   1     -23.135  -1.953  28.944  0.00  0.00    -0.003 A 
ATOM      3  C   UNL A   1     -24.178  -2.938  29.093  0.00  0.00    -0.000 A 
ATOM      4  C   UNL A   1     -25.336  -2.591  29.830  0.00  0.00    -0.000 A 
ATOM      5  C   UNL A   1     -25.407  -1.286  30.382  0.00  0.00    -0.000 A 
ATOM      6  C   UNL A   1     -24.383  -0.417  30.162  0.00  0.00    -0.003 A 
ATOM      7  C   UNL A   1     -26.423  -3.518  30.037  0.00  0.00    -0.000 A 
ATOM      8  C   UNL A   1     -26.343  -4.703  29.690  0.00  0.00    -0.000 A 
ATOM      9  C   UNL A   1     -25.077  -5.202  28.992  0.00  0.00    -0.000 A 
ATOM     10  C   UNL A   1     -24.054  -4.283  28.696  0.00  0.00    -0.000 A 
ENDROOT
BRANCH   1  11
ATOM     11  C   UNL A   1     -22.288   0.167  29.258  0.00  0.00    +0.115 C 
BRANCH  11  12
ATOM     12  N   UNL A   1     -22.232   0.691  28.026  0.00  0.00    -0.208 NA
BRANCH  12  13
ATOM     13  C   UNL A   1     -23.035   1.660  27.568  0.00  0.00    +0.115 C 
BRANCH  13  14
ATOM     14  C   UNL A   1     -23.663   1.474  26.299  0.00  0.00    -0.012 C 
ATOM     15  C   UNL A   1     -24.525   0.521  26.307  0.00  0.00    -0.029 C 
ATOM     16  C   UNL A   1     -25.298   0.084  25.477  0.00  0.00    +0.030 C 
ENDBRANCH  13  14
ENDBRANCH  12  13
ENDBRANCH  11  12
ENDBRANCH   1  11
TORSDOF 4
ENDMDL
ENDMDL
