MODEL 4978
MODEL 1
REMARK VINA RESULT:    -4.299      0.000      0.000
REMARK INTER + INTRA:          -4.299
REMARK INTER:                  -4.299
REMARK INTRA:                   0.000
REMARK UNBOUND:                 0.000
REMARK  Name = No_4978-gen_results/8p0m/2024-11-26-14-13-15/
REMARK  0 active torsions:
REMARK  status: ('A' for Active; 'I' for Inactive)
REMARK                            x       y       z     vdW  Elec       q    Type
REMARK                         _______ _______ _______ _____ _____    ______ ____
ROOT
ATOM      1  O   UNL A   1     -28.340  -9.982  35.290  0.00  0.00    -0.273 OA
ATOM      2  C   UNL A   1     -28.234 -10.463  34.156  0.00  0.00    +0.245 C 
ATOM      3  C   UNL A   1     -28.774 -10.578  33.276  0.00  0.00    +0.109 C 
ATOM      4  N   UNL A   1     -27.100 -11.576  34.157  0.00  0.00    -0.205 NA
ATOM      5  C   UNL A   1     -28.612 -11.320  31.983  0.00  0.00    -0.038 C 
ATOM      6  C   UNL A   1     -29.385 -11.318  30.783  0.00  0.00    -0.034 C 
ATOM      7  C   UNL A   1     -26.816 -12.390  33.124  0.00  0.00    +0.119 C 
ATOM      8  C   UNL A   1     -27.531 -12.331  31.990  0.00  0.00    +0.046 C 
ATOM      9  C   UNL A   1     -29.999 -10.183  30.417  0.00  0.00    +0.030 C 
ENDROOT
TORSDOF 0
ENDMDL
ENDMDL
