REMARK  Name = No_4978-gen_results/8p0m/2024-11-26-14-13-15/
REMARK  0 active torsions:
REMARK  status: ('A' for Active; 'I' for Inactive)
REMARK                            x       y       z     vdW  Elec       q    Type
REMARK                         _______ _______ _______ _____ _____    ______ ____
ROOT
ATOM      1  O   UNL A   1     -28.123  -1.335  28.487  0.00  0.00    -0.273 OA
ATOM      2  C   UNL A   1     -27.064  -0.824  28.869  0.00  0.00    +0.245 C 
ATOM      3  C   UNL A   1     -26.402  -0.062  28.622  0.00  0.00    +0.109 C 
ATOM      4  N   UNL A   1     -26.265  -1.867  29.761  0.00  0.00    -0.205 NA
ATOM      5  C   UNL A   1     -25.044   0.392  29.066  0.00  0.00    -0.038 C 
ATOM      6  C   UNL A   1     -24.264   1.536  28.719  0.00  0.00    -0.034 C 
ATOM      7  C   UNL A   1     -25.015  -1.687  30.227  0.00  0.00    +0.119 C 
ATOM      8  C   UNL A   1     -24.325  -0.577  29.923  0.00  0.00    +0.046 C 
ATOM      9  C   UNL A   1     -24.899   2.683  28.432  0.00  0.00    +0.030 C 
ENDROOT
TORSDOF 0
