MODEL 4979
MODEL 1
REMARK VINA RESULT:    -4.343      0.000      0.000
REMARK INTER + INTRA:          -4.343
REMARK INTER:                  -4.343
REMARK INTRA:                   0.000
REMARK UNBOUND:                 0.000
REMARK  Name = No_4979-gen_results/8p0m/2024-11-26-14-13-15/
REMARK  0 active torsions:
REMARK  status: ('A' for Active; 'I' for Inactive)
REMARK                            x       y       z     vdW  Elec       q    Type
REMARK                         _______ _______ _______ _____ _____    ______ ____
ROOT
ATOM      1  C   UNL A   1     -24.009  -3.144  28.827  0.00  0.00    +0.000 A 
ATOM      2  C   UNL A   1     -24.914  -2.795  29.238  0.00  0.00    +0.000 A 
ATOM      3  C   UNL A   1     -24.002  -4.589  28.568  0.00  0.00    +0.000 A 
ATOM      4  C   UNL A   1     -24.978  -5.396  28.988  0.00  0.00    +0.000 A 
ATOM      5  C   UNL A   1     -26.073  -3.461  29.781  0.00  0.00    +0.000 A 
ATOM      6  C   UNL A   1     -26.037  -4.805  29.553  0.00  0.00    +0.000 A 
ENDROOT
TORSDOF 0
ENDMDL
ENDMDL
