MODEL 497
MODEL 1
REMARK VINA RESULT:    -4.736      0.000      0.000
REMARK INTER + INTRA:          -5.109
REMARK INTER:                  -5.012
REMARK INTRA:                  -0.097
REMARK UNBOUND:                -0.097
REMARK  Name = No_497-gen_results/8p0m/2024-11-26-14-13-15/
REMARK  1 active torsions:
REMARK  status: ('A' for Active; 'I' for Inactive)
REMARK    1  A    between atoms: C_3  and  C_9
REMARK                            x       y       z     vdW  Elec       q    Type
REMARK                         _______ _______ _______ _____ _____    ______ ____
ROOT
ATOM      1  O   UNL A   1     -26.698 -12.624  33.708  0.00  0.00    -0.273 OA
ATOM      2  C   UNL A   1     -27.320 -11.666  33.552  0.00  0.00    +0.242 C 
ATOM      3  C   UNL A   1     -28.103 -11.260  32.921  0.00  0.00    +0.078 C 
ATOM      4  N   UNL A   1     -27.146 -10.801  34.733  0.00  0.00    -0.191 NA
ATOM      5  C   UNL A   1     -27.862  -9.567  34.841  0.00  0.00    +0.174 C 
ATOM      6  C   UNL A   1     -28.774  -9.262  33.874  0.00  0.00    +0.039 C 
ATOM      7  C   UNL A   1     -28.980 -10.109  32.846  0.00  0.00    +0.012 C 
ATOM      8 CL   UNL A   1     -27.581  -8.563  36.167  0.00  0.00    -0.091 Cl
ENDROOT
BRANCH   3   9
ATOM      9  C   UNL A   1     -28.370 -12.363  31.744  0.00  0.00    +0.009 C 
ATOM     10  C   UNL A   1     -28.549 -11.947  30.569  0.00  0.00    +0.001 C 
ENDBRANCH   3   9
TORSDOF 1
ENDMDL
ENDMDL
