REMARK  Name = No_498-gen_results/8p0m/2024-11-26-14-13-15/
REMARK  6 active torsions:
REMARK  status: ('A' for Active; 'I' for Inactive)
REMARK    1  A    between atoms: C_1  and  C_17
REMARK    2  A    between atoms: C_5  and  C_7
REMARK    3  A    between atoms: N_9  and  C_10
REMARK    4  A    between atoms: C_10  and  C_11
REMARK    5  A    between atoms: N_18  and  C_20
REMARK    6  A    between atoms: C_20  and  C_22
REMARK                            x       y       z     vdW  Elec       q    Type
REMARK                         _______ _______ _______ _____ _____    ______ ____
ROOT
ATOM      1  C   UNL A   1     -28.016  -0.814  28.878  0.00  0.00    +0.055 A 
ATOM      2  C   UNL A   1     -27.064  -0.119  28.608  0.00  0.00    +0.005 A 
ATOM      3  C   UNL A   1     -26.972   0.714  27.506  0.00  0.00    +0.000 A 
ATOM      4  C   UNL A   1     -28.105   0.774  26.642  0.00  0.00    +0.004 A 
ATOM      5  C   UNL A   1     -29.201   0.104  27.053  0.00  0.00    +0.054 A 
ATOM      6  C   UNL A   1     -29.210  -0.603  28.185  0.00  0.00    +0.009 A 
ENDROOT
BRANCH   5   7
ATOM      7  C   UNL A   1     -30.370   0.226  26.160  0.00  0.00    +0.249 C 
ATOM      8  O   UNL A   1     -30.339   0.216  24.966  0.00  0.00    -0.270 OA
ATOM      9  N   UNL A   1     -31.573   0.532  26.764  0.00  0.00    -0.270 N 
ATOM     10  C   UNL A   1     -32.751   0.581  25.930  0.00  0.00    +0.116 C 
BRANCH   9  11
ATOM     11  C   UNL A   1     -31.770   0.699  28.157  0.00  0.00    +0.120 C 
BRANCH  11  12
ATOM     12  C   UNL A   1     -31.506   1.941  28.554  0.00  0.00    -0.002 A 
ATOM     13  C   UNL A   1     -32.084   2.542  29.247  0.00  0.00    -0.003 A 
ATOM     14  C   UNL A   1     -31.836   3.960  29.663  0.00  0.00    -0.000 A 
ATOM     15  C   UNL A   1     -30.664   4.564  29.159  0.00  0.00    -0.000 A 
ATOM     16  C   UNL A   1     -30.258   2.703  28.020  0.00  0.00    -0.003 A 
ATOM     17  C   UNL A   1     -29.919   3.938  28.336  0.00  0.00    -0.000 A 
ENDBRANCH  11  12
ENDBRANCH   9  11
ENDBRANCH   5   7
BRANCH   1  18
ATOM     18  C   UNL A   1     -28.074  -1.668  30.135  0.00  0.00    +0.265 C 
ATOM     19  N   UNL A   1     -28.795  -1.576  31.031  0.00  0.00    -0.197 NA
ATOM     20  O   UNL A   1     -26.991  -2.425  30.264  0.00  0.00    -0.268 OA
BRANCH  19  21
ATOM     21  C   UNL A   1     -29.169  -2.214  31.898  0.00  0.00    +0.142 C 
BRANCH  21  22
ATOM     22  C   UNL A   1     -29.928  -3.308  31.735  0.00  0.00    -0.001 A 
ATOM     23  C   UNL A   1     -30.549  -3.480  30.564  0.00  0.00    -0.003 A 
ATOM     24  C   UNL A   1     -31.306  -4.675  30.215  0.00  0.00    -0.000 A 
ATOM     25  C   UNL A   1     -31.315  -5.665  31.224  0.00  0.00    -0.000 A 
ATOM     26  C   UNL A   1     -30.679  -5.555  32.444  0.00  0.00    -0.000 A 
ATOM     27  C   UNL A   1     -29.962  -4.417  32.726  0.00  0.00    -0.003 A 
ATOM     28  C   UNL A   1     -32.009  -4.839  28.974  0.00  0.00    -0.000 A 
ATOM     29  C   UNL A   1     -31.821  -5.909  28.273  0.00  0.00    -0.000 A 
ATOM     30  C   UNL A   1     -30.951  -6.943  28.728  0.00  0.00    -0.000 A 
ATOM     31  C   UNL A   1     -30.990  -7.107  30.259  0.00  0.00    -0.000 A 
ENDBRANCH  21  22
ENDBRANCH  19  21
ENDBRANCH   1  18
TORSDOF 6
