MODEL 4980
MODEL 1
REMARK VINA RESULT:    -5.911      0.000      0.000
REMARK INTER + INTRA:          -6.415
REMARK INTER:                  -6.257
REMARK INTRA:                  -0.158
REMARK UNBOUND:                -0.158
REMARK  Name = No_4980-gen_results/8p0m/2024-11-26-14-13-15/
REMARK  1 active torsions:
REMARK  status: ('A' for Active; 'I' for Inactive)
REMARK    1  A    between atoms: C_3  and  C_8
REMARK                            x       y       z     vdW  Elec       q    Type
REMARK                         _______ _______ _______ _____ _____    ______ ____
ROOT
ATOM      1  C   UNL A   1     -10.473  -9.438  18.920  0.00  0.00    +0.042 A 
ATOM      2  C   UNL A   1      -9.533  -9.294  19.667  0.00  0.00    +0.003 A 
ATOM      3  C   UNL A   1      -8.367  -9.870  19.604  0.00  0.00    -0.000 A 
ATOM      4  C   UNL A   1      -8.134 -10.801  18.548  0.00  0.00    +0.003 A 
ATOM      5  C   UNL A   1     -10.274 -10.281  17.756  0.00  0.00    +0.196 A 
ATOM      6  C   UNL A   1      -9.113 -10.924  17.626  0.00  0.00    +0.042 A 
ATOM      7  O   UNL A   1     -11.311 -10.349  16.874  0.00  0.00    -0.287 OA
ENDROOT
BRANCH   3   8
ATOM      8  C   UNL A   1      -7.279  -9.673  20.652  0.00  0.00    -0.005 C 
ATOM      9  C   UNL A   1      -6.943 -10.333  21.445  0.00  0.00    -0.026 C 
ATOM     10  C   UNL A   1      -5.944 -10.064  22.510  0.00  0.00    +0.031 C 
ENDBRANCH   3   8
TORSDOF 1
ENDMDL
ENDMDL
