REMARK  Name = No_4981-gen_results/8p0m/2024-11-26-14-13-15/
REMARK  2 active torsions:
REMARK  status: ('A' for Active; 'I' for Inactive)
REMARK    1  A    between atoms: C_2  and  C_8
REMARK    2  A    between atoms: C_7  and  C_14
REMARK                            x       y       z     vdW  Elec       q    Type
REMARK                         _______ _______ _______ _____ _____    ______ ____
ROOT
ATOM      1  C   UNL A   1     -28.016  -0.814  28.878  0.00  0.00    +0.009 C 
ATOM      2  C   UNL A   1     -27.064  -0.119  28.608  0.00  0.00    +0.044 C 
ATOM      3  C   UNL A   1     -27.001   0.691  27.491  0.00  0.00    -0.027 C 
ATOM      4  C   UNL A   1     -27.178   1.904  27.563  0.00  0.00    -0.030 C 
ATOM      5  C   UNL A   1     -29.311  -0.225  28.476  0.00  0.00    +0.010 C 
ATOM      6  C   UNL A   1     -28.765   2.121  27.848  0.00  0.00    +0.030 C 
ATOM      7  C   UNL A   1     -29.474   0.830  28.186  0.00  0.00    +0.081 C 
ATOM      8  C   UNL A   1     -29.314   3.136  26.954  0.00  0.00    +0.005 C 
ENDROOT
BRANCH   7   9
ATOM      9  C   UNL A   1     -31.022   1.385  28.288  0.00  0.00    +0.226 C 
ATOM     10  O   UNL A   1     -31.787   1.018  27.468  0.00  0.00    -0.275 OA
ATOM     11  N   UNL A   1     -31.318   2.175  29.359  0.00  0.00    -0.280 N 
ATOM     12  C   UNL A   1     -32.648   2.591  29.548  0.00  0.00    +0.093 C 
ATOM     13  C   UNL A   1     -32.738   3.322  30.516  0.00  0.00    +0.022 C 
ATOM     14  C   UNL A   1     -31.717   3.708  31.377  0.00  0.00    +0.004 C 
ATOM     15  C   UNL A   1     -30.402   3.257  31.145  0.00  0.00    +0.022 C 
ATOM     16  C   UNL A   1     -30.201   2.436  30.086  0.00  0.00    +0.093 C 
ENDBRANCH   7   9
BRANCH   2  17
ATOM     17  C   UNL A   1     -25.646  -0.650  29.096  0.00  0.00    -0.018 A 
ATOM     18  C   UNL A   1     -25.238  -0.170  30.307  0.00  0.00    -0.004 A 
ATOM     19  C   UNL A   1     -24.896  -1.620  28.491  0.00  0.00    -0.004 A 
ATOM     20  C   UNL A   1     -23.660  -2.069  29.025  0.00  0.00    -0.000 A 
ATOM     21  C   UNL A   1     -24.023  -0.571  30.944  0.00  0.00    -0.000 A 
ATOM     22  C   UNL A   1     -23.198  -1.534  30.271  0.00  0.00    -0.000 A 
ENDBRANCH   2  17
TORSDOF 2
