MODEL 4982
MODEL 1
REMARK VINA RESULT:    -5.847      0.000      0.000
REMARK INTER + INTRA:          -7.573
REMARK INTER:                  -7.214
REMARK INTRA:                  -0.359
REMARK UNBOUND:                -0.359
REMARK  Name = No_4982-gen_results/8p0m/2024-11-26-14-13-15/
REMARK  4 active torsions:
REMARK  status: ('A' for Active; 'I' for Inactive)
REMARK    1  A    between atoms: C_2  and  N_7
REMARK    2  A    between atoms: N_7  and  C_8
REMARK    3  A    between atoms: C_9  and  C_10
REMARK    4  A    between atoms: C_11  and  C_12
REMARK                            x       y       z     vdW  Elec       q    Type
REMARK                         _______ _______ _______ _____ _____    ______ ____
ROOT
ATOM      1  N   UNL A   1     -24.165  -1.363  29.730  0.00  0.00    -0.211 NA
ENDROOT
BRANCH   1   3
ATOM      2  C   UNL A   1     -23.791  -3.365  28.903  0.00  0.00    +0.017 A 
ATOM      3  C   UNL A   1     -24.482  -2.804  29.467  0.00  0.00    +0.070 A 
ATOM      4  C   UNL A   1     -24.137  -4.773  28.649  0.00  0.00    +0.001 A 
ATOM      5  C   UNL A   1     -25.409  -5.287  29.034  0.00  0.00    +0.000 A 
ATOM      6  C   UNL A   1     -25.872  -3.075  29.926  0.00  0.00    +0.017 A 
ATOM      7  C   UNL A   1     -26.225  -4.375  29.718  0.00  0.00    +0.001 A 
ENDBRANCH   1   3
BRANCH   1   8
ATOM      8  C   UNL A   1     -24.383  -0.363  29.054  0.00  0.00    +0.086 C 
ATOM      9  C   UNL A   1     -23.723  -0.009  28.119  0.00  0.00    +0.018 C 
BRANCH   9  10
ATOM     10  C   UNL A   1     -23.381   0.831  27.624  0.00  0.00    +0.001 C 
ATOM     11  C   UNL A   1     -23.645   1.497  26.282  0.00  0.00    -0.000 C 
BRANCH  11  12
ATOM     12  C   UNL A   1     -23.142   2.470  25.677  0.00  0.00    -0.005 C 
ATOM     13  C   UNL A   1     -23.989   3.639  25.585  0.00  0.00    -0.026 C 
ATOM     14  C   UNL A   1     -25.232   3.601  26.127  0.00  0.00    +0.031 C 
ENDBRANCH  11  12
ENDBRANCH   9  10
ENDBRANCH   1   8
TORSDOF 4
ENDMDL
ENDMDL
