REMARK  Name = No_4982-gen_results/8p0m/2024-11-26-14-13-15/
REMARK  4 active torsions:
REMARK  status: ('A' for Active; 'I' for Inactive)
REMARK    1  A    between atoms: C_2  and  N_7
REMARK    2  A    between atoms: N_7  and  C_8
REMARK    3  A    between atoms: C_9  and  C_10
REMARK    4  A    between atoms: C_11  and  C_12
REMARK                            x       y       z     vdW  Elec       q    Type
REMARK                         _______ _______ _______ _____ _____    ______ ____
ROOT
ATOM      1  N   UNL A   1     -29.965  -0.735  29.890  0.00  0.00    -0.211 NA
ENDROOT
BRANCH   1   3
ATOM      2  C   UNL A   1     -28.016  -0.814  28.878  0.00  0.00    +0.017 A 
ATOM      3  C   UNL A   1     -28.469  -0.785  29.829  0.00  0.00    +0.070 A 
ATOM      4  C   UNL A   1     -26.546  -0.876  28.850  0.00  0.00    +0.001 A 
ATOM      5  C   UNL A   1     -25.804  -1.032  30.057  0.00  0.00    +0.000 A 
ATOM      6  C   UNL A   1     -27.944  -0.987  31.207  0.00  0.00    +0.017 A 
ATOM      7  C   UNL A   1     -26.582  -1.039  31.223  0.00  0.00    +0.001 A 
ENDBRANCH   1   3
BRANCH   1   8
ATOM      8  C   UNL A   1     -30.771  -1.535  30.355  0.00  0.00    +0.086 C 
ATOM      9  C   UNL A   1     -30.481  -2.534  30.948  0.00  0.00    +0.018 C 
BRANCH   9  10
ATOM     10  C   UNL A   1     -30.783  -3.508  31.117  0.00  0.00    +0.001 C 
ATOM     11  C   UNL A   1     -30.256  -4.700  31.901  0.00  0.00    -0.000 C 
BRANCH  11  12
ATOM     12  C   UNL A   1     -30.605  -5.897  32.008  0.00  0.00    -0.005 C 
ATOM     13  C   UNL A   1     -31.724  -6.285  31.177  0.00  0.00    -0.026 C 
ATOM     14  C   UNL A   1     -32.309  -5.358  30.377  0.00  0.00    +0.031 C 
ENDBRANCH  11  12
ENDBRANCH   9  10
ENDBRANCH   1   8
TORSDOF 4
