REMARK  Name = No_4983-gen_results/8p0m/2024-11-26-14-13-15/
REMARK  4 active torsions:
REMARK  status: ('A' for Active; 'I' for Inactive)
REMARK    1  A    between atoms: C_2  and  C_7
REMARK    2  A    between atoms: C_7  and  C_12
REMARK    3  A    between atoms: C_8  and  C_9
REMARK    4  A    between atoms: C_9  and  C_10
REMARK                            x       y       z     vdW  Elec       q    Type
REMARK                         _______ _______ _______ _____ _____    ______ ____
ROOT
ATOM      1  C   UNL A   1     -26.897   1.102  27.705  0.00  0.00    -0.002 C 
ATOM      2  C   UNL A   1     -26.664   2.200  27.949  0.00  0.00    -0.021 C 
ENDROOT
BRANCH   1   4
ATOM      3  C   UNL A   1     -28.016  -0.814  28.878  0.00  0.00    -0.000 A 
ATOM      4  C   UNL A   1     -27.064  -0.119  28.608  0.00  0.00    -0.000 A 
ATOM      5  C   UNL A   1     -25.792  -0.430  29.076  0.00  0.00    -0.000 A 
ATOM      6  C   UNL A   1     -25.576  -1.565  29.936  0.00  0.00    -0.000 A 
ATOM      7  C   UNL A   1     -26.735  -2.300  30.217  0.00  0.00    -0.000 A 
ATOM      8  C   UNL A   1     -27.918  -1.954  29.763  0.00  0.00    -0.000 A 
ENDBRANCH   1   4
BRANCH   1   9
ATOM      9  C   UNL A   1     -27.370   0.771  26.306  0.00  0.00    +0.019 A 
ATOM     10  C   UNL A   1     -28.609   0.838  26.008  0.00  0.00    +0.099 A 
ATOM     11  C   UNL A   1     -26.400   0.697  25.312  0.00  0.00    +0.003 A 
ATOM     12  N   UNL A   1     -29.018   0.439  24.760  0.00  0.00    -0.242 NA
ATOM     13  C   UNL A   1     -26.758   0.276  24.035  0.00  0.00    +0.021 A 
ATOM     14  C   UNL A   1     -28.110   0.216  23.840  0.00  0.00    +0.099 A 
ENDBRANCH   1   9
BRANCH   2  15
ATOM     15  C   UNL A   1     -26.271   2.538  29.397  0.00  0.00    +0.052 C 
BRANCH  15  16
ATOM     16  C   UNL A   1     -26.663   3.481  30.079  0.00  0.00    -0.018 A 
ATOM     17  C   UNL A   1     -25.907   4.713  30.016  0.00  0.00    -0.004 A 
ATOM     18  C   UNL A   1     -26.148   5.679  31.057  0.00  0.00    -0.000 A 
ATOM     19  C   UNL A   1     -27.851   3.444  30.858  0.00  0.00    -0.004 A 
ATOM     20  C   UNL A   1     -28.115   4.554  31.814  0.00  0.00    -0.000 A 
ATOM     21  C   UNL A   1     -27.265   5.722  31.848  0.00  0.00    -0.000 A 
ENDBRANCH  15  16
ENDBRANCH   2  15
TORSDOF 4
