MODEL 4983
MODEL 1
REMARK VINA RESULT:    -7.389      0.000      0.000
REMARK INTER + INTRA:         -10.083
REMARK INTER:                  -9.117
REMARK INTRA:                  -0.966
REMARK UNBOUND:                -0.966
REMARK  Name = No_4983-gen_results/8p0m/2024-11-26-14-13-15/
REMARK  4 active torsions:
REMARK  status: ('A' for Active; 'I' for Inactive)
REMARK    1  A    between atoms: C_2  and  C_7
REMARK    2  A    between atoms: C_7  and  C_12
REMARK    3  A    between atoms: C_8  and  C_9
REMARK    4  A    between atoms: C_9  and  C_10
REMARK                            x       y       z     vdW  Elec       q    Type
REMARK                         _______ _______ _______ _____ _____    ______ ____
ROOT
ATOM      1  C   UNL A   1     -24.139  -0.983  29.610  0.00  0.00    -0.002 C 
ATOM      2  C   UNL A   1     -23.777  -0.347  30.494  0.00  0.00    -0.021 C 
ENDROOT
BRANCH   1   4
ATOM      3  C   UNL A   1     -25.851  -2.800  29.871  0.00  0.00    -0.000 A 
ATOM      4  C   UNL A   1     -24.762  -2.378  29.558  0.00  0.00    -0.000 A 
ATOM      5  C   UNL A   1     -23.825  -3.197  28.939  0.00  0.00    -0.000 A 
ATOM      6  C   UNL A   1     -24.105  -4.588  28.691  0.00  0.00    -0.000 A 
ATOM      7  C   UNL A   1     -25.378  -4.999  29.106  0.00  0.00    -0.000 A 
ATOM      8  C   UNL A   1     -26.222  -4.188  29.704  0.00  0.00    -0.000 A 
ENDBRANCH   1   4
BRANCH   1   9
ATOM      9  C   UNL A   1     -24.283  -0.310  28.262  0.00  0.00    +0.019 A 
ATOM     10  C   UNL A   1     -23.356   0.442  27.811  0.00  0.00    +0.099 A 
ATOM     11  C   UNL A   1     -25.294  -0.775  27.428  0.00  0.00    +0.003 A 
ATOM     12  N   UNL A   1     -23.557   1.115  26.632  0.00  0.00    -0.242 NA
ATOM     13  C   UNL A   1     -25.554  -0.114  26.231  0.00  0.00    +0.021 A 
ATOM     14  C   UNL A   1     -24.593   0.797  25.893  0.00  0.00    +0.099 A 
ENDBRANCH   1   9
BRANCH   2  15
ATOM     15  C   UNL A   1     -23.720  -1.018  31.877  0.00  0.00    +0.052 C 
BRANCH  15  16
ATOM     16  C   UNL A   1     -24.398  -0.754  32.866  0.00  0.00    -0.018 A 
ATOM     17  C   UNL A   1     -23.893  -1.172  34.156  0.00  0.00    -0.004 A 
ATOM     18  C   UNL A   1     -24.829  -1.182  35.251  0.00  0.00    -0.000 A 
ATOM     19  C   UNL A   1     -25.603  -0.002  32.812  0.00  0.00    -0.004 A 
ATOM     20  C   UNL A   1     -26.457   0.070  34.030  0.00  0.00    -0.000 A 
ATOM     21  C   UNL A   1     -26.006  -0.483  35.286  0.00  0.00    -0.000 A 
ENDBRANCH  15  16
ENDBRANCH   2  15
TORSDOF 4
ENDMDL
ENDMDL
