MODEL 4984
MODEL 1
REMARK VINA RESULT:    -8.445      0.000      0.000
REMARK INTER + INTRA:         -12.646
REMARK INTER:                 -10.913
REMARK INTRA:                  -1.733
REMARK UNBOUND:                -1.733
REMARK  Name = No_4984-gen_results/8p0m/2024-11-26-14-13-15/
REMARK  5 active torsions:
REMARK  status: ('A' for Active; 'I' for Inactive)
REMARK    1  A    between atoms: C_3  and  C_7
REMARK    2  A    between atoms: C_7  and  C_8
REMARK    3  A    between atoms: C_7  and  C_18
REMARK    4  A    between atoms: C_8  and  C_9
REMARK    5  A    between atoms: C_28  and  C_34
REMARK                            x       y       z     vdW  Elec       q    Type
REMARK                         _______ _______ _______ _____ _____    ______ ____
ROOT
ATOM      1  C   UNL A   1     -24.545   0.166  26.530  0.00  0.00    +0.170 A 
ATOM      2  C   UNL A   1     -25.355   0.503  25.946  0.00  0.00    +0.162 A 
ATOM      3  C   UNL A   1     -24.216   1.062  27.646  0.00  0.00    +0.012 A 
ATOM      4  C   UNL A   1     -24.771   2.267  27.784  0.00  0.00    +0.003 A 
ATOM      5  C   UNL A   1     -26.082   1.747  25.891  0.00  0.00    +0.020 A 
ATOM      6  C   UNL A   1     -25.745   2.576  26.920  0.00  0.00    +0.052 A 
ATOM      7  F   UNL A   1     -23.385   0.948  25.820  0.00  0.00    -0.201 F 
ATOM      8  O   UNL A   1     -25.924  -0.322  24.826  0.00  0.00    -0.473 OA
ATOM      9  C   UNL A   1     -27.152  -0.241  24.342  0.00  0.00    +0.206 C 
ATOM     10  C   UNL A   1     -26.527   3.890  27.157  0.00  0.00    +0.249 C 
ATOM     11  O   UNL A   1     -26.076   4.849  27.546  0.00  0.00    -0.270 OA
ATOM     12  N   UNL A   1     -27.839   3.846  26.559  0.00  0.00    -0.277 N 
ATOM     13  C   UNL A   1     -28.657   5.002  26.689  0.00  0.00    +0.094 C 
ATOM     14  C   UNL A   1     -29.528   5.031  25.781  0.00  0.00    +0.029 C 
ATOM     15  C   UNL A   1     -29.899   3.980  25.112  0.00  0.00    +0.068 C 
ATOM     16  C   UNL A   1     -29.133   2.798  25.036  0.00  0.00    +0.026 C 
ATOM     17  C   UNL A   1     -28.083   2.774  25.785  0.00  0.00    +0.080 C 
ATOM     18  C   UNL A   1     -27.180   1.751  25.609  0.00  0.00    +0.047 C 
ATOM     19  C   UNL A   1     -27.792   0.758  24.608  0.00  0.00    +0.050 C 
ATOM     20  C   UNL A   1     -29.108   1.137  24.055  0.00  0.00    +0.006 C 
ENDROOT
BRANCH  15  21
ATOM     21  C   UNL A   1     -31.169   3.877  24.095  0.00  0.00    +0.207 C 
ATOM     22  O   UNL A   1     -32.050   4.576  24.208  0.00  0.00    -0.288 OA
ENDBRANCH  15  21
BRANCH   3  23
ATOM     23  C   UNL A   1     -23.126   0.566  28.598  0.00  0.00    +0.073 C 
BRANCH  23  24
ATOM     24  C   UNL A   1     -21.829   0.863  28.310  0.00  0.00    +0.221 C 
ATOM     25 BR   UNL A   1     -20.884  -0.055  28.451  0.00  0.00    -0.043 Br
ATOM     26  F   UNL A   1     -21.683   2.041  27.714  0.00  0.00    -0.224 F 
ENDBRANCH  23  24
BRANCH  23  27
ATOM     27  C   UNL A   1     -23.541  -0.053  29.838  0.00  0.00    +0.035 C 
BRANCH  27  28
ATOM     28  C   UNL A   1     -24.230  -1.218  29.867  0.00  0.00    -0.011 A 
ATOM     29  C   UNL A   1     -23.790  -2.332  29.089  0.00  0.00    -0.008 A 
ATOM     30  C   UNL A   1     -24.550  -3.566  29.071  0.00  0.00    -0.022 A 
ATOM     31  C   UNL A   1     -25.862  -3.523  29.561  0.00  0.00    -0.003 A 
ATOM     32  C   UNL A   1     -26.313  -2.448  30.239  0.00  0.00    +0.011 A 
ATOM     33  C   UNL A   1     -25.582  -1.339  30.361  0.00  0.00    +0.054 A 
ATOM     34 CL   UNL A   1     -26.309  -0.834  29.799  0.00  0.00    -0.083 Cl
ATOM     35  C   UNL A   1     -24.008  -4.757  28.454  0.00  0.00    +0.031 C 
ENDBRANCH  27  28
ENDBRANCH  23  27
ENDBRANCH   3  23
TORSDOF 5
ENDMDL
ENDMDL
