REMARK  Name = No_4984-gen_results/8p0m/2024-11-26-14-13-15/
REMARK  5 active torsions:
REMARK  status: ('A' for Active; 'I' for Inactive)
REMARK    1  A    between atoms: C_3  and  C_7
REMARK    2  A    between atoms: C_7  and  C_8
REMARK    3  A    between atoms: C_7  and  C_18
REMARK    4  A    between atoms: C_8  and  C_9
REMARK    5  A    between atoms: C_28  and  C_34
REMARK                            x       y       z     vdW  Elec       q    Type
REMARK                         _______ _______ _______ _____ _____    ______ ____
ROOT
ATOM      1  C   UNL A   1     -28.016  -0.814  28.878  0.00  0.00    +0.170 A 
ATOM      2  C   UNL A   1     -28.469  -0.785  29.829  0.00  0.00    +0.162 A 
ATOM      3  C   UNL A   1     -28.182   0.428  28.113  0.00  0.00    +0.012 A 
ATOM      4  C   UNL A   1     -28.984   1.415  28.515  0.00  0.00    +0.003 A 
ATOM      5  C   UNL A   1     -29.380   0.138  30.461  0.00  0.00    +0.020 A 
ATOM      6  C   UNL A   1     -29.541   1.274  29.724  0.00  0.00    +0.052 A 
ATOM      7  F   UNL A   1     -29.253  -1.270  28.028  0.00  0.00    -0.201 F 
ATOM      8  O   UNL A   1     -28.321  -1.910  30.815  0.00  0.00    -0.473 OA
ATOM      9  C   UNL A   1     -28.436  -1.817  32.129  0.00  0.00    +0.206 C 
ATOM     10  C   UNL A   1     -30.335   2.473  30.294  0.00  0.00    +0.249 C 
ATOM     11  O   UNL A   1     -30.978   3.171  29.683  0.00  0.00    -0.270 OA
ATOM     12  N   UNL A   1     -30.397   2.436  31.734  0.00  0.00    -0.277 N 
ATOM     13  C   UNL A   1     -31.117   3.476  32.386  0.00  0.00    +0.094 C 
ATOM     14  C   UNL A   1     -31.489   3.105  33.529  0.00  0.00    +0.029 C 
ATOM     15  C   UNL A   1     -30.942   2.119  34.175  0.00  0.00    +0.068 C 
ATOM     16  C   UNL A   1     -30.162   1.121  33.553  0.00  0.00    +0.026 C 
ATOM     17  C   UNL A   1     -29.914   1.317  32.303  0.00  0.00    +0.080 C 
ATOM     18  C   UNL A   1     -29.343   0.293  31.583  0.00  0.00    +0.047 C 
ATOM     19  C   UNL A   1     -28.984  -0.827  32.573  0.00  0.00    +0.050 C 
ATOM     20  C   UNL A   1     -29.364  -0.583  33.979  0.00  0.00    +0.006 C 
ENDROOT
BRANCH  15  21
ATOM     21  C   UNL A   1     -31.197   1.722  35.736  0.00  0.00    +0.207 C 
ATOM     22  O   UNL A   1     -32.239   1.482  36.102  0.00  0.00    -0.288 OA
ENDBRANCH  15  21
BRANCH   3  23
ATOM     23  C   UNL A   1     -27.445   0.487  26.773  0.00  0.00    +0.073 C 
BRANCH  23  24
ATOM     24  C   UNL A   1     -28.161   0.770  25.651  0.00  0.00    +0.221 C 
ATOM     25 BR   UNL A   1     -27.773   0.305  24.473  0.00  0.00    -0.043 Br
ATOM     26  F   UNL A   1     -29.326   1.354  25.909  0.00  0.00    -0.224 F 
ENDBRANCH  23  24
BRANCH  23  27
ATOM     27  C   UNL A   1     -26.001   0.397  26.791  0.00  0.00    +0.035 C 
BRANCH  27  28
ATOM     28  C   UNL A   1     -25.317  -0.012  27.885  0.00  0.00    -0.011 A 
ATOM     29  C   UNL A   1     -23.890   0.032  27.897  0.00  0.00    -0.008 A 
ATOM     30  C   UNL A   1     -23.146  -0.453  29.042  0.00  0.00    -0.022 A 
ATOM     31  C   UNL A   1     -23.834  -1.247  29.970  0.00  0.00    -0.003 A 
ATOM     32  C   UNL A   1     -25.178  -1.353  29.928  0.00  0.00    +0.011 A 
ATOM     33  C   UNL A   1     -25.893  -0.817  28.937  0.00  0.00    +0.054 A 
ATOM     34 CL   UNL A   1     -26.172  -1.787  28.655  0.00  0.00    -0.083 Cl
ATOM     35  C   UNL A   1     -21.721  -0.225  29.147  0.00  0.00    +0.031 C 
ENDBRANCH  27  28
ENDBRANCH  23  27
ENDBRANCH   3  23
TORSDOF 5
