REMARK  Name = No_4985-gen_results/8p0m/2024-11-26-14-13-15/
REMARK  10 active torsions:
REMARK  status: ('A' for Active; 'I' for Inactive)
REMARK    1  A    between atoms: C_1  and  C_2
REMARK    2  A    between atoms: C_1  and  N_8
REMARK    3  A    between atoms: C_11  and  O_21
REMARK    4  A    between atoms: C_20  and  C_22
REMARK    5  A    between atoms: O_21  and  C_30
REMARK    6  A    between atoms: N_23  and  C_25
REMARK    7  A    between atoms: C_25  and  C_26
REMARK    8  A    between atoms: C_26  and  C_27
REMARK    9  A    between atoms: C_31  and  C_32
REMARK   10  A    between atoms: C_32  and  C_33
REMARK                            x       y       z     vdW  Elec       q    Type
REMARK                         _______ _______ _______ _____ _____    ______ ____
ROOT
ATOM      1  C   UNL A   1     -27.064  -0.119  28.608  0.00  0.00    +0.008 A 
ATOM      2  C   UNL A   1     -25.792  -0.430  29.076  0.00  0.00    -0.005 A 
ATOM      3  C   UNL A   1     -24.546   0.349  28.823  0.00  0.00    -0.008 A 
ATOM      4  C   UNL A   1     -24.659   1.420  27.888  0.00  0.00    +0.052 A 
ATOM      5  C   UNL A   1     -25.947   1.681  27.379  0.00  0.00    +0.015 A 
ATOM      6  C   UNL A   1     -27.044   0.974  27.687  0.00  0.00    +0.055 A 
ATOM      7  C   UNL A   1     -23.454   2.169  27.597  0.00  0.00    +0.265 C 
ATOM      8  N   UNL A   1     -22.255   1.756  28.073  0.00  0.00    -0.201 NA
ATOM      9  O   UNL A   1     -23.503   3.026  26.674  0.00  0.00    -0.268 OA
ATOM     10 CL   UNL A   1     -28.511   1.442  26.966  0.00  0.00    -0.083 Cl
ATOM     11  C   UNL A   1     -22.018   0.813  28.997  0.00  0.00    +0.129 C 
ATOM     12  C   UNL A   1     -23.234  -0.016  29.384  0.00  0.00    +0.122 C 
ENDROOT
BRANCH  12  13
ATOM     13  C   UNL A   1     -23.060  -1.125  30.268  0.00  0.00    +0.247 C 
ATOM     14  N   UNL A   1     -23.219  -2.196  30.142  0.00  0.00    -0.205 NA
ATOM     15  O   UNL A   1     -22.651  -0.725  31.446  0.00  0.00    -0.273 OA
BRANCH  14  16
ATOM     16  C   UNL A   1     -23.928  -2.850  29.015  0.00  0.00    +0.121 C 
BRANCH  16  17
ATOM     17  C   UNL A   1     -24.457  -4.181  29.294  0.00  0.00    +0.096 C 
BRANCH  17  18
ATOM     18  C   UNL A   1     -24.158  -5.205  28.763  0.00  0.00    +0.320 C 
ATOM     19  F   UNL A   1     -23.314  -5.141  27.729  0.00  0.00    -0.198 F 
ATOM     20  F   UNL A   1     -24.657  -6.375  28.973  0.00  0.00    -0.198 F 
ENDBRANCH  17  18
ENDBRANCH  16  17
ENDBRANCH  14  16
ENDBRANCH  12  13
BRANCH   1  21
ATOM     21  C   UNL A   1     -28.016  -0.814  28.878  0.00  0.00    +0.121 C 
BRANCH  21  22
ATOM     22  N   UNL A   1     -28.664  -0.527  30.102  0.00  0.00    -0.273 N 
ATOM     23  C   UNL A   1     -29.665  -0.396  30.441  0.00  0.00    +0.266 C 
ATOM     24  O   UNL A   1     -30.580  -0.489  29.600  0.00  0.00    -0.271 OA
ATOM     25  C   UNL A   1     -30.064  -0.001  31.910  0.00  0.00    +0.241 C 
ATOM     26  C   UNL A   1     -29.339  -0.440  32.768  0.00  0.00    +0.055 C 
ATOM     27  C   UNL A   1     -27.868  -0.317  32.576  0.00  0.00    +0.026 C 
ATOM     28  C   UNL A   1     -27.474  -0.646  31.263  0.00  0.00    +0.094 C 
BRANCH  25  29
ATOM     29  O   UNL A   1     -31.376   0.343  32.075  0.00  0.00    -0.467 OA
BRANCH  29  30
ATOM     30  C   UNL A   1     -31.639   1.057  33.007  0.00  0.00    +0.169 C 
ATOM     31  C   UNL A   1     -32.673   1.951  32.836  0.00  0.00    +0.019 C 
BRANCH  31  32
ATOM     32  C   UNL A   1     -33.394   2.067  31.802  0.00  0.00    +0.055 C 
BRANCH  32  33
ATOM     33  C   UNL A   1     -34.448   3.040  31.551  0.00  0.00    -0.026 C 
ATOM     34  C   UNL A   1     -34.699   3.918  32.608  0.00  0.00    -0.030 C 
ATOM     35  C   UNL A   1     -33.993   3.869  33.770  0.00  0.00    +0.030 C 
ENDBRANCH  32  33
ENDBRANCH  31  32
ENDBRANCH  29  30
ENDBRANCH  25  29
ENDBRANCH  21  22
ENDBRANCH   1  21
TORSDOF 10
