MODEL 4985
MODEL 1
REMARK VINA RESULT:    -7.258      0.000      0.000
REMARK INTER + INTRA:         -13.255
REMARK INTER:                 -11.501
REMARK INTRA:                  -1.754
REMARK UNBOUND:                -1.754
REMARK  Name = No_4985-gen_results/8p0m/2024-11-26-14-13-15/
REMARK  10 active torsions:
REMARK  status: ('A' for Active; 'I' for Inactive)
REMARK    1  A    between atoms: C_1  and  C_2
REMARK    2  A    between atoms: C_1  and  N_8
REMARK    3  A    between atoms: C_11  and  O_21
REMARK    4  A    between atoms: C_20  and  C_22
REMARK    5  A    between atoms: O_21  and  C_30
REMARK    6  A    between atoms: N_23  and  C_25
REMARK    7  A    between atoms: C_25  and  C_26
REMARK    8  A    between atoms: C_26  and  C_27
REMARK    9  A    between atoms: C_31  and  C_32
REMARK   10  A    between atoms: C_32  and  C_33
REMARK                            x       y       z     vdW  Elec       q    Type
REMARK                         _______ _______ _______ _____ _____    ______ ____
ROOT
ATOM      1  C   UNL A   1     -12.291   2.049  35.097  0.00  0.00    +0.008 A 
ATOM      2  C   UNL A   1     -11.958   1.961  36.444  0.00  0.00    -0.005 A 
ATOM      3  C   UNL A   1     -12.859   2.255  37.595  0.00  0.00    -0.008 A 
ATOM      4  C   UNL A   1     -14.125   2.824  37.267  0.00  0.00    +0.052 A 
ATOM      5  C   UNL A   1     -14.420   2.960  35.895  0.00  0.00    +0.015 A 
ATOM      6  C   UNL A   1     -13.584   2.627  34.901  0.00  0.00    +0.055 A 
ATOM      7  C   UNL A   1     -15.005   3.152  38.370  0.00  0.00    +0.265 C 
ATOM      8  N   UNL A   1     -14.566   3.069  39.648  0.00  0.00    -0.201 NA
ATOM      9  O   UNL A   1     -16.066   3.781  38.108  0.00  0.00    -0.268 OA
ATOM     10 CL   UNL A   1     -14.120   2.870  33.306  0.00  0.00    -0.083 Cl
ATOM     11  C   UNL A   1     -13.435   2.502  40.094  0.00  0.00    +0.129 C 
ATOM     12  C   UNL A   1     -12.453   2.102  39.003  0.00  0.00    +0.122 C 
ENDROOT
BRANCH  12  13
ATOM     13  C   UNL A   1     -11.168   1.604  39.380  0.00  0.00    +0.247 C 
ATOM     14  N   UNL A   1     -10.778   0.593  39.496  0.00  0.00    -0.205 NA
ATOM     15  O   UNL A   1     -10.344   2.587  39.645  0.00  0.00    -0.273 OA
BRANCH  14  16
ATOM     16  C   UNL A   1     -11.577  -0.657  39.523  0.00  0.00    +0.121 C 
BRANCH  16  17
ATOM     17  C   UNL A   1     -11.487  -1.485  38.325  0.00  0.00    +0.096 C 
BRANCH  17  18
ATOM     18  C   UNL A   1     -11.873  -2.604  38.189  0.00  0.00    +0.320 C 
ATOM     19  F   UNL A   1     -11.565  -3.228  37.047  0.00  0.00    -0.198 F 
ATOM     20  F   UNL A   1     -12.678  -3.258  38.954  0.00  0.00    -0.198 F 
ENDBRANCH  17  18
ENDBRANCH  16  17
ENDBRANCH  14  16
ENDBRANCH  12  13
BRANCH   1  21
ATOM     21  C   UNL A   1     -11.487   1.779  34.236  0.00  0.00    +0.121 C 
BRANCH  21  22
ATOM     22  N   UNL A   1     -10.205   2.358  34.384  0.00  0.00    -0.273 N 
ATOM     23  C   UNL A   1      -9.192   2.035  34.317  0.00  0.00    +0.266 C 
ATOM     24  O   UNL A   1      -8.981   0.835  34.056  0.00  0.00    -0.271 OA
ATOM     25  C   UNL A   1      -7.945   2.945  34.617  0.00  0.00    +0.241 C 
ATOM     26  C   UNL A   1      -8.080   4.106  34.320  0.00  0.00    +0.055 C 
ATOM     27  C   UNL A   1      -9.337   4.793  34.725  0.00  0.00    +0.026 C 
ATOM     28  C   UNL A   1     -10.478   3.999  34.487  0.00  0.00    +0.094 C 
BRANCH  25  29
ATOM     29  O   UNL A   1      -6.755   2.278  34.701  0.00  0.00    -0.467 OA
BRANCH  29  30
ATOM     30  C   UNL A   1      -6.372   1.985  35.803  0.00  0.00    +0.169 C 
ATOM     31  C   UNL A   1      -5.800   0.741  35.955  0.00  0.00    +0.019 C 
BRANCH  31  32
ATOM     32  C   UNL A   1      -5.611  -0.109  35.036  0.00  0.00    +0.055 C 
BRANCH  32  33
ATOM     33  C   UNL A   1      -6.360  -1.330  34.779  0.00  0.00    -0.026 C 
ATOM     34  C   UNL A   1      -5.599  -2.393  34.286  0.00  0.00    -0.030 C 
ATOM     35  C   UNL A   1      -4.257  -2.286  34.085  0.00  0.00    +0.030 C 
ENDBRANCH  32  33
ENDBRANCH  31  32
ENDBRANCH  29  30
ENDBRANCH  25  29
ENDBRANCH  21  22
ENDBRANCH   1  21
TORSDOF 10
ENDMDL
ENDMDL
