MODEL 4986
MODEL 1
REMARK VINA RESULT:    -3.886      0.000      0.000
REMARK INTER + INTRA:          -4.676
REMARK INTER:                  -4.568
REMARK INTRA:                  -0.108
REMARK UNBOUND:                -0.108
REMARK  Name = No_4986-gen_results/8p0m/2024-11-26-14-13-15/
REMARK  3 active torsions:
REMARK  status: ('A' for Active; 'I' for Inactive)
REMARK    1  A    between atoms: C_1  and  C_2
REMARK    2  A    between atoms: C_1  and  C_6
REMARK    3  A    between atoms: C_3  and  C_4
REMARK                            x       y       z     vdW  Elec       q    Type
REMARK                         _______ _______ _______ _____ _____    ______ ____
ROOT
ATOM      1  C   UNL A   1     -23.792  -1.910  28.896  0.00  0.00    -0.086 C 
ATOM      2  C   UNL A   1     -22.667  -1.216  29.329  0.00  0.00    -0.064 C 
ENDROOT
BRANCH   2   3
ATOM      3  C   UNL A   1     -22.135   0.035  28.765  0.00  0.00    +0.049 C 
ATOM      4  C   UNL A   1     -22.793   0.872  27.817  0.00  0.00    +0.009 C 
ENDBRANCH   2   3
BRANCH   1   5
ATOM      5  C   UNL A   1     -24.134  -2.939  29.430  0.00  0.00    +0.076 C 
BRANCH   5   6
ATOM      6  C   UNL A   1     -24.149  -4.211  28.655  0.00  0.00    +0.014 C 
ATOM      7  C   UNL A   1     -24.881  -5.295  29.073  0.00  0.00    +0.001 C 
ENDBRANCH   5   6
ENDBRANCH   1   5
TORSDOF 3
ENDMDL
ENDMDL
