MODEL 4987
MODEL 1
REMARK VINA RESULT:    -5.585      0.000      0.000
REMARK INTER + INTRA:          -7.134
REMARK INTER:                  -6.891
REMARK INTRA:                  -0.243
REMARK UNBOUND:                -0.243
REMARK  Name = No_4987-gen_results/8p0m/2024-11-26-14-13-15/
REMARK  4 active torsions:
REMARK  status: ('A' for Active; 'I' for Inactive)
REMARK    1  A    between atoms: C_1  and  C_2
REMARK    2  A    between atoms: C_1  and  N_8
REMARK    3  A    between atoms: C_5  and  C_9
REMARK    4  A    between atoms: N_8  and  C_11
REMARK                            x       y       z     vdW  Elec       q    Type
REMARK                         _______ _______ _______ _____ _____    ______ ____
ROOT
ATOM      1  C   UNL A   1     -23.494  -0.533  28.624  0.00  0.00    -0.001 A 
ATOM      2  C   UNL A   1     -24.477  -0.353  27.666  0.00  0.00    -0.002 A 
ATOM      3  C   UNL A   1     -24.506   0.676  26.655  0.00  0.00    +0.004 A 
ATOM      4  C   UNL A   1     -23.445   1.612  26.611  0.00  0.00    +0.057 A 
ATOM      5  C   UNL A   1     -22.406   1.486  27.569  0.00  0.00    +0.004 A 
ATOM      6  C   UNL A   1     -22.453   0.463  28.465  0.00  0.00    -0.002 A 
ENDROOT
BRANCH   4   7
ATOM      7  C   UNL A   1     -23.399   2.680  25.640  0.00  0.00    +0.284 C 
ATOM      8  N   UNL A   1     -24.094   3.697  25.722  0.00  0.00    -0.084 NA
ATOM      9  O   UNL A   1     -22.378   2.656  24.825  0.00  0.00    -0.267 OA
ENDBRANCH   4   7
BRANCH   1  10
ATOM     10  C   UNL A   1     -23.455  -1.443  29.419  0.00  0.00    +0.139 C 
BRANCH  10  11
ATOM     11  N   UNL A   1     -23.313  -2.676  28.913  0.00  0.00    -0.232 NA
BRANCH  11  12
ATOM     12  C   UNL A   1     -24.313  -3.588  28.917  0.00  0.00    +0.076 C 
ATOM     13  C   UNL A   1     -25.315  -3.564  29.646  0.00  0.00    -0.008 C 
ATOM     14  C   UNL A   1     -26.392  -4.551  29.690  0.00  0.00    +0.032 C 
ENDBRANCH  11  12
ENDBRANCH  10  11
ENDBRANCH   1  10
TORSDOF 4
ENDMDL
ENDMDL
