MODEL 4988
MODEL 1
REMARK VINA RESULT:    -6.374      0.000      0.000
REMARK INTER + INTRA:          -7.682
REMARK INTER:                  -7.120
REMARK INTRA:                  -0.563
REMARK UNBOUND:                -0.563
REMARK  Name = No_4988-gen_results/8p0m/2024-11-26-14-13-15/
REMARK  2 active torsions:
REMARK  status: ('A' for Active; 'I' for Inactive)
REMARK    1  A    between atoms: C_3  and  C_4
REMARK    2  A    between atoms: C_4  and  C_8
REMARK                            x       y       z     vdW  Elec       q    Type
REMARK                         _______ _______ _______ _____ _____    ______ ____
ROOT
ATOM      1  C   UNL A   1     -24.487  -1.141  29.363  0.00  0.00    +0.053 C 
ENDROOT
BRANCH   1   4
ATOM      2  C   UNL A   1     -25.338  -0.368  27.007  0.00  0.00    -0.004 A 
ATOM      3  C   UNL A   1     -25.067   0.208  26.168  0.00  0.00    -0.000 A 
ATOM      4  C   UNL A   1     -24.419  -0.332  28.156  0.00  0.00    -0.018 A 
ATOM      5  C   UNL A   1     -24.016   1.237  25.979  0.00  0.00    -0.000 A 
ATOM      6  C   UNL A   1     -23.108   1.338  27.027  0.00  0.00    -0.000 A 
ATOM      7  C   UNL A   1     -23.274   0.586  28.170  0.00  0.00    -0.004 A 
ENDBRANCH   1   4
BRANCH   1   8
ATOM      8  C   UNL A   1     -24.669  -2.588  29.158  0.00  0.00    -0.018 A 
ATOM      9  C   UNL A   1     -23.857  -3.286  28.684  0.00  0.00    -0.004 A 
ATOM     10  C   UNL A   1     -24.003  -4.567  28.584  0.00  0.00    -0.000 A 
ATOM     11  C   UNL A   1     -25.198  -5.282  28.996  0.00  0.00    -0.000 A 
ATOM     12  C   UNL A   1     -25.858  -3.176  29.778  0.00  0.00    -0.004 A 
ATOM     13  C   UNL A   1     -26.078  -4.518  29.625  0.00  0.00    -0.000 A 
ENDBRANCH   1   8
TORSDOF 2
ENDMDL
ENDMDL
