REMARK  Name = No_4989-gen_results/8p0m/2024-11-26-14-13-15/
REMARK  0 active torsions:
REMARK  status: ('A' for Active; 'I' for Inactive)
REMARK                            x       y       z     vdW  Elec       q    Type
REMARK                         _______ _______ _______ _____ _____    ______ ____
ROOT
ATOM      1  C   UNL A   1     -28.016  -0.814  28.878  0.00  0.00    +0.003 A 
ATOM      2  C   UNL A   1     -27.064  -0.119  28.608  0.00  0.00    +0.035 A 
ATOM      3  C   UNL A   1     -26.972   0.714  27.506  0.00  0.00    -0.019 A 
ATOM      4  C   UNL A   1     -28.105   0.774  26.642  0.00  0.00    -0.019 A 
ATOM      5  C   UNL A   1     -29.204   0.118  27.048  0.00  0.00    +0.051 A 
ATOM      6  C   UNL A   1     -29.213  -0.609  28.128  0.00  0.00    +0.004 A 
ATOM      7  C   UNL A   1     -25.711   1.452  27.138  0.00  0.00    +0.044 C 
ATOM      8  C   UNL A   1     -24.605   0.925  27.690  0.00  0.00    -0.015 A 
ATOM      9  C   UNL A   1     -23.338   1.651  27.549  0.00  0.00    -0.004 A 
ATOM     10  C   UNL A   1     -22.176   1.228  28.287  0.00  0.00    -0.000 A 
ATOM     11  C   UNL A   1     -22.181   0.085  29.026  0.00  0.00    +0.000 A 
ATOM     12  C   UNL A   1     -23.361  -0.693  29.101  0.00  0.00    +0.003 A 
ATOM     13  C   UNL A   1     -24.531  -0.241  28.487  0.00  0.00    +0.035 A 
ATOM     14  C   UNL A   1     -25.715  -0.611  29.135  0.00  0.00    +0.195 C 
ATOM     15  C   UNL A   1     -25.773   2.600  26.302  0.00  0.00    +0.009 C 
ATOM     16  O   UNL A   1     -25.768  -1.483  30.076  0.00  0.00    -0.287 OA
ATOM     17  C   UNL A   1     -30.355   0.404  26.119  0.00  0.00    +0.265 C 
ATOM     18  O   UNL A   1     -31.385   0.056  26.308  0.00  0.00    -0.268 OA
ATOM     19  N   UNL A   1     -30.135   1.277  25.116  0.00  0.00    -0.201 NA
ATOM     20  C   UNL A   1     -29.116   2.048  24.758  0.00  0.00    +0.120 C 
ATOM     21  C   UNL A   1     -28.023   1.805  25.582  0.00  0.00    +0.050 C 
ENDROOT
TORSDOF 0
