MODEL 4989
MODEL 1
REMARK VINA RESULT:    -7.657      0.000      0.000
REMARK INTER + INTRA:          -7.657
REMARK INTER:                  -7.657
REMARK INTRA:                   0.000
REMARK UNBOUND:                 0.000
REMARK  Name = No_4989-gen_results/8p0m/2024-11-26-14-13-15/
REMARK  0 active torsions:
REMARK  status: ('A' for Active; 'I' for Inactive)
REMARK                            x       y       z     vdW  Elec       q    Type
REMARK                         _______ _______ _______ _____ _____    ______ ____
ROOT
ATOM      1  C   UNL A   1      -9.476   1.185  12.161  0.00  0.00    +0.003 A 
ATOM      2  C   UNL A   1      -9.681   1.911  11.216  0.00  0.00    +0.035 A 
ATOM      3  C   UNL A   1      -8.977   1.887  10.024  0.00  0.00    -0.019 A 
ATOM      4  C   UNL A   1      -7.950   0.906   9.897  0.00  0.00    -0.019 A 
ATOM      5  C   UNL A   1      -7.849   0.012  10.894  0.00  0.00    +0.051 A 
ATOM      6  C   UNL A   1      -8.587   0.086  11.964  0.00  0.00    +0.004 A 
ATOM      7  C   UNL A   1      -9.178   2.904   8.931  0.00  0.00    +0.044 C 
ATOM      8  C   UNL A   1      -9.756   4.039   9.359  0.00  0.00    -0.015 A 
ATOM      9  C   UNL A   1     -10.162   5.038   8.364  0.00  0.00    -0.004 A 
ATOM     10  C   UNL A   1     -10.958   6.171   8.758  0.00  0.00    -0.000 A 
ATOM     11  C   UNL A   1     -11.246   6.416  10.066  0.00  0.00    +0.000 A 
ATOM     12  C   UNL A   1     -10.782   5.524  11.062  0.00  0.00    +0.003 A 
ATOM     13  C   UNL A   1     -10.107   4.359  10.692  0.00  0.00    +0.035 A 
ATOM     14  C   UNL A   1     -10.304   3.268  11.547  0.00  0.00    +0.195 C 
ATOM     15  C   UNL A   1      -8.788   2.607   7.597  0.00  0.00    +0.009 C 
ATOM     16  O   UNL A   1     -10.857   3.362  12.702  0.00  0.00    -0.287 OA
ATOM     17  C   UNL A   1      -6.834  -1.046  10.545  0.00  0.00    +0.265 C 
ATOM     18  O   UNL A   1      -6.655  -1.939  11.168  0.00  0.00    -0.268 OA
ATOM     19  N   UNL A   1      -6.263  -0.974   9.327  0.00  0.00    -0.201 NA
ATOM     20  C   UNL A   1      -6.429  -0.196   8.264  0.00  0.00    +0.120 C 
ATOM     21  C   UNL A   1      -7.349   0.807   8.548  0.00  0.00    +0.050 C 
ENDROOT
TORSDOF 0
ENDMDL
ENDMDL
