MODEL 498
MODEL 1
REMARK VINA RESULT:    -8.949      0.000      0.000
REMARK INTER + INTRA:         -13.177
REMARK INTER:                 -12.088
REMARK INTRA:                  -1.089
REMARK UNBOUND:                -1.089
REMARK  Name = No_498-gen_results/8p0m/2024-11-26-14-13-15/
REMARK  6 active torsions:
REMARK  status: ('A' for Active; 'I' for Inactive)
REMARK    1  A    between atoms: C_1  and  C_17
REMARK    2  A    between atoms: C_5  and  C_7
REMARK    3  A    between atoms: N_9  and  C_10
REMARK    4  A    between atoms: C_10  and  C_11
REMARK    5  A    between atoms: N_18  and  C_20
REMARK    6  A    between atoms: C_20  and  C_22
REMARK                            x       y       z     vdW  Elec       q    Type
REMARK                         _______ _______ _______ _____ _____    ______ ____
ROOT
ATOM      1  C   UNL A   1     -24.547   2.506  27.340  0.00  0.00    +0.055 A 
ATOM      2  C   UNL A   1     -23.564   2.160  26.728  0.00  0.00    +0.005 A 
ATOM      3  C   UNL A   1     -22.570   1.330  27.220  0.00  0.00    +0.000 A 
ATOM      4  C   UNL A   1     -22.743   0.825  28.542  0.00  0.00    +0.004 A 
ATOM      5  C   UNL A   1     -23.919   1.110  29.138  0.00  0.00    +0.054 A 
ATOM      6  C   UNL A   1     -24.851   1.852  28.536  0.00  0.00    +0.009 A 
ENDROOT
BRANCH   5   7
ATOM      7  C   UNL A   1     -24.084   0.533  30.486  0.00  0.00    +0.249 C 
ATOM      8  O   UNL A   1     -23.469   0.850  31.460  0.00  0.00    -0.270 OA
ATOM      9  N   UNL A   1     -24.908  -0.570  30.584  0.00  0.00    -0.270 N 
ATOM     10  C   UNL A   1     -25.154  -1.112  31.900  0.00  0.00    +0.116 C 
BRANCH   9  11
ATOM     11  C   UNL A   1     -25.623  -1.155  29.510  0.00  0.00    +0.120 C 
BRANCH  11  12
ATOM     12  C   UNL A   1     -25.284  -2.427  29.318  0.00  0.00    -0.002 A 
ATOM     13  C   UNL A   1     -24.372  -2.800  28.866  0.00  0.00    -0.003 A 
ATOM     14  C   UNL A   1     -23.997  -4.224  28.589  0.00  0.00    -0.000 A 
ATOM     15  C   UNL A   1     -24.900  -5.208  29.045  0.00  0.00    -0.000 A 
ATOM     16  C   UNL A   1     -26.235  -3.582  29.750  0.00  0.00    -0.003 A 
ATOM     17  C   UNL A   1     -26.002  -4.870  29.588  0.00  0.00    -0.000 A 
ENDBRANCH  11  12
ENDBRANCH   9  11
ENDBRANCH   5   7
BRANCH   1  18
ATOM     18  C   UNL A   1     -25.629   3.379  26.722  0.00  0.00    +0.265 C 
ATOM     19  N   UNL A   1     -26.441   3.080  25.958  0.00  0.00    -0.197 NA
ATOM     20  O   UNL A   1     -25.402   4.669  26.938  0.00  0.00    -0.268 OA
BRANCH  19  21
ATOM     21  C   UNL A   1     -27.443   3.467  25.579  0.00  0.00    +0.142 C 
BRANCH  21  22
ATOM     22  C   UNL A   1     -28.231   2.776  24.742  0.00  0.00    -0.001 A 
ATOM     23  C   UNL A   1     -27.911   1.507  24.471  0.00  0.00    -0.003 A 
ATOM     24  C   UNL A   1     -28.741   0.613  23.675  0.00  0.00    -0.000 A 
ATOM     25  C   UNL A   1     -29.944   1.198  23.219  0.00  0.00    -0.000 A 
ATOM     26  C   UNL A   1     -30.339   2.495  23.480  0.00  0.00    -0.000 A 
ATOM     27  C   UNL A   1     -29.534   3.299  24.249  0.00  0.00    -0.003 A 
ATOM     28  C   UNL A   1     -28.373  -0.736  23.349  0.00  0.00    -0.000 A 
ATOM     29  C   UNL A   1     -29.213  -1.695  23.566  0.00  0.00    -0.000 A 
ATOM     30  C   UNL A   1     -30.511  -1.430  24.095  0.00  0.00    -0.000 A 
ATOM     31  C   UNL A   1     -31.087  -0.096  23.586  0.00  0.00    -0.000 A 
ENDBRANCH  21  22
ENDBRANCH  19  21
ENDBRANCH   1  18
TORSDOF 6
ENDMDL
ENDMDL
