MODEL 4990
MODEL 1
REMARK VINA RESULT:    -7.111      0.000      0.000
REMARK INTER + INTRA:         -11.024
REMARK INTER:                  -9.605
REMARK INTRA:                  -1.418
REMARK UNBOUND:                -1.418
REMARK  Name = No_4990-gen_results/8p0m/2024-11-26-14-13-15/
REMARK  6 active torsions:
REMARK  status: ('A' for Active; 'I' for Inactive)
REMARK    1  A    between atoms: C_1  and  C_2
REMARK    2  A    between atoms: C_1  and  N_8
REMARK    3  A    between atoms: C_5  and  C_9
REMARK    4  A    between atoms: N_8  and  C_12
REMARK    5  A    between atoms: N_8  and  C_13
REMARK    6  A    between atoms: C_13  and  C_14
REMARK                            x       y       z     vdW  Elec       q    Type
REMARK                         _______ _______ _______ _____ _____    ______ ____
ROOT
ATOM      1  N   UNL A   1     -24.938  -1.501  29.891  0.00  0.00    -0.296 N 
ENDROOT
BRANCH   1   2
ATOM      2  C   UNL A   1     -24.740  -2.728  29.583  0.00  0.00    +0.048 A 
ATOM      3  C   UNL A   1     -24.066  -3.273  28.953  0.00  0.00    +0.015 A 
ATOM      4  C   UNL A   1     -25.973  -3.493  29.880  0.00  0.00    +0.015 A 
ATOM      5  C   UNL A   1     -23.908  -4.596  28.546  0.00  0.00    +0.001 A 
ATOM      6  C   UNL A   1     -25.989  -4.899  29.570  0.00  0.00    +0.001 A 
ATOM      7  C   UNL A   1     -24.965  -5.430  28.856  0.00  0.00    +0.000 A 
ENDBRANCH   1   2
BRANCH   1   8
ATOM      8  C   UNL A   1     -25.824  -0.679  29.271  0.00  0.00    +0.118 C 
BRANCH   8   9
ATOM      9  C   UNL A   1     -25.362   0.083  28.453  0.00  0.00    -0.002 A 
ATOM     10  C   UNL A   1     -24.630   1.222  28.787  0.00  0.00    -0.002 A 
ATOM     11  C   UNL A   1     -24.043   2.209  27.860  0.00  0.00    +0.006 A 
ATOM     12  C   UNL A   1     -24.059   1.848  26.478  0.00  0.00    +0.080 A 
ATOM     13  C   UNL A   1     -24.744   0.688  26.102  0.00  0.00    +0.006 A 
ATOM     14  C   UNL A   1     -25.337  -0.141  26.990  0.00  0.00    -0.002 A 
BRANCH  12  15
ATOM     15  C   UNL A   1     -23.415   2.772  25.585  0.00  0.00    +0.388 C 
ATOM     16  O   UNL A   1     -23.893   3.891  25.404  0.00  0.00    -0.241 OA
ATOM     17  O   UNL A   1     -22.382   2.449  24.827  0.00  0.00    -0.241 OA
ENDBRANCH  12  15
ENDBRANCH   8   9
ENDBRANCH   1   8
BRANCH   1  18
ATOM     18  C   UNL A   1     -24.889  -1.225  31.384  0.00  0.00    +0.196 C 
BRANCH  18  19
ATOM     19  C   UNL A   1     -23.657  -0.740  31.838  0.00  0.00    +0.416 C 
ATOM     20  F   UNL A   1     -23.850   0.409  32.256  0.00  0.00    -0.168 F 
ATOM     21  F   UNL A   1     -22.742  -0.577  30.900  0.00  0.00    -0.168 F 
ATOM     22  F   UNL A   1     -23.048  -1.496  32.619  0.00  0.00    -0.168 F 
ENDBRANCH  18  19
ENDBRANCH   1  18
TORSDOF 6
ENDMDL
ENDMDL
