REMARK  Name = No_4990-gen_results/8p0m/2024-11-26-14-13-15/
REMARK  6 active torsions:
REMARK  status: ('A' for Active; 'I' for Inactive)
REMARK    1  A    between atoms: C_1  and  C_2
REMARK    2  A    between atoms: C_1  and  N_8
REMARK    3  A    between atoms: C_5  and  C_9
REMARK    4  A    between atoms: N_8  and  C_12
REMARK    5  A    between atoms: N_8  and  C_13
REMARK    6  A    between atoms: C_13  and  C_14
REMARK                            x       y       z     vdW  Elec       q    Type
REMARK                         _______ _______ _______ _____ _____    ______ ____
ROOT
ATOM      1  N   UNL A   1     -29.187  -0.165  29.103  0.00  0.00    -0.296 N 
ENDROOT
BRANCH   1   2
ATOM      2  C   UNL A   1     -29.663   0.105  30.261  0.00  0.00    +0.048 A 
ATOM      3  C   UNL A   1     -29.671   0.948  30.922  0.00  0.00    +0.015 A 
ATOM      4  C   UNL A   1     -29.919  -1.169  30.973  0.00  0.00    +0.015 A 
ATOM      5  C   UNL A   1     -30.108   1.213  32.218  0.00  0.00    +0.001 A 
ATOM      6  C   UNL A   1     -30.421  -1.102  32.321  0.00  0.00    +0.001 A 
ATOM      7  C   UNL A   1     -30.465   0.098  32.951  0.00  0.00    +0.000 A 
ENDBRANCH   1   2
BRANCH   1   8
ATOM      8  C   UNL A   1     -28.016  -0.814  28.878  0.00  0.00    +0.118 C 
BRANCH   8   9
ATOM      9  C   UNL A   1     -27.064  -0.119  28.608  0.00  0.00    -0.002 A 
ATOM     10  C   UNL A   1     -25.765  -0.390  29.036  0.00  0.00    -0.002 A 
ATOM     11  C   UNL A   1     -24.552   0.406  28.765  0.00  0.00    +0.006 A 
ATOM     12  C   UNL A   1     -24.696   1.448  27.799  0.00  0.00    +0.080 A 
ATOM     13  C   UNL A   1     -25.976   1.725  27.308  0.00  0.00    +0.006 A 
ATOM     14  C   UNL A   1     -27.072   1.013  27.654  0.00  0.00    -0.002 A 
BRANCH  12  15
ATOM     15  C   UNL A   1     -23.496   2.169  27.476  0.00  0.00    +0.388 C 
ATOM     16  O   UNL A   1     -23.540   3.131  26.710  0.00  0.00    -0.241 OA
ATOM     17  O   UNL A   1     -22.292   1.783  27.859  0.00  0.00    -0.241 OA
ENDBRANCH  12  15
ENDBRANCH   8   9
ENDBRANCH   1   8
BRANCH   1  18
ATOM     18  C   UNL A   1     -30.240  -0.566  28.083  0.00  0.00    +0.196 C 
BRANCH  18  19
ATOM     19  C   UNL A   1     -30.497   0.408  27.111  0.00  0.00    +0.416 C 
ATOM     20  F   UNL A   1     -30.537  -0.171  26.018  0.00  0.00    -0.168 F 
ATOM     21  F   UNL A   1     -29.541   1.303  26.952  0.00  0.00    -0.168 F 
ATOM     22  F   UNL A   1     -31.466   1.153  27.356  0.00  0.00    -0.168 F 
ENDBRANCH  18  19
ENDBRANCH   1  18
TORSDOF 6
