REMARK  Name = No_4991-gen_results/8p0m/2024-11-26-14-13-15/
REMARK  2 active torsions:
REMARK  status: ('A' for Active; 'I' for Inactive)
REMARK    1  A    between atoms: C_4  and  C_5
REMARK    2  A    between atoms: C_10  and  C_15
REMARK                            x       y       z     vdW  Elec       q    Type
REMARK                         _______ _______ _______ _____ _____    ______ ____
ROOT
ATOM      1  C   UNL A   1     -23.389  -0.455  29.016  0.00  0.00    -0.017 A 
ATOM      2  C   UNL A   1     -22.746  -1.543  29.522  0.00  0.00    -0.004 A 
ATOM      3  C   UNL A   1     -22.578   0.585  28.346  0.00  0.00    +0.051 A 
ATOM      4  C   UNL A   1     -21.141   0.392  28.259  0.00  0.00    +0.004 A 
ATOM      5  C   UNL A   1     -20.595  -0.768  28.810  0.00  0.00    +0.000 A 
ATOM      6  C   UNL A   1     -21.356  -1.734  29.381  0.00  0.00    -0.000 A 
ENDROOT
BRANCH   1  10
ATOM      7  O   UNL A   1     -28.123  -1.335  28.487  0.00  0.00    -0.273 OA
ATOM      8  C   UNL A   1     -27.064  -0.824  28.869  0.00  0.00    +0.244 C 
ATOM      9  C   UNL A   1     -25.946  -1.040  28.849  0.00  0.00    +0.091 C 
ATOM     10  C   UNL A   1     -24.760  -0.156  29.164  0.00  0.00    +0.036 C 
ATOM     11  N   UNL A   1     -27.340   0.383  29.763  0.00  0.00    -0.173 NA
ATOM     12  C   UNL A   1     -26.421   1.277  30.189  0.00  0.00    +0.256 C 
ATOM     13  C   UNL A   1     -25.064   1.055  29.932  0.00  0.00    +0.063 C 
ATOM     14  F   UNL A   1     -26.842   2.283  30.857  0.00  0.00    -0.213 F 
ENDBRANCH   1  10
BRANCH   3  15
ATOM     15  C   UNL A   1     -23.142   1.794  27.814  0.00  0.00    +0.265 C 
ATOM     16  O   UNL A   1     -23.681   2.663  28.374  0.00  0.00    -0.268 OA
ATOM     17  N   UNL A   1     -23.066   1.841  26.404  0.00  0.00    -0.200 NA
ATOM     18  C   UNL A   1     -23.602   2.893  25.583  0.00  0.00    +0.139 C 
ENDBRANCH   3  15
TORSDOF 2
