MODEL 4991
MODEL 1
REMARK VINA RESULT:    -6.679      0.000      0.000
REMARK INTER + INTRA:          -7.892
REMARK INTER:                  -7.460
REMARK INTRA:                  -0.432
REMARK UNBOUND:                -0.432
REMARK  Name = No_4991-gen_results/8p0m/2024-11-26-14-13-15/
REMARK  2 active torsions:
REMARK  status: ('A' for Active; 'I' for Inactive)
REMARK    1  A    between atoms: C_4  and  C_5
REMARK    2  A    between atoms: C_10  and  C_15
REMARK                            x       y       z     vdW  Elec       q    Type
REMARK                         _______ _______ _______ _____ _____    ______ ____
ROOT
ATOM      1  C   UNL A   1     -24.668  -2.344  29.197  0.00  0.00    -0.017 A 
ATOM      2  C   UNL A   1     -23.844  -3.358  28.814  0.00  0.00    -0.004 A 
ATOM      3  C   UNL A   1     -26.029  -2.689  29.662  0.00  0.00    +0.051 A 
ATOM      4  C   UNL A   1     -26.416  -4.089  29.691  0.00  0.00    +0.004 A 
ATOM      5  C   UNL A   1     -25.483  -5.041  29.280  0.00  0.00    +0.000 A 
ATOM      6  C   UNL A   1     -24.223  -4.713  28.899  0.00  0.00    -0.000 A 
ENDROOT
BRANCH   1  10
ATOM      7  O   UNL A   1     -23.485   2.014  30.949  0.00  0.00    -0.273 OA
ATOM      8  C   UNL A   1     -23.714   1.097  30.153  0.00  0.00    +0.244 C 
ATOM      9  C   UNL A   1     -23.873  -0.031  30.159  0.00  0.00    +0.091 C 
ATOM     10  C   UNL A   1     -24.394  -0.964  29.089  0.00  0.00    +0.036 C 
ATOM     11  N   UNL A   1     -23.609   1.595  28.713  0.00  0.00    -0.173 NA
ATOM     12  C   UNL A   1     -23.984   0.910  27.611  0.00  0.00    +0.256 C 
ATOM     13  C   UNL A   1     -24.385  -0.426  27.725  0.00  0.00    +0.063 C 
ATOM     14  F   UNL A   1     -23.913   1.515  26.487  0.00  0.00    -0.213 F 
ENDBRANCH   1  10
BRANCH   3  15
ATOM     15  C   UNL A   1     -26.998  -1.701  30.048  0.00  0.00    +0.265 C 
ATOM     16  O   UNL A   1     -27.746  -1.104  29.382  0.00  0.00    -0.268 OA
ATOM     17  N   UNL A   1     -26.933  -1.403  31.428  0.00  0.00    -0.200 NA
ATOM     18  C   UNL A   1     -27.731  -0.411  32.097  0.00  0.00    +0.139 C 
ENDBRANCH   3  15
TORSDOF 2
ENDMDL
ENDMDL
