MODEL 4992
MODEL 1
REMARK VINA RESULT:    -3.493      0.000      0.000
REMARK INTER + INTRA:          -3.493
REMARK INTER:                  -3.493
REMARK INTRA:                   0.000
REMARK UNBOUND:                 0.000
REMARK  Name = No_4992-gen_results/8p0m/2024-11-26-14-13-15/
REMARK  0 active torsions:
REMARK  status: ('A' for Active; 'I' for Inactive)
REMARK                            x       y       z     vdW  Elec       q    Type
REMARK                         _______ _______ _______ _____ _____    ______ ____
ROOT
ATOM      1  F   UNL A   1      -7.737 -10.587  19.668  0.00  0.00    -0.140 F 
ATOM      2  C   UNL A   1      -7.812  -9.712  20.403  0.00  0.00    +0.561 C 
ATOM      3  F   UNL A   1      -7.367 -10.135  21.391  0.00  0.00    -0.140 F 
ATOM      4  F   UNL A   1      -7.123  -8.624  20.018  0.00  0.00    -0.140 F 
ATOM      5  F   UNL A   1      -9.112  -9.381  20.578  0.00  0.00    -0.140 F 
ENDROOT
TORSDOF 0
ENDMDL
ENDMDL
