MODEL 4993
MODEL 1
REMARK VINA RESULT:    -5.476      0.000      0.000
REMARK INTER + INTRA:          -5.840
REMARK INTER:                  -5.796
REMARK INTRA:                  -0.043
REMARK UNBOUND:                -0.043
REMARK  Name = No_4993-gen_results/8p0m/2024-11-26-14-13-15/
REMARK  1 active torsions:
REMARK  status: ('A' for Active; 'I' for Inactive)
REMARK    1  A    between atoms: C_2  and  C_5
REMARK                            x       y       z     vdW  Elec       q    Type
REMARK                         _______ _______ _______ _____ _____    ______ ____
ROOT
ATOM      1  C   UNL A   1     -10.346  -9.390  19.192  0.00  0.00    +0.007 A 
ATOM      2  C   UNL A   1      -9.792  -9.955  18.496  0.00  0.00    +0.080 A 
ATOM      3  C   UNL A   1      -9.573  -9.005  20.380  0.00  0.00    +0.000 A 
ATOM      4  C   UNL A   1      -8.353  -9.485  20.628  0.00  0.00    +0.000 A 
ATOM      5  C   UNL A   1      -7.778 -10.260  19.667  0.00  0.00    +0.000 A 
ATOM      6  C   UNL A   1      -8.497 -10.527  18.556  0.00  0.00    +0.007 A 
ENDROOT
BRANCH   2   7
ATOM      7  C   UNL A   1     -10.488 -10.410  17.141  0.00  0.00    +0.388 C 
ATOM      8  O   UNL A   1     -11.484 -10.506  16.938  0.00  0.00    -0.241 OA
ATOM      9  O   UNL A   1      -9.597 -10.962  16.259  0.00  0.00    -0.241 OA
ENDBRANCH   2   7
TORSDOF 1
ENDMDL
ENDMDL
