REMARK  Name = No_4994-gen_results/8p0m/2024-11-26-14-13-15/
REMARK  2 active torsions:
REMARK  status: ('A' for Active; 'I' for Inactive)
REMARK    1  A    between atoms: C_2  and  C_3
REMARK    2  A    between atoms: C_2  and  C_4
REMARK                            x       y       z     vdW  Elec       q    Type
REMARK                         _______ _______ _______ _____ _____    ______ ____
ROOT
ATOM      1  F   UNL A   1     -28.073  -1.254  28.532  0.00  0.00    -0.231 F 
ATOM      2  C   UNL A   1     -27.359  -0.379  28.722  0.00  0.00    +0.199 C 
ENDROOT
BRANCH   2   3
ATOM      3  C   UNL A   1     -26.332  -0.644  29.452  0.00  0.00    +0.135 C 
ATOM      4 CL   UNL A   1     -24.901  -0.181  29.394  0.00  0.00    -0.110 Cl
ENDBRANCH   2   3
BRANCH   2   5
ATOM      5  C   UNL A   1     -26.974   0.286  27.419  0.00  0.00    +0.010 C 
ATOM      6  C   UNL A   1     -25.730   0.642  27.232  0.00  0.00    -0.002 C 
ENDBRANCH   2   5
TORSDOF 2
