MODEL 4994
MODEL 1
REMARK VINA RESULT:    -3.761      0.000      0.000
REMARK INTER + INTRA:          -4.272
REMARK INTER:                  -4.201
REMARK INTRA:                  -0.071
REMARK UNBOUND:                -0.071
REMARK  Name = No_4994-gen_results/8p0m/2024-11-26-14-13-15/
REMARK  2 active torsions:
REMARK  status: ('A' for Active; 'I' for Inactive)
REMARK    1  A    between atoms: C_2  and  C_3
REMARK    2  A    between atoms: C_2  and  C_4
REMARK                            x       y       z     vdW  Elec       q    Type
REMARK                         _______ _______ _______ _____ _____    ______ ____
ROOT
ATOM      1  F   UNL A   1     -10.392  -8.794  20.214  0.00  0.00    -0.231 F 
ATOM      2  C   UNL A   1      -9.704  -9.500  19.632  0.00  0.00    +0.199 C 
ENDROOT
BRANCH   2   3
ATOM      3  C   UNL A   1     -10.037  -9.722  18.408  0.00  0.00    +0.135 C 
ATOM      4 CL   UNL A   1      -9.371 -10.493  17.300  0.00  0.00    -0.110 Cl
ENDBRANCH   2   3
BRANCH   2   5
ATOM      5  C   UNL A   1      -8.262  -9.063  19.758  0.00  0.00    +0.010 C 
ATOM      6  C   UNL A   1      -7.434  -9.800  20.451  0.00  0.00    -0.002 C 
ENDBRANCH   2   5
TORSDOF 2
ENDMDL
ENDMDL
