REMARK  Name = No_4995-gen_results/8p0m/2024-11-26-14-13-15/
REMARK  7 active torsions:
REMARK  status: ('A' for Active; 'I' for Inactive)
REMARK    1  A    between atoms: C_2  and  C_13
REMARK    2  A    between atoms: C_6  and  O_7
REMARK    3  A    between atoms: O_7  and  C_8
REMARK    4  A    between atoms: C_8  and  C_9
REMARK    5  A    between atoms: C_18  and  C_19
REMARK    6  A    between atoms: C_19  and  C_20
REMARK    7  A    between atoms: C_20  and  C_21
REMARK                            x       y       z     vdW  Elec       q    Type
REMARK                         _______ _______ _______ _____ _____    ______ ____
ROOT
ATOM      1  C   UNL A   1     -27.250   1.056  27.637  0.00  0.00    -0.000 A 
ATOM      2  C   UNL A   1     -26.822   2.022  27.474  0.00  0.00    -0.000 A 
ATOM      3  C   UNL A   1     -27.021   3.016  26.401  0.00  0.00    -0.000 A 
ATOM      4  C   UNL A   1     -27.878   2.640  25.373  0.00  0.00    -0.004 A 
ATOM      5  C   UNL A   1     -28.186   0.658  26.455  0.00  0.00    -0.004 A 
ATOM      6  C   UNL A   1     -28.398   1.459  25.450  0.00  0.00    -0.015 A 
ENDROOT
BRANCH   1   8
ATOM      7  C   UNL A   1     -28.016  -0.814  28.878  0.00  0.00    +0.037 A 
ATOM      8  C   UNL A   1     -27.064  -0.119  28.608  0.00  0.00    +0.003 A 
ATOM      9  C   UNL A   1     -25.792  -0.430  29.076  0.00  0.00    +0.000 A 
ATOM     10  C   UNL A   1     -25.568  -1.241  29.757  0.00  0.00    +0.003 A 
ATOM     11  C   UNL A   1     -26.611  -2.184  30.244  0.00  0.00    +0.037 A 
ATOM     12  C   UNL A   1     -27.819  -1.919  29.803  0.00  0.00    +0.139 A 
BRANCH  12  13
ATOM     13  O   UNL A   1     -28.853  -2.719  30.211  0.00  0.00    -0.466 OA
BRANCH  13  14
ATOM     14  C   UNL A   1     -29.175  -2.848  31.523  0.00  0.00    +0.291 C 
BRANCH  14  15
ATOM     15  C   UNL A   1     -29.810  -4.112  31.784  0.00  0.00    +0.286 C 
ATOM     16  O   UNL A   1     -29.640  -5.014  31.136  0.00  0.00    -0.269 OA
ATOM     17  N   UNL A   1     -30.530  -4.288  32.929  0.00  0.00    -0.200 NA
ATOM     18  C   UNL A   1     -31.178  -5.524  33.263  0.00  0.00    +0.139 C 
ENDBRANCH  14  15
ENDBRANCH  13  14
ENDBRANCH  12  13
ENDBRANCH   1   8
BRANCH   6  19
ATOM     19  C   UNL A   1     -29.302   1.071  24.339  0.00  0.00    +0.084 C 
ATOM     20  C   UNL A   1     -29.158  -0.210  23.742  0.00  0.00    +0.013 C 
BRANCH  19  21
ATOM     21  C   UNL A   1     -30.408   1.806  24.104  0.00  0.00    +0.177 C 
ATOM     22  O   UNL A   1     -30.121   2.730  23.136  0.00  0.00    -0.291 OA
BRANCH  21  23
ATOM     23  C   UNL A   1     -31.531   1.725  24.725  0.00  0.00    +0.035 A 
ATOM     24  C   UNL A   1     -31.788   0.846  25.545  0.00  0.00    +0.003 A 
ATOM     25  C   UNL A   1     -32.836   0.824  26.429  0.00  0.00    +0.000 A 
ATOM     26  C   UNL A   1     -33.806   1.840  26.271  0.00  0.00    +0.000 A 
ATOM     27  C   UNL A   1     -33.653   2.835  25.368  0.00  0.00    +0.000 A 
ATOM     28  C   UNL A   1     -32.482   2.927  24.600  0.00  0.00    +0.003 A 
ENDBRANCH  21  23
ENDBRANCH  19  21
ENDBRANCH   6  19
TORSDOF 7
