MODEL 4996
MODEL 1
REMARK VINA RESULT:    -4.913      0.000      0.000
REMARK INTER + INTRA:          -5.272
REMARK INTER:                  -5.201
REMARK INTRA:                  -0.072
REMARK UNBOUND:                -0.072
REMARK  Name = No_4996-gen_results/8p0m/2024-11-26-14-13-15/
REMARK  1 active torsions:
REMARK  status: ('A' for Active; 'I' for Inactive)
REMARK    1  A    between atoms: C_2  and  C_7
REMARK                            x       y       z     vdW  Elec       q    Type
REMARK                         _______ _______ _______ _____ _____    ______ ____
ROOT
ATOM      1  C   UNL A   1     -23.924  -3.376  28.700  0.00  0.00    -0.000 A 
ATOM      2  C   UNL A   1     -24.775  -2.650  29.159  0.00  0.00    -0.000 A 
ATOM      3  C   UNL A   1     -25.950  -3.168  29.692  0.00  0.00    -0.000 A 
ATOM      4  C   UNL A   1     -26.210  -4.585  29.673  0.00  0.00    -0.000 A 
ATOM      5  C   UNL A   1     -25.184  -5.349  29.103  0.00  0.00    -0.000 A 
ATOM      6  C   UNL A   1     -24.099  -4.809  28.597  0.00  0.00    -0.000 A 
ENDROOT
BRANCH   2   7
ATOM      7  C   UNL A   1     -24.687  -1.167  29.236  0.00  0.00    -0.005 C 
ATOM      8  C   UNL A   1     -23.909  -0.549  30.053  0.00  0.00    -0.026 C 
ATOM      9  C   UNL A   1     -23.589  -1.234  31.377  0.00  0.00    +0.031 C 
ENDBRANCH   2   7
TORSDOF 1
ENDMDL
ENDMDL
