MODEL 4997
MODEL 1
REMARK VINA RESULT:    -3.674      0.000      0.000
REMARK INTER + INTRA:          -4.220
REMARK INTER:                  -4.103
REMARK INTRA:                  -0.116
REMARK UNBOUND:                -0.116
REMARK  Name = No_4997-gen_results/8p0m/2024-11-26-14-13-15/
REMARK  2 active torsions:
REMARK  status: ('A' for Active; 'I' for Inactive)
REMARK    1  A    between atoms: C_2  and  C_3
REMARK    2  A    between atoms: C_4  and  C_5
REMARK                            x       y       z     vdW  Elec       q    Type
REMARK                         _______ _______ _______ _____ _____    ______ ____
ROOT
ATOM      1  C   UNL A   1     -25.111  -3.305  29.148  0.00  0.00    -0.009 C 
ATOM      2  C   UNL A   1     -24.735  -2.161  29.260  0.00  0.00    -0.002 C 
ENDROOT
BRANCH   2   3
ATOM      3  C   UNL A   1     -23.295  -1.865  29.058  0.00  0.00    +0.012 C 
ATOM      4  C   UNL A   1     -22.898  -0.664  29.052  0.00  0.00    +0.068 C 
ATOM      5 CL   UNL A   1     -21.208  -0.382  28.829  0.00  0.00    -0.081 Cl
ENDBRANCH   2   3
BRANCH   1   7
ATOM      6 CL   UNL A   1     -24.764  -5.619  28.807  0.00  0.00    -0.108 Cl
ATOM      7  C   UNL A   1     -24.301  -4.338  28.790  0.00  0.00    +0.121 C 
ENDBRANCH   1   7
TORSDOF 2
ENDMDL
ENDMDL
