REMARK  Name = No_4997-gen_results/8p0m/2024-11-26-14-13-15/
REMARK  2 active torsions:
REMARK  status: ('A' for Active; 'I' for Inactive)
REMARK    1  A    between atoms: C_2  and  C_3
REMARK    2  A    between atoms: C_4  and  C_5
REMARK                            x       y       z     vdW  Elec       q    Type
REMARK                         _______ _______ _______ _____ _____    ______ ____
ROOT
ATOM      1  C   UNL A   1     -27.602   1.013  30.297  0.00  0.00    -0.009 C 
ATOM      2  C   UNL A   1     -27.582   0.354  31.311  0.00  0.00    -0.002 C 
ENDROOT
BRANCH   2   3
ATOM      3  C   UNL A   1     -27.890  -1.095  31.220  0.00  0.00    +0.012 C 
ATOM      4  C   UNL A   1     -28.118  -1.616  30.090  0.00  0.00    +0.068 C 
ATOM      5 CL   UNL A   1     -28.454  -3.310  30.044  0.00  0.00    -0.081 Cl
ENDBRANCH   2   3
BRANCH   1   7
ATOM      6 CL   UNL A   1     -28.149  -0.820  28.908  0.00  0.00    -0.108 Cl
ATOM      7  C   UNL A   1     -27.834   0.496  29.060  0.00  0.00    +0.121 C 
ENDBRANCH   1   7
TORSDOF 2
