MODEL 4999
MODEL 1
REMARK VINA RESULT:    -4.521      0.000      0.000
REMARK INTER + INTRA:          -5.178
REMARK INTER:                  -5.049
REMARK INTRA:                  -0.128
REMARK UNBOUND:                -0.128
REMARK  Name = No_4999-gen_results/8p0m/2024-11-26-14-13-15/
REMARK  2 active torsions:
REMARK  status: ('A' for Active; 'I' for Inactive)
REMARK    1  A    between atoms: C_2  and  C_4
REMARK    2  A    between atoms: C_5  and  C_6
REMARK                            x       y       z     vdW  Elec       q    Type
REMARK                         _______ _______ _______ _____ _____    ______ ____
ROOT
ATOM      1  C   UNL A   1      -8.220  -9.814  20.488  0.00  0.00    +0.025 C 
ATOM      2  C   UNL A   1      -8.574  -9.419  19.383  0.00  0.00    -0.001 C 
ENDROOT
BRANCH   1   4
ATOM      3 CL   UNL A   1      -6.419 -10.436  22.231  0.00  0.00    -0.072 Cl
ATOM      4  C   UNL A   1      -6.877  -9.785  21.029  0.00  0.00    +0.262 C 
ATOM      5  F   UNL A   1      -6.109  -9.056  20.580  0.00  0.00    -0.214 F 
ENDBRANCH   1   4
BRANCH   2   6
ATOM      6  C   UNL A   1     -10.006  -9.424  18.966  0.00  0.00    -0.005 C 
ATOM      7  C   UNL A   1     -10.275 -10.078  17.737  0.00  0.00    -0.026 C 
ATOM      8  C   UNL A   1      -9.280 -10.655  16.988  0.00  0.00    +0.031 C 
ENDBRANCH   2   6
TORSDOF 2
ENDMDL
ENDMDL
