MODEL 499
MODEL 1
REMARK VINA RESULT:    -6.679      0.000      0.000
REMARK INTER + INTRA:          -7.873
REMARK INTER:                  -7.460
REMARK INTRA:                  -0.413
REMARK UNBOUND:                -0.413
REMARK  Name = No_499-gen_results/8p0m/2024-11-26-14-13-15/
REMARK  2 active torsions:
REMARK  status: ('A' for Active; 'I' for Inactive)
REMARK    1  A    between atoms: C_3  and  C_7
REMARK    2  A    between atoms: C_6  and  C_13
REMARK                            x       y       z     vdW  Elec       q    Type
REMARK                         _______ _______ _______ _____ _____    ______ ____
ROOT
ATOM      1  C   UNL A   1     -29.119 -10.375  32.492  0.00  0.00    +0.007 A 
ATOM      2  C   UNL A   1     -29.567 -10.290  31.372  0.00  0.00    +0.000 A 
ATOM      3  C   UNL A   1     -29.247 -11.174  30.343  0.00  0.00    +0.000 A 
ATOM      4  C   UNL A   1     -28.281 -12.227  30.592  0.00  0.00    +0.000 A 
ATOM      5  C   UNL A   1     -27.775 -12.277  31.891  0.00  0.00    +0.007 A 
ATOM      6  C   UNL A   1     -28.126 -11.391  32.802  0.00  0.00    +0.080 A 
ENDROOT
BRANCH   3   7
ATOM      7  C   UNL A   1     -29.759 -11.142  28.936  0.00  0.00    +0.000 A 
ATOM      8  C   UNL A   1     -30.548 -10.205  28.447  0.00  0.00    +0.000 A 
ATOM      9  C   UNL A   1     -30.956 -10.208  27.083  0.00  0.00    +0.000 A 
ATOM     10  C   UNL A   1     -30.212 -11.009  26.171  0.00  0.00    +0.000 A 
ATOM     11  C   UNL A   1     -29.108 -11.948  27.911  0.00  0.00    +0.000 A 
ATOM     12  C   UNL A   1     -29.381 -11.890  26.623  0.00  0.00    +0.000 A 
ENDBRANCH   3   7
BRANCH   6  13
ATOM     13  C   UNL A   1     -27.490 -11.461  34.144  0.00  0.00    +0.388 C 
ATOM     14  O   UNL A   1     -27.549 -12.505  34.823  0.00  0.00    -0.241 OA
ATOM     15  O   UNL A   1     -26.811 -10.497  34.603  0.00  0.00    -0.241 OA
ENDBRANCH   6  13
TORSDOF 2
ENDMDL
ENDMDL
