MODEL 49
MODEL 1
REMARK VINA RESULT:    -7.743      0.000      0.000
REMARK INTER + INTRA:         -11.673
REMARK INTER:                 -10.006
REMARK INTRA:                  -1.667
REMARK UNBOUND:                -1.667
REMARK  Name = No_49-gen_results/8p0m/2024-11-26-14-13-15/
REMARK  5 active torsions:
REMARK  status: ('A' for Active; 'I' for Inactive)
REMARK    1  A    between atoms: C_5  and  C_11
REMARK    2  A    between atoms: C_17  and  C_18
REMARK    3  A    between atoms: C_26  and  C_28
REMARK    4  A    between atoms: C_28  and  C_29
REMARK    5  A    between atoms: C_28  and  C_34
REMARK                            x       y       z     vdW  Elec       q    Type
REMARK                         _______ _______ _______ _____ _____    ______ ____
ROOT
ATOM      1  C   UNL A   1     -26.172   1.418  27.855  0.00  0.00    -0.017 A 
ATOM      2  C   UNL A   1     -26.909   0.581  28.675  0.00  0.00    -0.004 A 
ATOM      3  C   UNL A   1     -24.797   1.390  27.764  0.00  0.00    -0.004 A 
ATOM      4  C   UNL A   1     -23.982   2.000  27.110  0.00  0.00    -0.000 A 
ATOM      5  C   UNL A   1     -22.631   1.936  27.135  0.00  0.00    -0.000 A 
ATOM      6  C   UNL A   1     -22.100   0.974  27.957  0.00  0.00    -0.000 A 
ATOM      7  C   UNL A   1     -22.861   0.097  28.678  0.00  0.00    -0.000 A 
ATOM      8  C   UNL A   1     -24.235   0.261  28.653  0.00  0.00    -0.004 A 
ATOM      9  C   UNL A   1     -25.089  -0.590  29.408  0.00  0.00    -0.015 A 
ATOM     10  C   UNL A   1     -26.434  -0.440  29.470  0.00  0.00    -0.004 A 
ENDROOT
BRANCH   1  24
ATOM     11  C   UNL A   1     -28.465   3.971  25.465  0.00  0.00    +0.099 C 
ATOM     12  C   UNL A   1     -27.948   4.350  26.491  0.00  0.00    -0.010 A 
ATOM     13  C   UNL A   1     -27.617   3.531  27.521  0.00  0.00    -0.020 A 
ATOM     14  C   UNL A   1     -26.983   3.978  28.781  0.00  0.00    +0.000 A 
ATOM     15  C   UNL A   1     -26.685   5.376  28.896  0.00  0.00    +0.056 A 
ATOM     16  C   UNL A   1     -26.978   6.183  27.774  0.00  0.00    +0.004 A 
ATOM     17  C   UNL A   1     -27.568   5.697  26.636  0.00  0.00    -0.003 A 
ATOM     18  N   UNL A   1     -28.189   2.705  24.959  0.00  0.00    -0.270 NA
ATOM     19  C   UNL A   1     -28.713   2.148  23.803  0.00  0.00    +0.072 C 
ATOM     20  C   UNL A   1     -28.334   0.848  23.450  0.00  0.00    +0.017 C 
ATOM     21  C   UNL A   1     -27.697   0.340  24.042  0.00  0.00    +0.003 C 
ATOM     22  C   UNL A   1     -26.954   0.649  25.248  0.00  0.00    +0.017 C 
ATOM     23  C   UNL A   1     -27.259   1.927  25.681  0.00  0.00    +0.066 C 
ATOM     24  C   UNL A   1     -26.935   2.379  26.997  0.00  0.00    +0.059 C 
BRANCH  15  25
ATOM     25  C   UNL A   1     -26.067   5.917  30.060  0.00  0.00    +0.284 C 
ATOM     26  N   UNL A   1     -25.040   6.672  30.097  0.00  0.00    -0.084 NA
ATOM     27  O   UNL A   1     -26.878   6.078  31.084  0.00  0.00    -0.267 OA
ENDBRANCH  15  25
ENDBRANCH   1  24
BRANCH   9  28
ATOM     28  C   UNL A   1     -24.462  -1.723  30.224  0.00  0.00    +0.093 C 
BRANCH  28  29
ATOM     29  C   UNL A   1     -24.415  -2.938  29.636  0.00  0.00    +0.054 C 
ATOM     30  C   UNL A   1     -23.688  -3.433  28.939  0.00  0.00    +0.067 C 
ATOM     31  N   UNL A   1     -23.928  -4.740  28.515  0.00  0.00    -0.274 NA
ATOM     32  C   UNL A   1     -25.635  -3.858  29.846  0.00  0.00    +0.033 C 
ATOM     33  C   UNL A   1     -25.229  -4.915  29.007  0.00  0.00    +0.126 C 
ENDBRANCH  28  29
BRANCH  28  34
ATOM     34  C   UNL A   1     -24.023  -1.294  31.605  0.00  0.00    +0.212 C 
ATOM     35  O   UNL A   1     -22.870  -1.111  31.893  0.00  0.00    -0.288 OA
ENDBRANCH  28  34
ENDBRANCH   9  28
TORSDOF 5
ENDMDL
ENDMDL
