MODEL 4
MODEL 1
REMARK VINA RESULT:    -6.246      0.000      0.000
REMARK INTER + INTRA:          -6.759
REMARK INTER:                  -6.611
REMARK INTRA:                  -0.148
REMARK UNBOUND:                -0.148
REMARK  Name = No_4-gen_results/8p0m/2024-11-26-14-13-15/
REMARK  1 active torsions:
REMARK  status: ('A' for Active; 'I' for Inactive)
REMARK    1  A    between atoms: C_3  and  C_5
REMARK                            x       y       z     vdW  Elec       q    Type
REMARK                         _______ _______ _______ _____ _____    ______ ____
ROOT
ATOM      1  O   UNL A   1     -22.844  -1.154  31.396  0.00  0.00    -0.273 OA
ATOM      2  C   UNL A   1     -23.427  -0.793  30.367  0.00  0.00    +0.245 C 
ATOM      3  C   UNL A   1     -23.864  -1.185  29.509  0.00  0.00    +0.100 C 
ATOM      4  N   UNL A   1     -23.246   0.804  30.200  0.00  0.00    -0.205 NA
ATOM      5  C   UNL A   1     -23.246   1.313  29.138  0.00  0.00    +0.115 C 
ATOM      6  C   UNL A   1     -23.821   0.806  28.011  0.00  0.00    +0.024 C 
ATOM      7  C   UNL A   1     -24.131  -0.469  28.065  0.00  0.00    +0.015 C 
ENDROOT
BRANCH   3   8
ATOM      8  C   UNL A   1     -24.299  -2.558  29.413  0.00  0.00    -0.018 A 
ATOM      9  C   UNL A   1     -23.775  -3.385  29.005  0.00  0.00    -0.004 A 
ATOM     10  C   UNL A   1     -24.359  -4.794  28.810  0.00  0.00    -0.000 A 
ATOM     11  C   UNL A   1     -25.648  -4.990  29.295  0.00  0.00    -0.000 A 
ATOM     12  C   UNL A   1     -26.365  -3.948  29.858  0.00  0.00    -0.005 A 
ATOM     13  C   UNL A   1     -25.778  -2.735  30.007  0.00  0.00    -0.025 A 
ATOM     14  C   UNL A   1     -26.459  -1.720  30.699  0.00  0.00    +0.031 C 
ENDBRANCH   3   8
TORSDOF 1
ENDMDL
ENDMDL
