REMARK  Name = No_5-gen_results/8p0m/2024-11-26-14-13-15/
REMARK  2 active torsions:
REMARK  status: ('A' for Active; 'I' for Inactive)
REMARK    1  A    between atoms: C_3  and  C_4
REMARK    2  A    between atoms: C_6  and  C_7
REMARK                            x       y       z     vdW  Elec       q    Type
REMARK                         _______ _______ _______ _____ _____    ______ ____
ROOT
ATOM      1  C   UNL A   1     -28.016  -0.814  28.878  0.00  0.00    +0.032 C 
ATOM      2  C   UNL A   1     -28.469  -0.785  29.829  0.00  0.00    -0.007 A 
ATOM      3  C   UNL A   1     -27.087   0.290  28.638  0.00  0.00    +0.027 C 
ATOM      4  C   UNL A   1     -29.607  -1.627  30.134  0.00  0.00    +0.094 A 
ATOM      5  C   UNL A   1     -27.899  -0.161  31.108  0.00  0.00    -0.023 A 
ATOM      6  C   UNL A   1     -28.449  -0.374  32.460  0.00  0.00    +0.016 A 
ATOM      7  N   UNL A   1     -30.100  -1.931  31.432  0.00  0.00    -0.243 NA
ATOM      8  C   UNL A   1     -29.582  -1.216  32.539  0.00  0.00    +0.099 A 
ATOM      9  C   UNL A   1     -26.275   0.654  29.796  0.00  0.00    +0.009 C 
ATOM     10  C   UNL A   1     -26.777   0.567  30.964  0.00  0.00    +0.026 C 
ENDROOT
BRANCH   3  11
ATOM     11  C   UNL A   1     -26.910   0.849  27.420  0.00  0.00    -0.026 C 
ATOM     12  C   UNL A   1     -27.642   1.143  26.673  0.00  0.00    -0.004 C 
BRANCH  12  13
ATOM     13  C   UNL A   1     -29.020   1.085  26.932  0.00  0.00    +0.010 A 
ATOM     14  C   UNL A   1     -30.075   1.461  25.994  0.00  0.00    +0.001 A 
ATOM     15  C   UNL A   1     -31.392   1.372  26.272  0.00  0.00    +0.000 A 
ATOM     16  C   UNL A   1     -31.767   0.798  27.497  0.00  0.00    +0.001 A 
ATOM     17  C   UNL A   1     -30.818   0.462  28.443  0.00  0.00    +0.011 A 
ATOM     18  C   UNL A   1     -29.520   0.605  28.176  0.00  0.00    +0.058 A 
ATOM     19 CL   UNL A   1     -29.794   2.169  29.017  0.00  0.00    -0.082 Cl
ENDBRANCH  12  13
ENDBRANCH   3  11
TORSDOF 2
