MODEL 500
MODEL 1
REMARK VINA RESULT:    -5.353      0.000      0.000
REMARK INTER + INTRA:          -5.733
REMARK INTER:                  -5.666
REMARK INTRA:                  -0.067
REMARK UNBOUND:                -0.067
REMARK  Name = No_500-gen_results/8p0m/2024-11-26-14-13-15/
REMARK  1 active torsions:
REMARK  status: ('A' for Active; 'I' for Inactive)
REMARK    1  A    between atoms: C_2  and  C_7
REMARK                            x       y       z     vdW  Elec       q    Type
REMARK                         _______ _______ _______ _____ _____    ______ ____
ROOT
ATOM      1  C   UNL A   1     -23.819  -3.772  28.669  0.00  0.00    +0.005 A 
ATOM      2  C   UNL A   1     -24.355  -2.933  29.015  0.00  0.00    +0.055 A 
ATOM      3  C   UNL A   1     -24.495  -5.075  28.774  0.00  0.00    +0.000 A 
ATOM      4  C   UNL A   1     -25.597  -5.168  29.301  0.00  0.00    +0.000 A 
ATOM      5  C   UNL A   1     -25.715  -2.784  29.565  0.00  0.00    +0.005 A 
ATOM      6  C   UNL A   1     -26.322  -3.991  29.724  0.00  0.00    +0.000 A 
ENDROOT
BRANCH   2   7
ATOM      7  C   UNL A   1     -23.711  -1.469  28.862  0.00  0.00    +0.265 C 
ATOM      8  O   UNL A   1     -24.291  -0.583  28.762  0.00  0.00    -0.268 OA
ATOM      9  N   UNL A   1     -22.268  -1.390  28.992  0.00  0.00    -0.200 NA
ATOM     10  C   UNL A   1     -21.670  -0.096  28.969  0.00  0.00    +0.139 C 
ENDBRANCH   2   7
TORSDOF 1
ENDMDL
ENDMDL
