REMARK  Name = No_501-gen_results/8p0m/2024-11-26-14-13-15/
REMARK  7 active torsions:
REMARK  status: ('A' for Active; 'I' for Inactive)
REMARK    1  A    between atoms: C_3  and  C_11
REMARK    2  A    between atoms: C_5  and  C_17
REMARK    3  A    between atoms: C_6  and  C_15
REMARK    4  A    between atoms: C_8  and  C_27
REMARK    5  A    between atoms: N_13  and  C_14
REMARK    6  A    between atoms: C_14  and  C_20
REMARK    7  A    between atoms: C_20  and  C_21
REMARK                            x       y       z     vdW  Elec       q    Type
REMARK                         _______ _______ _______ _____ _____    ______ ____
ROOT
ATOM      1  C   UNL A   1     -28.016  -0.814  28.878  0.00  0.00    +0.005 A 
ATOM      2  C   UNL A   1     -27.064  -0.119  28.608  0.00  0.00    +0.004 A 
ATOM      3  C   UNL A   1     -27.001   0.691  27.491  0.00  0.00    +0.055 A 
ATOM      4  C   UNL A   1     -25.855   1.482  27.083  0.00  0.00    +0.011 A 
ATOM      5  C   UNL A   1     -24.690   1.453  27.881  0.00  0.00    +0.076 A 
ATOM      6  C   UNL A   1     -24.738   0.601  29.042  0.00  0.00    -0.016 A 
ATOM      7  C   UNL A   1     -25.823  -0.169  29.389  0.00  0.00    -0.004 A 
ATOM      8  C   UNL A   1     -28.035  -1.496  30.234  0.00  0.00    +0.054 A 
ATOM      9  C   UNL A   1     -26.842  -1.734  30.904  0.00  0.00    +0.004 A 
ATOM     10  C   UNL A   1     -25.746  -0.966  30.571  0.00  0.00    -0.000 A 
ENDROOT
BRANCH   8  11
ATOM     11  C   UNL A   1     -29.221  -2.331  30.590  0.00  0.00    +0.249 C 
ATOM     12  O   UNL A   1     -29.189  -3.459  30.777  0.00  0.00    -0.270 OA
ATOM     13  N   UNL A   1     -30.423  -1.673  30.629  0.00  0.00    -0.276 N 
ATOM     14  C   UNL A   1     -30.678  -0.294  30.441  0.00  0.00    +0.094 C 
ATOM     15  C   UNL A   1     -32.081  -0.018  30.216  0.00  0.00    +0.022 C 
ATOM     16  C   UNL A   1     -32.765  -0.483  29.570  0.00  0.00    +0.004 C 
ATOM     17  C   UNL A   1     -32.503  -1.948  29.280  0.00  0.00    +0.022 C 
ATOM     18  C   UNL A   1     -31.435  -2.440  29.866  0.00  0.00    +0.094 C 
ENDBRANCH   8  11
BRANCH   3  19
ATOM     19  C   UNL A   1     -28.094   0.787  26.503  0.00  0.00    +0.265 C 
ATOM     20  O   UNL A   1     -29.042   0.408  26.629  0.00  0.00    -0.268 OA
ATOM     21  N   UNL A   1     -27.881   1.703  25.478  0.00  0.00    -0.201 NA
BRANCH  21  22
ATOM     22  C   UNL A   1     -28.876   1.879  24.410  0.00  0.00    +0.120 C 
BRANCH  22  23
ATOM     23  C   UNL A   1     -29.293   3.104  24.357  0.00  0.00    +0.050 C 
BRANCH  23  24
ATOM     24  C   UNL A   1     -30.374   3.488  25.133  0.00  0.00    -0.020 A 
ATOM     25  C   UNL A   1     -30.963   4.672  25.085  0.00  0.00    -0.004 A 
ATOM     26  C   UNL A   1     -31.956   5.141  26.021  0.00  0.00    -0.000 A 
ATOM     27  C   UNL A   1     -32.351   4.199  27.003  0.00  0.00    -0.000 A 
ATOM     28  C   UNL A   1     -31.737   2.980  27.092  0.00  0.00    -0.000 A 
ATOM     29  C   UNL A   1     -30.762   2.645  26.260  0.00  0.00    -0.004 A 
ENDBRANCH  23  24
ENDBRANCH  22  23
ENDBRANCH  21  22
ENDBRANCH   3  19
BRANCH   6  30
ATOM     30  C   UNL A   1     -23.426   0.592  29.858  0.00  0.00    +0.023 C 
ATOM     31  C   UNL A   1     -22.342  -0.211  29.412  0.00  0.00    +0.005 C 
ATOM     32  C   UNL A   1     -23.431   1.259  31.099  0.00  0.00    +0.005 C 
ENDBRANCH   6  30
BRANCH   5  33
ATOM     33  C   UNL A   1     -23.519   2.264  27.522  0.00  0.00    +0.387 C 
ATOM     34  O   UNL A   1     -22.784   2.720  28.344  0.00  0.00    -0.241 OA
ATOM     35  O   UNL A   1     -23.318   2.632  26.281  0.00  0.00    -0.241 OA
ENDBRANCH   5  33
TORSDOF 7
