MODEL 501
MODEL 1
REMARK VINA RESULT:    -7.425      0.000      0.000
REMARK INTER + INTRA:         -11.839
REMARK INTER:                 -10.463
REMARK INTRA:                  -1.376
REMARK UNBOUND:                -1.376
REMARK  Name = No_501-gen_results/8p0m/2024-11-26-14-13-15/
REMARK  7 active torsions:
REMARK  status: ('A' for Active; 'I' for Inactive)
REMARK    1  A    between atoms: C_3  and  C_11
REMARK    2  A    between atoms: C_5  and  C_17
REMARK    3  A    between atoms: C_6  and  C_15
REMARK    4  A    between atoms: C_8  and  C_27
REMARK    5  A    between atoms: N_13  and  C_14
REMARK    6  A    between atoms: C_14  and  C_20
REMARK    7  A    between atoms: C_20  and  C_21
REMARK                            x       y       z     vdW  Elec       q    Type
REMARK                         _______ _______ _______ _____ _____    ______ ____
ROOT
ATOM      1  C   UNL A   1     -26.750 -13.245   6.768  0.00  0.00    +0.005 A 
ATOM      2  C   UNL A   1     -25.800 -13.871   6.358  0.00  0.00    +0.004 A 
ATOM      3  C   UNL A   1     -25.539 -15.181   6.709  0.00  0.00    +0.055 A 
ATOM      4  C   UNL A   1     -24.375 -15.949   6.307  0.00  0.00    +0.011 A 
ATOM      5  C   UNL A   1     -23.411 -15.337   5.475  0.00  0.00    +0.076 A 
ATOM      6  C   UNL A   1     -23.665 -13.965   5.114  0.00  0.00    -0.016 A 
ATOM      7  C   UNL A   1     -24.757 -13.246   5.537  0.00  0.00    -0.004 A 
ATOM      8  C   UNL A   1     -27.027 -11.888   6.148  0.00  0.00    +0.054 A 
ATOM      9  C   UNL A   1     -25.997 -11.185   5.536  0.00  0.00    +0.004 A 
ATOM     10  C   UNL A   1     -24.896 -11.894   5.101  0.00  0.00    -0.000 A 
ENDROOT
BRANCH   8  11
ATOM     11  C   UNL A   1     -28.216 -11.120   6.625  0.00  0.00    +0.249 C 
ATOM     12  O   UNL A   1     -29.198 -11.020   6.048  0.00  0.00    -0.270 OA
ATOM     13  N   UNL A   1     -28.059 -10.457   7.814  0.00  0.00    -0.276 N 
ATOM     14  C   UNL A   1     -26.942 -10.458   8.682  0.00  0.00    +0.094 C 
ATOM     15  C   UNL A   1     -26.999  -9.390   9.657  0.00  0.00    +0.022 C 
ATOM     16  C   UNL A   1     -27.208  -8.369   9.528  0.00  0.00    +0.004 C 
ATOM     17  C   UNL A   1     -28.131  -8.028   8.375  0.00  0.00    +0.022 C 
ATOM     18  C   UNL A   1     -28.535  -9.061   7.672  0.00  0.00    +0.094 C 
ENDBRANCH   8  11
BRANCH   3  19
ATOM     19  C   UNL A   1     -26.395 -15.954   7.630  0.00  0.00    +0.265 C 
ATOM     20  O   UNL A   1     -26.179 -16.148   8.617  0.00  0.00    -0.268 OA
ATOM     21  N   UNL A   1     -27.695 -16.168   7.185  0.00  0.00    -0.201 NA
BRANCH  21  22
ATOM     22  C   UNL A   1     -28.646 -16.948   7.991  0.00  0.00    +0.120 C 
BRANCH  22  23
ATOM     23  C   UNL A   1     -29.761 -16.307   8.148  0.00  0.00    +0.050 C 
BRANCH  23  24
ATOM     24  C   UNL A   1     -29.862 -15.353   9.147  0.00  0.00    -0.020 A 
ATOM     25  C   UNL A   1     -29.640 -14.058   8.987  0.00  0.00    -0.004 A 
ATOM     26  C   UNL A   1     -29.554 -13.096  10.059  0.00  0.00    -0.000 A 
ATOM     27  C   UNL A   1     -29.806 -13.612  11.354  0.00  0.00    -0.000 A 
ATOM     28  C   UNL A   1     -30.009 -14.950  11.549  0.00  0.00    -0.000 A 
ATOM     29  C   UNL A   1     -29.981 -15.799  10.532  0.00  0.00    -0.004 A 
ENDBRANCH  23  24
ENDBRANCH  22  23
ENDBRANCH  21  22
ENDBRANCH   3  19
BRANCH   6  30
ATOM     30  C   UNL A   1     -22.563 -13.345   4.226  0.00  0.00    +0.023 C 
ATOM     31  C   UNL A   1     -21.504 -12.626   4.843  0.00  0.00    +0.005 C 
ATOM     32  C   UNL A   1     -22.755 -13.386   2.831  0.00  0.00    +0.005 C 
ENDBRANCH   6  30
BRANCH   5  33
ATOM     33  C   UNL A   1     -22.234 -16.088   5.018  0.00  0.00    +0.387 C 
ATOM     34  O   UNL A   1     -22.180 -16.590   3.937  0.00  0.00    -0.241 OA
ATOM     35  O   UNL A   1     -21.250 -16.351   5.841  0.00  0.00    -0.241 OA
ENDBRANCH   5  33
TORSDOF 7
ENDMDL
ENDMDL
