MODEL 502
MODEL 1
REMARK VINA RESULT:    -5.896      0.000      0.000
REMARK INTER + INTRA:          -6.299
REMARK INTER:                  -6.241
REMARK INTRA:                  -0.058
REMARK UNBOUND:                -0.058
REMARK  Name = No_502-gen_results/8p0m/2024-11-26-14-13-15/
REMARK  1 active torsions:
REMARK  status: ('A' for Active; 'I' for Inactive)
REMARK    1  A    between atoms: C_9  and  C_10
REMARK                            x       y       z     vdW  Elec       q    Type
REMARK                         _______ _______ _______ _____ _____    ______ ____
ROOT
ATOM      1  C   UNL A   1     -21.809   1.508  27.432  0.00  0.00    +0.000 A 
ATOM      2  C   UNL A   1     -22.177   1.991  26.571  0.00  0.00    +0.000 A 
ATOM      3  C   UNL A   1     -22.711   0.723  28.183  0.00  0.00    +0.000 A 
ATOM      4  C   UNL A   1     -24.038   0.590  27.824  0.00  0.00    +0.000 A 
ATOM      5  C   UNL A   1     -24.436   1.254  26.675  0.00  0.00    +0.000 A 
ATOM      6  C   UNL A   1     -23.512   1.979  25.954  0.00  0.00    +0.000 A 
ATOM      7  C   UNL A   1     -22.523  -0.037  29.477  0.00  0.00    +0.000 A 
ATOM      8  C   UNL A   1     -22.710  -1.256  29.563  0.00  0.00    +0.007 A 
ATOM      9  C   UNL A   1     -23.922  -1.787  28.908  0.00  0.00    +0.080 A 
ATOM     10  C   UNL A   1     -24.571  -0.859  27.892  0.00  0.00    +0.007 A 
ENDROOT
BRANCH   9  11
ATOM     11  C   UNL A   1     -24.382  -3.150  29.067  0.00  0.00    +0.388 C 
ATOM     12  O   UNL A   1     -25.350  -3.462  29.702  0.00  0.00    -0.241 OA
ATOM     13  O   UNL A   1     -23.654  -4.112  28.486  0.00  0.00    -0.241 OA
ENDBRANCH   9  11
TORSDOF 1
ENDMDL
ENDMDL
