MODEL 503
MODEL 1
REMARK VINA RESULT:    -7.752      0.000      0.000
REMARK INTER + INTRA:          -9.571
REMARK INTER:                  -9.111
REMARK INTRA:                  -0.459
REMARK UNBOUND:                -0.459
REMARK  Name = No_503-gen_results/8p0m/2024-11-26-14-13-15/
REMARK  3 active torsions:
REMARK  status: ('A' for Active; 'I' for Inactive)
REMARK    1  A    between atoms: C_2  and  O_12
REMARK    2  A    between atoms: O_12  and  C_13
REMARK    3  A    between atoms: C_13  and  C_14
REMARK                            x       y       z     vdW  Elec       q    Type
REMARK                         _______ _______ _______ _____ _____    ______ ____
ROOT
ATOM      1  C   UNL A   1     -25.013  -2.146  29.654  0.00  0.00    +0.038 A 
ATOM      2  C   UNL A   1     -24.235  -2.751  29.282  0.00  0.00    +0.149 A 
ATOM      3  C   UNL A   1     -26.190  -2.907  30.091  0.00  0.00    +0.014 A 
ATOM      4  C   UNL A   1     -27.290  -2.249  30.821  0.00  0.00    +0.058 A 
ATOM      5  C   UNL A   1     -28.519  -2.703  30.836  0.00  0.00    +0.011 A 
ATOM      6  C   UNL A   1     -24.192  -4.128  28.874  0.00  0.00    +0.038 A 
ATOM      7  C   UNL A   1     -25.252  -4.831  29.221  0.00  0.00    +0.003 A 
ATOM      8  C   UNL A   1     -26.299  -4.249  29.899  0.00  0.00    +0.001 A 
ATOM      9  C   UNL A   1     -28.705  -4.151  30.546  0.00  0.00    +0.001 A 
ATOM     10  C   UNL A   1     -27.638  -4.840  29.942  0.00  0.00    +0.000 A 
ATOM     11 CL   UNL A   1     -27.128  -0.582  31.077  0.00  0.00    -0.082 Cl
ENDROOT
BRANCH   2  12
ATOM     12  O   UNL A   1     -22.932  -2.033  28.915  0.00  0.00    -0.421 OA
BRANCH  12  13
ATOM     13  C   UNL A   1     -22.547  -0.940  29.229  0.00  0.00    +0.346 C 
ATOM     14  O   UNL A   1     -22.153  -0.707  30.394  0.00  0.00    -0.244 OA
BRANCH  13  15
ATOM     15  C   UNL A   1     -22.600   0.107  28.347  0.00  0.00    +0.076 A 
ATOM     16  C   UNL A   1     -21.497   0.936  27.956  0.00  0.00    +0.006 A 
ATOM     17  C   UNL A   1     -21.620   1.899  27.004  0.00  0.00    +0.000 A 
ATOM     18  C   UNL A   1     -22.884   2.073  26.361  0.00  0.00    +0.000 A 
ATOM     19  C   UNL A   1     -23.725   0.586  27.516  0.00  0.00    +0.006 A 
ATOM     20  C   UNL A   1     -23.941   1.453  26.692  0.00  0.00    +0.000 A 
ENDBRANCH  13  15
ENDBRANCH  12  13
ENDBRANCH   2  12
TORSDOF 3
ENDMDL
ENDMDL
