REMARK  Name = No_504-gen_results/8p0m/2024-11-26-14-13-15/
REMARK  5 active torsions:
REMARK  status: ('A' for Active; 'I' for Inactive)
REMARK    1  A    between atoms: C_2  and  O_7
REMARK    2  A    between atoms: C_2  and  C_22
REMARK    3  A    between atoms: C_4  and  C_14
REMARK    4  A    between atoms: O_7  and  C_8
REMARK    5  A    between atoms: C_14  and  C_15
REMARK                            x       y       z     vdW  Elec       q    Type
REMARK                         _______ _______ _______ _____ _____    ______ ____
ROOT
ATOM      1  C   UNL A   1     -28.016  -0.814  28.878  0.00  0.00    +0.078 C 
ATOM      2  C   UNL A   1     -28.469  -0.785  29.829  0.00  0.00    +0.169 C 
ATOM      3  C   UNL A   1     -27.087   0.290  28.638  0.00  0.00    +0.165 C 
ATOM      4  C   UNL A   1     -26.024   0.364  29.253  0.00  0.00    +0.037 C 
ATOM      5  C   UNL A   1     -27.537  -0.619  31.088  0.00  0.00    +0.043 C 
ATOM      6  C   UNL A   1     -26.384   0.183  30.801  0.00  0.00    +0.007 C 
ATOM      7  F   UNL A   1     -26.678   0.357  27.238  0.00  0.00    -0.237 F 
ENDROOT
BRANCH   2   8
ATOM      8  C   UNL A   1     -29.328   0.455  30.012  0.00  0.00    +0.218 C 
ATOM      9  C   UNL A   1     -28.972   1.494  29.018  0.00  0.00    +0.198 C 
ATOM     10  C   UNL A   1     -29.152   1.541  31.322  0.00  0.00    +0.043 C 
ATOM     11  F   UNL A   1     -29.575   1.531  29.833  0.00  0.00    -0.229 F 
ATOM     12  C   UNL A   1     -28.944   2.899  28.984  0.00  0.00    +0.140 C 
ATOM     13  C   UNL A   1     -28.570   2.906  31.183  0.00  0.00    +0.005 C 
ATOM     14 CL   UNL A   1     -29.168   3.882  27.672  0.00  0.00    -0.107 Cl
ATOM     15  C   UNL A   1     -28.565   3.602  30.158  0.00  0.00    +0.024 C 
ATOM     16  O   UNL A   1     -28.631   1.114  27.843  0.00  0.00    -0.292 OA
ENDBRANCH   2   8
BRANCH   2  17
ATOM     17  O   UNL A   1     -29.510  -1.619  30.265  0.00  0.00    -0.479 OA
BRANCH  17  18
ATOM     18  C   UNL A   1     -30.460  -1.109  31.070  0.00  0.00    +0.149 A 
ATOM     19  C   UNL A   1     -30.815  -0.105  31.154  0.00  0.00    +0.091 A 
ATOM     20  C   UNL A   1     -31.869   0.399  31.996  0.00  0.00    +0.015 A 
ATOM     21  C   UNL A   1     -32.519  -0.593  32.764  0.00  0.00    +0.001 A 
ATOM     22  C   UNL A   1     -31.084  -2.252  31.947  0.00  0.00    +0.038 A 
ATOM     23  C   UNL A   1     -32.087  -1.877  32.751  0.00  0.00    +0.003 A 
ATOM     24 CL   UNL A   1     -31.214   0.434  29.902  0.00  0.00    -0.079 Cl
ENDBRANCH  17  18
ENDBRANCH   2  17
BRANCH   4  25
ATOM     25  C   UNL A   1     -24.858   1.263  29.073  0.00  0.00    +0.029 C 
BRANCH  25  26
ATOM     26  C   UNL A   1     -24.151   1.096  27.980  0.00  0.00    -0.026 A 
ATOM     27  C   UNL A   1     -24.352   1.273  26.904  0.00  0.00    -0.005 A 
ATOM     28  C   UNL A   1     -23.346   1.261  25.807  0.00  0.00    -0.000 A 
ATOM     29  C   UNL A   1     -22.666   0.783  28.311  0.00  0.00    -0.026 A 
ATOM     30  C   UNL A   1     -22.232   0.128  29.478  0.00  0.00    +0.031 C 
ATOM     31  C   UNL A   1     -22.068   1.569  26.085  0.00  0.00    -0.000 A 
ATOM     32  C   UNL A   1     -21.644   1.115  27.361  0.00  0.00    -0.005 A 
ENDBRANCH  25  26
ENDBRANCH   4  25
TORSDOF 5
