MODEL 504
MODEL 1
REMARK VINA RESULT:    -7.946      0.000      0.000
REMARK INTER + INTRA:          -7.004
REMARK INTER:                 -10.269
REMARK INTRA:                   3.264
REMARK UNBOUND:                 3.264
REMARK  Name = No_504-gen_results/8p0m/2024-11-26-14-13-15/
REMARK  5 active torsions:
REMARK  status: ('A' for Active; 'I' for Inactive)
REMARK    1  A    between atoms: C_2  and  O_7
REMARK    2  A    between atoms: C_2  and  C_22
REMARK    3  A    between atoms: C_4  and  C_14
REMARK    4  A    between atoms: O_7  and  C_8
REMARK    5  A    between atoms: C_14  and  C_15
REMARK                            x       y       z     vdW  Elec       q    Type
REMARK                         _______ _______ _______ _____ _____    ______ ____
ROOT
ATOM      1  C   UNL A   1     -25.966   1.591  28.514  0.00  0.00    +0.078 C 
ATOM      2  C   UNL A   1     -26.068   1.436  27.477  0.00  0.00    +0.169 C 
ATOM      3  C   UNL A   1     -25.875   0.352  29.286  0.00  0.00    +0.165 C 
ATOM      4  C   UNL A   1     -24.887  -0.375  29.195  0.00  0.00    +0.037 C 
ATOM      5  C   UNL A   1     -25.047   0.467  26.769  0.00  0.00    +0.043 C 
ATOM      6  C   UNL A   1     -24.632  -0.599  27.632  0.00  0.00    +0.007 C 
ATOM      7  F   UNL A   1     -25.988   0.599  30.720  0.00  0.00    -0.237 F 
ENDROOT
BRANCH   2   8
ATOM      8  C   UNL A   1     -27.355   0.704  27.136  0.00  0.00    +0.218 C 
ATOM      9  C   UNL A   1     -27.587   0.698  25.673  0.00  0.00    +0.198 C 
ATOM     10  C   UNL A   1     -28.913   1.334  27.456  0.00  0.00    +0.043 C 
ATOM     11  F   UNL A   1     -28.185   0.418  26.443  0.00  0.00    -0.229 F 
ATOM     12  C   UNL A   1     -28.705   0.723  24.822  0.00  0.00    +0.140 C 
ATOM     13  C   UNL A   1     -29.827   1.841  26.393  0.00  0.00    +0.005 C 
ATOM     14 CL   UNL A   1     -28.840   0.062  23.311  0.00  0.00    -0.107 Cl
ATOM     15  C   UNL A   1     -29.835   1.493  25.204  0.00  0.00    +0.024 C 
ATOM     16  O   UNL A   1     -26.569   0.604  24.901  0.00  0.00    -0.292 OA
ENDBRANCH   2   8
BRANCH   2  17
ATOM     17  O   UNL A   1     -26.334   2.430  26.523  0.00  0.00    -0.479 OA
BRANCH  17  18
ATOM     18  C   UNL A   1     -25.991   3.703  26.795  0.00  0.00    +0.149 A 
ATOM     19  C   UNL A   1     -25.024   4.156  26.826  0.00  0.00    +0.091 A 
ATOM     20  C   UNL A   1     -24.695   5.535  27.076  0.00  0.00    +0.015 A 
ATOM     21  C   UNL A   1     -25.818   6.373  27.258  0.00  0.00    +0.001 A 
ATOM     22  C   UNL A   1     -27.281   4.556  27.063  0.00  0.00    +0.038 A 
ATOM     23  C   UNL A   1     -27.071   5.860  27.288  0.00  0.00    +0.003 A 
ATOM     24 CL   UNL A   1     -24.283   3.932  25.635  0.00  0.00    -0.079 Cl
ENDBRANCH  17  18
ENDBRANCH   2  17
BRANCH   4  25
ATOM     25  C   UNL A   1     -24.481  -1.565  29.983  0.00  0.00    +0.029 C 
BRANCH  25  26
ATOM     26  C   UNL A   1     -24.568  -2.727  29.378  0.00  0.00    -0.026 A 
ATOM     27  C   UNL A   1     -23.849  -3.348  28.807  0.00  0.00    -0.005 A 
ATOM     28  C   UNL A   1     -24.044  -4.765  28.394  0.00  0.00    -0.000 A 
ATOM     29  C   UNL A   1     -25.899  -3.447  29.729  0.00  0.00    -0.026 A 
ATOM     30  C   UNL A   1     -27.098  -2.788  30.057  0.00  0.00    +0.031 C 
ATOM     31  C   UNL A   1     -24.844  -5.558  29.126  0.00  0.00    -0.000 A 
ATOM     32  C   UNL A   1     -25.966  -4.878  29.669  0.00  0.00    -0.005 A 
ENDBRANCH  25  26
ENDBRANCH   4  25
TORSDOF 5
ENDMDL
ENDMDL
