REMARK  Name = No_505-gen_results/8p0m/2024-11-26-14-13-15/
REMARK  1 active torsions:
REMARK  status: ('A' for Active; 'I' for Inactive)
REMARK    1  A    between atoms: C_2  and  C_3
REMARK                            x       y       z     vdW  Elec       q    Type
REMARK                         _______ _______ _______ _____ _____    ______ ____
ROOT
ATOM      1  C   UNL A   1     -26.332  -0.644  29.452  0.00  0.00    +0.044 A 
ATOM      2  C   UNL A   1     -25.256   0.320  29.782  0.00  0.00    +0.001 A 
ATOM      3  C   UNL A   1     -24.041   0.102  30.530  0.00  0.00    -0.000 A 
ATOM      4  C   UNL A   1     -23.906  -1.237  30.988  0.00  0.00    -0.000 A 
ATOM      5  C   UNL A   1     -24.828  -2.188  30.713  0.00  0.00    -0.000 A 
ATOM      6  C   UNL A   1     -25.928  -1.928  29.954  0.00  0.00    +0.001 A 
ENDROOT
BRANCH   1   8
ATOM      7  F   UNL A   1     -28.073  -1.254  28.532  0.00  0.00    -0.193 F 
ATOM      8  C   UNL A   1     -27.359  -0.379  28.722  0.00  0.00    +0.341 C 
ATOM      9  F   UNL A   1     -27.978   0.715  29.319  0.00  0.00    -0.193 F 
ENDBRANCH   1   8
TORSDOF 1
