MODEL 505
MODEL 1
REMARK VINA RESULT:    -5.302      0.000      0.000
REMARK INTER + INTRA:          -5.715
REMARK INTER:                  -5.612
REMARK INTRA:                  -0.104
REMARK UNBOUND:                -0.104
REMARK  Name = No_505-gen_results/8p0m/2024-11-26-14-13-15/
REMARK  1 active torsions:
REMARK  status: ('A' for Active; 'I' for Inactive)
REMARK    1  A    between atoms: C_2  and  C_3
REMARK                            x       y       z     vdW  Elec       q    Type
REMARK                         _______ _______ _______ _____ _____    ______ ____
ROOT
ATOM      1  C   UNL A   1      -8.022  -9.860  19.821  0.00  0.00    +0.044 A 
ATOM      2  C   UNL A   1      -8.105 -10.693  18.598  0.00  0.00    +0.001 A 
ATOM      3  C   UNL A   1      -9.218 -10.872  17.696  0.00  0.00    -0.000 A 
ATOM      4  C   UNL A   1     -10.365 -10.124  18.078  0.00  0.00    -0.000 A 
ATOM      5  C   UNL A   1     -10.370  -9.319  19.165  0.00  0.00    -0.000 A 
ATOM      6  C   UNL A   1      -9.267  -9.153  19.945  0.00  0.00    +0.001 A 
ENDROOT
BRANCH   1   8
ATOM      7  F   UNL A   1      -6.511  -8.657  20.539  0.00  0.00    -0.193 F 
ATOM      8  C   UNL A   1      -6.963  -9.708  20.537  0.00  0.00    +0.341 C 
ATOM      9  F   UNL A   1      -7.296 -10.165  21.809  0.00  0.00    -0.193 F 
ENDBRANCH   1   8
TORSDOF 1
ENDMDL
ENDMDL
