MODEL 506
MODEL 1
REMARK VINA RESULT:    -8.152      0.000      0.000
REMARK INTER + INTRA:         -10.332
REMARK INTER:                  -9.582
REMARK INTRA:                  -0.750
REMARK UNBOUND:                -0.750
REMARK  Name = No_506-gen_results/8p0m/2024-11-26-14-13-15/
REMARK  3 active torsions:
REMARK  status: ('A' for Active; 'I' for Inactive)
REMARK    1  A    between atoms: C_5  and  C_14
REMARK    2  A    between atoms: C_7  and  C_8
REMARK    3  A    between atoms: C_12  and  C_17
REMARK                            x       y       z     vdW  Elec       q    Type
REMARK                         _______ _______ _______ _____ _____    ______ ____
ROOT
ATOM      1  F   UNL A   1     -23.481  -4.046  28.293  0.00  0.00    -0.202 F 
ATOM      2  C   UNL A   1     -24.491  -3.790  28.768  0.00  0.00    +0.167 A 
ATOM      3  C   UNL A   1     -25.212  -4.795  29.124  0.00  0.00    +0.168 A 
ATOM      4  C   UNL A   1     -26.526  -4.697  29.802  0.00  0.00    +0.038 A 
ATOM      5  C   UNL A   1     -26.966  -3.351  30.064  0.00  0.00    +0.082 A 
ATOM      6  C   UNL A   1     -26.125  -2.329  29.689  0.00  0.00    +0.009 A 
ATOM      7  C   UNL A   1     -24.915  -2.524  29.092  0.00  0.00    +0.030 A 
ATOM      8  F   UNL A   1     -24.913  -6.087  28.940  0.00  0.00    -0.202 F 
ENDROOT
BRANCH   7   9
ATOM      9  C   UNL A   1     -24.125  -1.360  28.786  0.00  0.00    +0.002 A 
ATOM     10  C   UNL A   1     -22.976  -1.129  29.315  0.00  0.00    +0.000 A 
ATOM     11  C   UNL A   1     -22.109   0.028  28.992  0.00  0.00    -0.000 A 
ATOM     12  C   UNL A   1     -22.525   0.819  27.946  0.00  0.00    +0.004 A 
ATOM     13  C   UNL A   1     -23.711   0.506  27.295  0.00  0.00    +0.071 A 
ATOM     14  C   UNL A   1     -24.489  -0.546  27.674  0.00  0.00    +0.004 A 
BRANCH  13  15
ATOM     15  C   UNL A   1     -24.137   1.385  26.182  0.00  0.00    +0.419 C 
ATOM     16  F   UNL A   1     -25.032   2.164  26.194  0.00  0.00    -0.166 F 
ATOM     17  F   UNL A   1     -24.393   0.493  25.134  0.00  0.00    -0.166 F 
ATOM     18  F   UNL A   1     -23.051   2.016  25.663  0.00  0.00    -0.166 F 
ENDBRANCH  13  15
ENDBRANCH   7   9
BRANCH   5  19
ATOM     19  C   UNL A   1     -28.258  -3.174  30.691  0.00  0.00    +0.388 C 
ATOM     20  O   UNL A   1     -28.697  -3.881  31.583  0.00  0.00    -0.241 OA
ATOM     21  O   UNL A   1     -29.066  -2.218  30.186  0.00  0.00    -0.241 OA
ENDBRANCH   5  19
TORSDOF 3
ENDMDL
ENDMDL
