MODEL 507
MODEL 1
REMARK VINA RESULT:    -6.428      0.000      0.000
REMARK INTER + INTRA:          -6.866
REMARK INTER:                  -6.803
REMARK INTRA:                  -0.063
REMARK UNBOUND:                -0.063
REMARK  Name = No_507-gen_results/8p0m/2024-11-26-14-13-15/
REMARK  1 active torsions:
REMARK  status: ('A' for Active; 'I' for Inactive)
REMARK    1  A    between atoms: C_8  and  C_11
REMARK                            x       y       z     vdW  Elec       q    Type
REMARK                         _______ _______ _______ _____ _____    ______ ____
ROOT
ATOM      1  C   UNL A   1     -29.731 -11.700  27.974  0.00  0.00    +0.000 A 
ATOM      2  C   UNL A   1     -28.991 -12.047  28.865  0.00  0.00    +0.000 A 
ATOM      3  C   UNL A   1     -28.983 -11.464  30.132  0.00  0.00    +0.000 A 
ATOM      4  C   UNL A   1     -29.861 -10.341  30.398  0.00  0.00    +0.000 A 
ATOM      5  C   UNL A   1     -30.688  -9.986  29.309  0.00  0.00    +0.000 A 
ATOM      6  C   UNL A   1     -30.620 -10.591  28.150  0.00  0.00    +0.000 A 
ATOM      7  C   UNL A   1     -28.112 -11.845  31.275  0.00  0.00    +0.005 A 
ATOM      8  C   UNL A   1     -28.230 -11.349  32.484  0.00  0.00    +0.059 A 
ATOM      9  C   UNL A   1     -29.274 -10.325  32.665  0.00  0.00    +0.005 A 
ATOM     10  C   UNL A   1     -30.028  -9.828  31.689  0.00  0.00    +0.000 A 
ENDROOT
BRANCH   8  11
ATOM     11  C   UNL A   1     -27.439 -11.736  33.634  0.00  0.00    +0.297 C 
ATOM     12  N   UNL A   1     -27.018 -11.214  34.557  0.00  0.00    -0.102 NA
ATOM     13  O   UNL A   1     -26.630 -12.907  33.355  0.00  0.00    -0.264 OA
ENDBRANCH   8  11
TORSDOF 1
ENDMDL
ENDMDL
