REMARK  Name = No_508-gen_results/8p0m/2024-11-26-14-13-15/
REMARK  6 active torsions:
REMARK  status: ('A' for Active; 'I' for Inactive)
REMARK    1  A    between atoms: C_3  and  C_5
REMARK    2  A    between atoms: C_5  and  C_32
REMARK    3  A    between atoms: C_9  and  C_10
REMARK    4  A    between atoms: C_14  and  C_17
REMARK    5  A    between atoms: N_18  and  C_25
REMARK    6  A    between atoms: C_25  and  C_26
REMARK                            x       y       z     vdW  Elec       q    Type
REMARK                         _______ _______ _______ _____ _____    ______ ____
ROOT
ATOM      1  C   UNL A   1     -29.279   1.722  30.588  0.00  0.00    +0.027 A 
ATOM      2  C   UNL A   1     -30.414   2.396  31.193  0.00  0.00    -0.002 A 
ATOM      3  C   UNL A   1     -31.057   3.422  30.512  0.00  0.00    -0.022 A 
ATOM      4  C   UNL A   1     -30.584   3.757  29.195  0.00  0.00    +0.003 A 
ATOM      5  C   UNL A   1     -29.520   3.069  28.623  0.00  0.00    +0.081 A 
ATOM      6  C   UNL A   1     -28.907   2.113  29.306  0.00  0.00    +0.144 A 
ATOM      7  F   UNL A   1     -29.000   0.952  28.489  0.00  0.00    -0.204 F 
ATOM      8  C   UNL A   1     -32.069   4.227  31.183  0.00  0.00    +0.031 C 
ENDROOT
BRANCH   5   9
ATOM      9  C   UNL A   1     -29.209   3.470  27.220  0.00  0.00    +0.252 C 
ATOM     10  N   UNL A   1     -28.177   3.952  26.991  0.00  0.00    -0.270 N 
ATOM     11  O   UNL A   1     -29.927   2.841  26.270  0.00  0.00    -0.270 OA
ATOM     12  C   UNL A   1     -27.608   4.210  25.603  0.00  0.00    +0.116 C 
BRANCH  10  13
ATOM     13  C   UNL A   1     -27.365   4.805  28.039  0.00  0.00    +0.120 C 
BRANCH  13  14
ATOM     14  C   UNL A   1     -26.666   5.935  27.486  0.00  0.00    -0.002 A 
ATOM     15  C   UNL A   1     -27.141   7.266  27.641  0.00  0.00    -0.003 A 
ATOM     16  C   UNL A   1     -26.401   8.291  27.105  0.00  0.00    -0.000 A 
ATOM     17  C   UNL A   1     -25.063   8.073  26.604  0.00  0.00    -0.000 A 
ATOM     18  C   UNL A   1     -24.578   6.755  26.617  0.00  0.00    -0.000 A 
ATOM     19  C   UNL A   1     -25.355   5.715  27.090  0.00  0.00    -0.003 A 
ENDBRANCH  13  14
ENDBRANCH  10  13
ENDBRANCH   5   9
BRANCH   1  21
ATOM     20  C   UNL A   1     -27.651   0.126  30.880  0.00  0.00    +0.066 C 
ATOM     21  C   UNL A   1     -28.634   0.637  31.349  0.00  0.00    +0.005 C 
BRANCH  20  24
ATOM     22  O   UNL A   1     -28.123  -1.335  28.487  0.00  0.00    -0.273 OA
ATOM     23  C   UNL A   1     -27.481  -0.404  28.709  0.00  0.00    +0.250 C 
ATOM     24  C   UNL A   1     -27.190   0.246  29.527  0.00  0.00    +0.112 C 
ATOM     25  N   UNL A   1     -26.687  -0.000  27.442  0.00  0.00    -0.179 NA
ATOM     26  C   UNL A   1     -25.751   1.005  27.434  0.00  0.00    +0.069 A 
ATOM     27  C   UNL A   1     -25.561   1.691  28.612  0.00  0.00    -0.006 A 
ATOM     28  C   UNL A   1     -26.156   1.368  29.681  0.00  0.00    +0.041 C 
ATOM     29  C   UNL A   1     -25.115   1.273  26.176  0.00  0.00    +0.016 A 
ATOM     30  C   UNL A   1     -24.118   2.268  26.148  0.00  0.00    +0.001 A 
ATOM     31  C   UNL A   1     -23.877   3.033  27.337  0.00  0.00    -0.000 A 
ATOM     32  C   UNL A   1     -24.519   2.758  28.504  0.00  0.00    -0.003 A 
ENDBRANCH  20  24
BRANCH  20  33
ATOM     33  C   UNL A   1     -26.938  -0.943  31.711  0.00  0.00    +0.384 C 
ATOM     34  O   UNL A   1     -26.187  -1.573  31.338  0.00  0.00    -0.241 OA
ATOM     35  O   UNL A   1     -27.338  -0.953  32.978  0.00  0.00    -0.241 OA
ENDBRANCH  20  33
ENDBRANCH   1  21
TORSDOF 6
