MODEL 508
MODEL 1
REMARK VINA RESULT:    -7.501      0.000      0.000
REMARK INTER + INTRA:         -12.328
REMARK INTER:                 -10.132
REMARK INTRA:                  -2.196
REMARK UNBOUND:                -2.196
REMARK  Name = No_508-gen_results/8p0m/2024-11-26-14-13-15/
REMARK  6 active torsions:
REMARK  status: ('A' for Active; 'I' for Inactive)
REMARK    1  A    between atoms: C_3  and  C_5
REMARK    2  A    between atoms: C_5  and  C_32
REMARK    3  A    between atoms: C_9  and  C_10
REMARK    4  A    between atoms: C_14  and  C_17
REMARK    5  A    between atoms: N_18  and  C_25
REMARK    6  A    between atoms: C_25  and  C_26
REMARK                            x       y       z     vdW  Elec       q    Type
REMARK                         _______ _______ _______ _____ _____    ______ ____
ROOT
ATOM      1  C   UNL A   1     -24.492  -0.981  31.306  0.00  0.00    +0.027 A 
ATOM      2  C   UNL A   1     -25.060  -2.238  30.854  0.00  0.00    -0.002 A 
ATOM      3  C   UNL A   1     -24.591  -2.835  29.691  0.00  0.00    -0.022 A 
ATOM      4  C   UNL A   1     -23.516  -2.188  28.987  0.00  0.00    +0.003 A 
ATOM      5  C   UNL A   1     -22.963  -1.005  29.463  0.00  0.00    +0.081 A 
ATOM      6  C   UNL A   1     -23.448  -0.442  30.560  0.00  0.00    +0.144 A 
ATOM      7  F   UNL A   1     -22.339  -0.330  31.444  0.00  0.00    -0.204 F 
ATOM      8  C   UNL A   1     -25.279  -3.990  29.130  0.00  0.00    +0.031 C 
ENDROOT
BRANCH   5   9
ATOM      9  C   UNL A   1     -21.797  -0.508  28.675  0.00  0.00    +0.252 C 
ATOM     10  N   UNL A   1     -21.803   0.591  28.299  0.00  0.00    -0.270 N 
ATOM     11  O   UNL A   1     -20.652  -1.195  28.849  0.00  0.00    -0.270 OA
ATOM     12  C   UNL A   1     -20.618   1.324  27.686  0.00  0.00    +0.116 C 
BRANCH  10  13
ATOM     13  C   UNL A   1     -23.121   1.386  27.961  0.00  0.00    +0.120 C 
BRANCH  13  14
ATOM     14  C   UNL A   1     -23.895   0.841  26.877  0.00  0.00    -0.002 A 
ATOM     15  C   UNL A   1     -25.049   0.042  27.100  0.00  0.00    -0.003 A 
ATOM     16  C   UNL A   1     -25.746  -0.419  26.010  0.00  0.00    -0.000 A 
ATOM     17  C   UNL A   1     -25.476   0.075  24.679  0.00  0.00    -0.000 A 
ATOM     18  C   UNL A   1     -24.419   0.988  24.533  0.00  0.00    -0.000 A 
ATOM     19  C   UNL A   1     -23.672   1.393  25.623  0.00  0.00    -0.003 A 
ENDBRANCH  13  14
ENDBRANCH  10  13
ENDBRANCH   5   9
BRANCH   1  21
ATOM     20  C   UNL A   1     -25.591   0.667  32.472  0.00  0.00    +0.066 C 
ATOM     21  C   UNL A   1     -25.021  -0.390  32.548  0.00  0.00    +0.005 C 
BRANCH  20  24
ATOM     22  O   UNL A   1     -24.093   2.999  31.838  0.00  0.00    -0.273 OA
ATOM     23  C   UNL A   1     -24.913   2.428  31.263  0.00  0.00    +0.250 C 
ATOM     24  C   UNL A   1     -25.569   1.570  31.358  0.00  0.00    +0.112 C 
ATOM     25  N   UNL A   1     -25.275   3.194  29.966  0.00  0.00    -0.179 NA
ATOM     26  C   UNL A   1     -26.299   2.814  29.134  0.00  0.00    +0.069 A 
ATOM     27  C   UNL A   1     -26.992   1.675  29.475  0.00  0.00    -0.006 A 
ATOM     28  C   UNL A   1     -26.759   1.043  30.546  0.00  0.00    +0.041 C 
ATOM     29  C   UNL A   1     -26.496   3.616  27.960  0.00  0.00    +0.016 A 
ATOM     30  C   UNL A   1     -27.568   3.277  27.111  0.00  0.00    +0.001 A 
ATOM     31  C   UNL A   1     -28.324   2.093  27.398  0.00  0.00    -0.000 A 
ATOM     32  C   UNL A   1     -28.089   1.350  28.513  0.00  0.00    -0.003 A 
ENDBRANCH  20  24
BRANCH  20  33
ATOM     33  C   UNL A   1     -26.209   1.237  33.751  0.00  0.00    +0.384 C 
ATOM     34  O   UNL A   1     -26.723   2.150  33.798  0.00  0.00    -0.241 OA
ATOM     35  O   UNL A   1     -26.070   0.421  34.790  0.00  0.00    -0.241 OA
ENDBRANCH  20  33
ENDBRANCH   1  21
TORSDOF 6
ENDMDL
ENDMDL
