MODEL 509
MODEL 1
REMARK VINA RESULT:    -5.708      0.000      0.000
REMARK INTER + INTRA:          -6.069
REMARK INTER:                  -6.041
REMARK INTRA:                  -0.028
REMARK UNBOUND:                -0.028
REMARK  Name = No_509-gen_results/8p0m/2024-11-26-14-13-15/
REMARK  1 active torsions:
REMARK  status: ('A' for Active; 'I' for Inactive)
REMARK    1  A    between atoms: C_9  and  C_11
REMARK                            x       y       z     vdW  Elec       q    Type
REMARK                         _______ _______ _______ _____ _____    ______ ____
ROOT
ATOM      1  C   UNL A   1     -31.034  -9.760  29.096  0.00  0.00    +0.000 A 
ATOM      2  C   UNL A   1     -31.053 -10.274  28.176  0.00  0.00    +0.000 A 
ATOM      3  C   UNL A   1     -30.045 -10.216  30.085  0.00  0.00    +0.000 A 
ATOM      4  C   UNL A   1     -29.914  -9.778  31.466  0.00  0.00    +0.001 A 
ATOM      5  C   UNL A   1     -30.123 -11.264  27.583  0.00  0.00    +0.000 A 
ATOM      6  C   UNL A   1     -29.152 -11.742  28.455  0.00  0.00    +0.000 A 
ATOM      7  C   UNL A   1     -29.045 -11.231  29.731  0.00  0.00    +0.001 A 
ATOM      8  C   UNL A   1     -29.393 -10.649  32.461  0.00  0.00    +0.010 A 
ATOM      9  C   UNL A   1     -28.410 -11.590  32.044  0.00  0.00    +0.068 A 
ATOM     10  C   UNL A   1     -28.292 -11.927  30.736  0.00  0.00    +0.010 A 
ENDROOT
BRANCH   9  11
ATOM     11  C   UNL A   1     -27.645 -12.308  33.102  0.00  0.00    +0.100 C 
ATOM     12  N   UNL A   1     -27.220 -12.251  34.293  0.00  0.00    -0.191 NA
ENDBRANCH   9  11
TORSDOF 1
ENDMDL
ENDMDL
