MODEL 50
MODEL 1
REMARK VINA RESULT:    -9.003      0.000      0.000
REMARK INTER + INTRA:         -13.694
REMARK INTER:                 -12.162
REMARK INTRA:                  -1.532
REMARK UNBOUND:                -1.532
REMARK  Name = No_50-gen_results/8p0m/2024-11-26-14-13-15/
REMARK  6 active torsions:
REMARK  status: ('A' for Active; 'I' for Inactive)
REMARK    1  A    between atoms: C_3  and  C_11
REMARK    2  A    between atoms: C_5  and  C_8
REMARK    3  A    between atoms: C_16  and  C_17
REMARK    4  A    between atoms: N_18  and  C_20
REMARK    5  A    between atoms: C_23  and  C_26
REMARK    6  A    between atoms: C_31  and  C_32
REMARK                            x       y       z     vdW  Elec       q    Type
REMARK                         _______ _______ _______ _____ _____    ______ ____
ROOT
ATOM      1  C   UNL A   1     -24.737 -18.601  24.018  0.00  0.00    +0.269 C 
ATOM      2  N   UNL A   1     -24.003 -18.128  24.863  0.00  0.00    -0.175 NA
ATOM      3  O   UNL A   1     -24.390 -19.552  23.273  0.00  0.00    -0.268 OA
ENDROOT
BRANCH   1   9
ATOM      4  C   UNL A   1     -28.109 -16.293  22.840  0.00  0.00    +0.001 A 
ATOM      5  C   UNL A   1     -27.442 -15.960  23.832  0.00  0.00    +0.000 A 
ATOM      6  C   UNL A   1     -26.359 -16.733  24.334  0.00  0.00    +0.005 A 
ATOM      7  C   UNL A   1     -27.532 -17.268  21.911  0.00  0.00    +0.000 A 
ATOM      8  C   UNL A   1     -26.467 -18.058  22.332  0.00  0.00    +0.005 A 
ATOM      9  C   UNL A   1     -25.879 -17.780  23.569  0.00  0.00    +0.055 A 
BRANCH   4  12
ATOM     10 CL   UNL A   1     -30.967 -16.896  22.834  0.00  0.00    -0.082 Cl
ATOM     11  C   UNL A   1     -30.339 -15.737  22.249  0.00  0.00    +0.058 A 
ATOM     12  C   UNL A   1     -29.197 -15.445  22.243  0.00  0.00    +0.011 A 
ATOM     13  C   UNL A   1     -28.644 -14.251  21.608  0.00  0.00    +0.005 A 
ATOM     14  C   UNL A   1     -29.533 -13.325  20.981  0.00  0.00    +0.057 A 
ATOM     15  C   UNL A   1     -30.847 -13.663  20.994  0.00  0.00    +0.005 A 
ATOM     16  C   UNL A   1     -31.288 -14.792  21.571  0.00  0.00    +0.011 A 
BRANCH  14  17
ATOM     17  C   UNL A   1     -29.032 -12.084  20.389  0.00  0.00    +0.284 C 
ATOM     18  N   UNL A   1     -29.741 -11.088  20.199  0.00  0.00    -0.084 NA
ATOM     19  O   UNL A   1     -28.057 -12.174  19.553  0.00  0.00    -0.267 OA
ENDBRANCH  14  17
ENDBRANCH   4  12
ENDBRANCH   1   9
BRANCH   2  20
ATOM     20  C   UNL A   1     -23.078 -18.611  25.512  0.00  0.00    +0.074 A 
ATOM     21  C   UNL A   1     -21.910 -18.507  25.523  0.00  0.00    +0.017 A 
ATOM     22  C   UNL A   1     -20.912 -19.091  26.387  0.00  0.00    +0.001 A 
ATOM     23  C   UNL A   1     -21.394 -19.967  27.368  0.00  0.00    +0.000 A 
ATOM     24  C   UNL A   1     -22.746 -20.191  27.470  0.00  0.00    +0.001 A 
ATOM     25  C   UNL A   1     -23.651 -19.628  26.592  0.00  0.00    +0.017 A 
BRANCH  23  26
ATOM     26  C   UNL A   1     -20.422 -20.605  28.273  0.00  0.00    +0.000 A 
ATOM     27  C   UNL A   1     -19.912 -21.514  28.491  0.00  0.00    +0.000 A 
ATOM     28  C   UNL A   1     -18.945 -21.883  29.471  0.00  0.00    +0.005 A 
ATOM     29  C   UNL A   1     -19.903 -19.484  29.242  0.00  0.00    +0.000 A 
ATOM     30  C   UNL A   1     -18.998 -19.695  30.166  0.00  0.00    +0.005 A 
ATOM     31  C   UNL A   1     -18.484 -20.930  30.318  0.00  0.00    +0.055 A 
BRANCH  31  32
ATOM     32  C   UNL A   1     -17.462 -21.265  31.341  0.00  0.00    +0.265 C 
ATOM     33  N   UNL A   1     -17.274 -22.461  31.604  0.00  0.00    -0.200 NA
ATOM     34  O   UNL A   1     -16.686 -20.357  31.684  0.00  0.00    -0.268 OA
ATOM     35  C   UNL A   1     -16.289 -22.890  32.586  0.00  0.00    +0.139 C 
ENDBRANCH  31  32
ENDBRANCH  23  26
ENDBRANCH   2  20
TORSDOF 6
ENDMDL
ENDMDL
