REMARK  Name = No_51-gen_results/8p0m/2024-11-26-14-13-15/
REMARK  0 active torsions:
REMARK  status: ('A' for Active; 'I' for Inactive)
REMARK                            x       y       z     vdW  Elec       q    Type
REMARK                         _______ _______ _______ _____ _____    ______ ____
ROOT
ATOM      1  C   UNL A   1     -28.016  -0.814  28.878  0.00  0.00    +0.227 C 
ATOM      2  C   UNL A   1     -27.064  -0.119  28.608  0.00  0.00    +0.012 C 
ATOM      3  C   UNL A   1     -26.972   0.714  27.506  0.00  0.00    +0.101 C 
ATOM      4  C   UNL A   1     -25.821   1.491  27.116  0.00  0.00    -0.086 C 
ATOM      5  C   UNL A   1     -24.656   1.424  27.918  0.00  0.00    -0.090 C 
ATOM      6  C   UNL A   1     -24.697   0.565  29.061  0.00  0.00    +0.081 C 
ATOM      7  C   UNL A   1     -25.804  -0.198  29.395  0.00  0.00    +0.040 C 
ATOM      8  O   UNL A   1     -29.126  -0.306  28.684  0.00  0.00    -0.284 OA
ENDROOT
TORSDOF 0
