REMARK  Name = No_510-gen_results/8p0m/2024-11-26-14-13-15/
REMARK  4 active torsions:
REMARK  status: ('A' for Active; 'I' for Inactive)
REMARK    1  A    between atoms: C_2  and  C_4
REMARK    2  A    between atoms: C_8  and  C_11
REMARK    3  A    between atoms: C_12  and  C_13
REMARK    4  A    between atoms: C_12  and  C_14
REMARK                            x       y       z     vdW  Elec       q    Type
REMARK                         _______ _______ _______ _____ _____    ______ ____
ROOT
ATOM      1  C   UNL A   1     -26.642   0.119  27.349  0.00  0.00    +0.055 A 
ATOM      2  C   UNL A   1     -26.872   0.060  26.331  0.00  0.00    +0.005 A 
ATOM      3  C   UNL A   1     -25.961   0.595  25.264  0.00  0.00    +0.000 A 
ATOM      4  C   UNL A   1     -24.709   1.062  25.674  0.00  0.00    -0.000 A 
ATOM      5  C   UNL A   1     -24.412   1.111  26.992  0.00  0.00    +0.000 A 
ATOM      6  C   UNL A   1     -25.301   0.689  27.905  0.00  0.00    +0.005 A 
ENDROOT
BRANCH   1   8
ATOM      7  O   UNL A   1     -28.123  -1.335  28.487  0.00  0.00    -0.268 OA
ATOM      8  C   UNL A   1     -27.481  -0.404  28.709  0.00  0.00    +0.265 C 
ATOM      9  N   UNL A   1     -27.241   0.391  29.510  0.00  0.00    -0.200 NA
ATOM     10  C   UNL A   1     -28.093   0.002  30.818  0.00  0.00    +0.139 C 
ENDBRANCH   1   8
BRANCH   5  11
ATOM     11  C   UNL A   1     -23.136   1.706  27.373  0.00  0.00    +0.008 C 
ATOM     12  C   UNL A   1     -22.506   1.503  28.508  0.00  0.00    +0.123 C 
BRANCH  12  13
ATOM     13  C   UNL A   1     -21.047   1.764  28.556  0.00  0.00    +0.347 C 
ATOM     14  F   UNL A   1     -20.577   1.135  27.456  0.00  0.00    -0.193 F 
ATOM     15  F   UNL A   1     -20.712   2.966  28.404  0.00  0.00    -0.193 F 
ENDBRANCH  12  13
BRANCH  12  16
ATOM     16  C   UNL A   1     -23.128   0.990  29.653  0.00  0.00    +0.389 C 
ATOM     17  O   UNL A   1     -22.934   0.405  30.451  0.00  0.00    -0.241 OA
ATOM     18  O   UNL A   1     -24.162   1.986  30.124  0.00  0.00    -0.241 OA
ENDBRANCH  12  16
ENDBRANCH   5  11
TORSDOF 4
