MODEL 510
MODEL 1
REMARK VINA RESULT:    -6.684      0.000      0.000
REMARK INTER + INTRA:          -8.826
REMARK INTER:                  -8.247
REMARK INTRA:                  -0.579
REMARK UNBOUND:                -0.579
REMARK  Name = No_510-gen_results/8p0m/2024-11-26-14-13-15/
REMARK  4 active torsions:
REMARK  status: ('A' for Active; 'I' for Inactive)
REMARK    1  A    between atoms: C_2  and  C_4
REMARK    2  A    between atoms: C_8  and  C_11
REMARK    3  A    between atoms: C_12  and  C_13
REMARK    4  A    between atoms: C_12  and  C_14
REMARK                            x       y       z     vdW  Elec       q    Type
REMARK                         _______ _______ _______ _____ _____    ______ ____
ROOT
ATOM      1  C   UNL A   1     -26.388  -4.066  29.735  0.00  0.00    +0.055 A 
ATOM      2  C   UNL A   1     -25.926  -4.984  29.543  0.00  0.00    +0.005 A 
ATOM      3  C   UNL A   1     -24.564  -5.090  28.919  0.00  0.00    +0.000 A 
ATOM      4  C   UNL A   1     -23.862  -3.897  28.723  0.00  0.00    -0.000 A 
ATOM      5  C   UNL A   1     -24.460  -2.716  28.998  0.00  0.00    +0.000 A 
ATOM      6  C   UNL A   1     -25.711  -2.684  29.482  0.00  0.00    +0.005 A 
ENDROOT
BRANCH   1   8
ATOM      7  O   UNL A   1     -28.433  -4.637  30.780  0.00  0.00    -0.268 OA
ATOM      8  C   UNL A   1     -27.877  -3.694  30.420  0.00  0.00    +0.265 C 
ATOM      9  N   UNL A   1     -27.981  -2.555  30.265  0.00  0.00    -0.200 NA
ATOM     10  C   UNL A   1     -29.436  -2.144  30.816  0.00  0.00    +0.139 C 
ENDBRANCH   1   8
BRANCH   5  11
ATOM     11  C   UNL A   1     -23.724  -1.498  28.674  0.00  0.00    +0.008 C 
ATOM     12  C   UNL A   1     -22.997  -0.798  29.515  0.00  0.00    +0.123 C 
BRANCH  12  13
ATOM     13  C   UNL A   1     -21.950   0.095  28.962  0.00  0.00    +0.347 C 
ATOM     14  F   UNL A   1     -20.874  -0.714  28.846  0.00  0.00    -0.193 F 
ATOM     15  F   UNL A   1     -22.163   0.511  27.795  0.00  0.00    -0.193 F 
ENDBRANCH  12  13
BRANCH  12  16
ATOM     16  C   UNL A   1     -23.115  -0.902  30.907  0.00  0.00    +0.389 C 
ATOM     17  O   UNL A   1     -22.567  -1.128  31.722  0.00  0.00    -0.241 OA
ATOM     18  O   UNL A   1     -24.143   0.101  31.377  0.00  0.00    -0.241 OA
ENDBRANCH  12  16
ENDBRANCH   5  11
TORSDOF 4
ENDMDL
ENDMDL
