REMARK  Name = No_511-gen_results/8p0m/2024-11-26-14-13-15/
REMARK  1 active torsions:
REMARK  status: ('A' for Active; 'I' for Inactive)
REMARK    1  A    between atoms: C_2  and  C_7
REMARK                            x       y       z     vdW  Elec       q    Type
REMARK                         _______ _______ _______ _____ _____    ______ ____
ROOT
ATOM      1  C   UNL A   1     -28.016  -0.814  28.878  0.00  0.00    +0.019 A 
ATOM      2  C   UNL A   1     -27.064  -0.119  28.608  0.00  0.00    +0.081 A 
ATOM      3  N   UNL A   1     -25.818  -0.343  29.049  0.00  0.00    -0.244 NA
ATOM      4  C   UNL A   1     -25.607  -1.441  29.893  0.00  0.00    +0.099 A 
ATOM      5  C   UNL A   1     -26.676  -2.219  30.236  0.00  0.00    +0.021 A 
ATOM      6  C   UNL A   1     -27.863  -1.932  29.767  0.00  0.00    +0.003 A 
ENDROOT
BRANCH   2   7
ATOM      7  C   UNL A   1     -27.128   1.105  27.742  0.00  0.00    +0.015 C 
ATOM      8  C   UNL A   1     -26.151   1.947  27.671  0.00  0.00    -0.024 C 
ATOM      9  C   UNL A   1     -24.815   1.541  28.235  0.00  0.00    +0.031 C 
ENDBRANCH   2   7
TORSDOF 1
