MODEL 511
MODEL 1
REMARK VINA RESULT:    -4.565      0.000      0.000
REMARK INTER + INTRA:          -4.764
REMARK INTER:                  -4.832
REMARK INTRA:                   0.068
REMARK UNBOUND:                 0.068
REMARK  Name = No_511-gen_results/8p0m/2024-11-26-14-13-15/
REMARK  1 active torsions:
REMARK  status: ('A' for Active; 'I' for Inactive)
REMARK    1  A    between atoms: C_2  and  C_7
REMARK                            x       y       z     vdW  Elec       q    Type
REMARK                         _______ _______ _______ _____ _____    ______ ____
ROOT
ATOM      1  C   UNL A   1     -25.558  -2.957  29.720  0.00  0.00    +0.019 A 
ATOM      2  C   UNL A   1     -24.475  -2.664  29.271  0.00  0.00    +0.081 A 
ATOM      3  N   UNL A   1     -23.654  -3.528  28.657  0.00  0.00    -0.244 NA
ATOM      4  C   UNL A   1     -24.068  -4.862  28.546  0.00  0.00    +0.099 A 
ATOM      5  C   UNL A   1     -25.275  -5.220  29.077  0.00  0.00    +0.021 A 
ATOM      6  C   UNL A   1     -26.017  -4.317  29.665  0.00  0.00    +0.003 A 
ENDROOT
BRANCH   2   7
ATOM      7  C   UNL A   1     -23.876  -1.289  29.333  0.00  0.00    +0.015 C 
ATOM      8  C   UNL A   1     -24.062  -0.417  28.398  0.00  0.00    -0.024 C 
ATOM      9  C   UNL A   1     -25.134  -0.683  27.375  0.00  0.00    +0.031 C 
ENDBRANCH   2   7
TORSDOF 1
ENDMDL
ENDMDL
