REMARK  Name = No_512-gen_results/8p0m/2024-11-26-14-13-15/
REMARK  1 active torsions:
REMARK  status: ('A' for Active; 'I' for Inactive)
REMARK    1  A    between atoms: C_5  and  C_8
REMARK                            x       y       z     vdW  Elec       q    Type
REMARK                         _______ _______ _______ _____ _____    ______ ____
ROOT
ATOM      1  C   UNL A   1     -28.016  -0.814  28.878  0.00  0.00    +0.030 A 
ATOM      2  C   UNL A   1     -28.469  -0.785  29.829  0.00  0.00    +0.006 A 
ATOM      3  C   UNL A   1     -28.196   0.348  28.055  0.00  0.00    +0.140 A 
ATOM      4  C   UNL A   1     -29.019   1.350  28.378  0.00  0.00    +0.030 A 
ATOM      5  C   UNL A   1     -29.411   0.180  30.378  0.00  0.00    +0.072 A 
ATOM      6  C   UNL A   1     -29.606   1.250  29.619  0.00  0.00    +0.006 A 
ATOM      7  F   UNL A   1     -27.540   0.337  26.842  0.00  0.00    -0.204 F 
ENDROOT
BRANCH   5   8
ATOM      8  C   UNL A   1     -30.020  -0.025  31.754  0.00  0.00    +0.419 C 
ATOM      9  F   UNL A   1     -30.198   0.968  32.442  0.00  0.00    -0.166 F 
ATOM     10  F   UNL A   1     -29.217  -0.897  32.465  0.00  0.00    -0.166 F 
ATOM     11  F   UNL A   1     -31.204  -0.679  31.525  0.00  0.00    -0.166 F 
ENDBRANCH   5   8
TORSDOF 1
