MODEL 512
MODEL 1
REMARK VINA RESULT:    -5.055      0.000      0.000
REMARK INTER + INTRA:          -5.538
REMARK INTER:                  -5.350
REMARK INTRA:                  -0.188
REMARK UNBOUND:                -0.188
REMARK  Name = No_512-gen_results/8p0m/2024-11-26-14-13-15/
REMARK  1 active torsions:
REMARK  status: ('A' for Active; 'I' for Inactive)
REMARK    1  A    between atoms: C_5  and  C_8
REMARK                            x       y       z     vdW  Elec       q    Type
REMARK                         _______ _______ _______ _____ _____    ______ ____
ROOT
ATOM      1  C   UNL A   1     -26.138  -2.656  30.045  0.00  0.00    +0.030 A 
ATOM      2  C   UNL A   1     -25.305  -2.019  29.936  0.00  0.00    +0.006 A 
ATOM      3  C   UNL A   1     -25.952  -4.017  29.630  0.00  0.00    +0.140 A 
ATOM      4  C   UNL A   1     -24.859  -4.441  28.988  0.00  0.00    +0.030 A 
ATOM      5  C   UNL A   1     -24.040  -2.255  29.256  0.00  0.00    +0.072 A 
ATOM      6  C   UNL A   1     -23.861  -3.504  28.847  0.00  0.00    +0.006 A 
ATOM      7  F   UNL A   1     -27.018  -4.865  29.844  0.00  0.00    -0.204 F 
ENDROOT
BRANCH   5   8
ATOM      8  C   UNL A   1     -23.004  -1.151  29.136  0.00  0.00    +0.419 C 
ATOM      9  F   UNL A   1     -21.846  -1.487  28.945  0.00  0.00    -0.166 F 
ATOM     10  F   UNL A   1     -23.041  -0.386  30.287  0.00  0.00    -0.166 F 
ATOM     11  F   UNL A   1     -23.455  -0.350  28.118  0.00  0.00    -0.166 F 
ENDBRANCH   5   8
TORSDOF 1
ENDMDL
ENDMDL
