MODEL 513
MODEL 1
REMARK VINA RESULT:    -4.698      0.000      0.000
REMARK INTER + INTRA:          -4.698
REMARK INTER:                  -4.698
REMARK INTRA:                   0.000
REMARK UNBOUND:                 0.000
REMARK  Name = No_513-gen_results/8p0m/2024-11-26-14-13-15/
REMARK  0 active torsions:
REMARK  status: ('A' for Active; 'I' for Inactive)
REMARK                            x       y       z     vdW  Elec       q    Type
REMARK                         _______ _______ _______ _____ _____    ______ ____
ROOT
ATOM      1  C   UNL A   1      -9.075  -9.107  20.139  0.00  0.00    +0.042 A 
ATOM      2  C   UNL A   1      -8.093  -9.793  19.976  0.00  0.00    +0.003 A 
ATOM      3  C   UNL A   1      -7.980 -10.634  18.874  0.00  0.00    +0.000 A 
ATOM      4  C   UNL A   1      -9.050 -10.751  17.918  0.00  0.00    +0.003 A 
ATOM      5  C   UNL A   1     -10.158  -9.940  18.197  0.00  0.00    +0.042 A 
ATOM      6  C   UNL A   1     -10.223  -9.174  19.261  0.00  0.00    +0.196 A 
ATOM      7  O   UNL A   1     -11.353  -8.447  19.479  0.00  0.00    -0.287 OA
ENDROOT
TORSDOF 0
ENDMDL
ENDMDL
