REMARK  Name = No_514-gen_results/8p0m/2024-11-26-14-13-15/
REMARK  2 active torsions:
REMARK  status: ('A' for Active; 'I' for Inactive)
REMARK    1  A    between atoms: C_2  and  C_7
REMARK    2  A    between atoms: C_3  and  C_19
REMARK                            x       y       z     vdW  Elec       q    Type
REMARK                         _______ _______ _______ _____ _____    ______ ____
ROOT
ATOM      1  C   UNL A   1     -28.016  -0.814  28.878  0.00  0.00    +0.004 A 
ATOM      2  C   UNL A   1     -28.469  -0.785  29.829  0.00  0.00    +0.054 A 
ATOM      3  C   UNL A   1     -27.087   0.290  28.638  0.00  0.00    +0.000 A 
ATOM      4  C   UNL A   1     -26.024   0.364  29.253  0.00  0.00    +0.000 A 
ATOM      5  C   UNL A   1     -27.537  -0.619  31.088  0.00  0.00    +0.004 A 
ATOM      6  C   UNL A   1     -26.384   0.183  30.801  0.00  0.00    +0.000 A 
ENDROOT
BRANCH   2   7
ATOM      7  C   UNL A   1     -29.617  -1.688  30.308  0.00  0.00    +0.249 C 
ATOM      8  O   UNL A   1     -29.559  -2.758  30.586  0.00  0.00    -0.270 OA
ATOM      9  N   UNL A   1     -30.854  -1.026  30.236  0.00  0.00    -0.272 N 
ATOM     10  C   UNL A   1     -31.929  -1.324  30.210  0.00  0.00    +0.099 C 
ATOM     11  C   UNL A   1     -32.851  -1.125  29.601  0.00  0.00    +0.048 C 
ATOM     12  C   UNL A   1     -32.652  -0.086  28.558  0.00  0.00    -0.023 A 
ATOM     13  C   UNL A   1     -33.631   0.355  27.673  0.00  0.00    -0.004 A 
ATOM     14  C   UNL A   1     -33.306   1.390  26.768  0.00  0.00    -0.000 A 
ATOM     15  C   UNL A   1     -31.998   1.927  26.748  0.00  0.00    -0.000 A 
ATOM     16  C   UNL A   1     -31.032   1.446  27.627  0.00  0.00    -0.003 A 
ATOM     17  C   UNL A   1     -31.354   0.508  28.482  0.00  0.00    -0.006 A 
ATOM     18  C   UNL A   1     -30.616   0.208  29.402  0.00  0.00    +0.120 C 
ENDBRANCH   2   7
BRANCH   3  19
ATOM     19  C   UNL A   1     -26.980   0.902  27.212  0.00  0.00    +0.000 A 
ATOM     20  C   UNL A   1     -27.671   1.998  27.050  0.00  0.00    +0.000 A 
ATOM     21  C   UNL A   1     -26.360   0.220  26.214  0.00  0.00    +0.000 A 
ATOM     22  C   UNL A   1     -27.635   2.609  25.758  0.00  0.00    +0.000 A 
ATOM     23  C   UNL A   1     -26.307   0.738  24.922  0.00  0.00    +0.000 A 
ATOM     24  C   UNL A   1     -26.943   1.929  24.667  0.00  0.00    +0.000 A 
ENDBRANCH   3  19
TORSDOF 2
