MODEL 514
MODEL 1
REMARK VINA RESULT:    -7.900      0.000      0.000
REMARK INTER + INTRA:          -9.430
REMARK INTER:                  -8.824
REMARK INTRA:                  -0.606
REMARK UNBOUND:                -0.606
REMARK  Name = No_514-gen_results/8p0m/2024-11-26-14-13-15/
REMARK  2 active torsions:
REMARK  status: ('A' for Active; 'I' for Inactive)
REMARK    1  A    between atoms: C_2  and  C_7
REMARK    2  A    between atoms: C_3  and  C_19
REMARK                            x       y       z     vdW  Elec       q    Type
REMARK                         _______ _______ _______ _____ _____    ______ ____
ROOT
ATOM      1  C   UNL A   1     -23.697   0.296  27.566  0.00  0.00    +0.004 A 
ATOM      2  C   UNL A   1     -23.024   0.166  28.366  0.00  0.00    +0.054 A 
ATOM      3  C   UNL A   1     -23.690   1.648  27.008  0.00  0.00    +0.000 A 
ATOM      4  C   UNL A   1     -22.714   2.067  26.386  0.00  0.00    +0.000 A 
ATOM      5  C   UNL A   1     -21.531   0.624  28.158  0.00  0.00    +0.004 A 
ATOM      6  C   UNL A   1     -21.434   1.766  27.296  0.00  0.00    +0.000 A 
ENDROOT
BRANCH   2   7
ATOM      7  C   UNL A   1     -22.931  -1.070  29.274  0.00  0.00    +0.249 C 
ATOM      8  O   UNL A   1     -22.921  -2.133  28.964  0.00  0.00    -0.270 OA
ATOM      9  N   UNL A   1     -22.992  -0.715  30.632  0.00  0.00    -0.272 N 
ATOM     10  C   UNL A   1     -23.226  -1.232  31.592  0.00  0.00    +0.099 C 
ATOM     11  C   UNL A   1     -23.877  -1.093  32.496  0.00  0.00    +0.048 C 
ATOM     12  C   UNL A   1     -24.598   0.207  32.504  0.00  0.00    -0.023 A 
ATOM     13  C   UNL A   1     -25.462   0.634  33.507  0.00  0.00    -0.004 A 
ATOM     14  C   UNL A   1     -26.035   1.921  33.401  0.00  0.00    -0.000 A 
ATOM     15  C   UNL A   1     -25.757   2.728  32.273  0.00  0.00    -0.000 A 
ATOM     16  C   UNL A   1     -24.910   2.262  31.272  0.00  0.00    -0.003 A 
ATOM     17  C   UNL A   1     -24.361   1.080  31.397  0.00  0.00    -0.006 A 
ATOM     18  C   UNL A   1     -23.458   0.719  30.665  0.00  0.00    +0.120 C 
ENDBRANCH   2   7
BRANCH   3  19
ATOM     19  C   UNL A   1     -25.020   2.271  26.496  0.00  0.00    +0.000 A 
ATOM     20  C   UNL A   1     -25.319   3.415  27.048  0.00  0.00    +0.000 A 
ATOM     21  C   UNL A   1     -25.846   1.560  25.684  0.00  0.00    +0.000 A 
ATOM     22  C   UNL A   1     -26.538   4.040  26.640  0.00  0.00    +0.000 A 
ATOM     23  C   UNL A   1     -27.064   2.091  25.265  0.00  0.00    +0.000 A 
ATOM     24  C   UNL A   1     -27.436   3.328  25.734  0.00  0.00    +0.000 A 
ENDBRANCH   3  19
TORSDOF 2
ENDMDL
ENDMDL
