MODEL 515
MODEL 1
REMARK VINA RESULT:    -4.401      0.000      0.000
REMARK INTER + INTRA:          -4.401
REMARK INTER:                  -4.401
REMARK INTRA:                   0.000
REMARK UNBOUND:                 0.000
REMARK  Name = No_515-gen_results/8p0m/2024-11-26-14-13-15/
REMARK  0 active torsions:
REMARK  status: ('A' for Active; 'I' for Inactive)
REMARK                            x       y       z     vdW  Elec       q    Type
REMARK                         _______ _______ _______ _____ _____    ______ ____
ROOT
ATOM      1  C   UNL A   1      -9.109  -9.275  20.015  0.00  0.00    +0.011 A 
ATOM      2  C   UNL A   1      -8.294  -9.879  19.732  0.00  0.00    +0.058 A 
ATOM      3  C   UNL A   1     -10.261  -9.238  19.035  0.00  0.00    +0.001 A 
ATOM      4  C   UNL A   1     -10.244 -10.095  17.915  0.00  0.00    +0.000 A 
ATOM      5  C   UNL A   1      -8.041 -10.874  18.665  0.00  0.00    +0.011 A 
ATOM      6  C   UNL A   1      -9.083 -10.873  17.748  0.00  0.00    +0.001 A 
ATOM      7 CL   UNL A   1      -6.983  -9.758  20.968  0.00  0.00    -0.082 Cl
ENDROOT
TORSDOF 0
ENDMDL
ENDMDL
