MODEL 516
MODEL 1
REMARK VINA RESULT:    -4.595      0.000      0.000
REMARK INTER + INTRA:          -4.961
REMARK INTER:                  -4.864
REMARK INTRA:                  -0.097
REMARK UNBOUND:                -0.097
REMARK  Name = No_516-gen_results/8p0m/2024-11-26-14-13-15/
REMARK  1 active torsions:
REMARK  status: ('A' for Active; 'I' for Inactive)
REMARK    1  A    between atoms: C_3  and  C_8
REMARK                            x       y       z     vdW  Elec       q    Type
REMARK                         _______ _______ _______ _____ _____    ______ ____
ROOT
ATOM      1  O   UNL A   1     -26.631 -12.778  33.605  0.00  0.00    -0.273 OA
ATOM      2  C   UNL A   1     -27.259 -11.823  33.459  0.00  0.00    +0.245 C 
ATOM      3  C   UNL A   1     -28.060 -11.424  32.847  0.00  0.00    +0.100 C 
ATOM      4  N   UNL A   1     -27.055 -10.948  34.628  0.00  0.00    -0.205 NA
ATOM      5  C   UNL A   1     -27.772  -9.715  34.746  0.00  0.00    +0.115 C 
ATOM      6  C   UNL A   1     -28.931 -10.217  32.774  0.00  0.00    +0.015 C 
ATOM      7  C   UNL A   1     -28.698  -9.361  33.827  0.00  0.00    +0.024 C 
ENDROOT
BRANCH   3   8
ATOM      8  C   UNL A   1     -28.478 -12.342  31.556  0.00  0.00    -0.017 C 
ATOM      9  C   UNL A   1     -28.608 -11.745  30.489  0.00  0.00    -0.004 C 
ENDBRANCH   3   8
TORSDOF 1
ENDMDL
ENDMDL
