REMARK  Name = No_517-gen_results/8p0m/2024-11-26-14-13-15/
REMARK  4 active torsions:
REMARK  status: ('A' for Active; 'I' for Inactive)
REMARK    1  A    between atoms: C_3  and  C_7
REMARK    2  A    between atoms: C_4  and  C_19
REMARK    3  A    between atoms: C_8  and  C_10
REMARK    4  A    between atoms: C_11  and  O_22
REMARK                            x       y       z     vdW  Elec       q    Type
REMARK                         _______ _______ _______ _____ _____    ______ ____
ROOT
ATOM      1  C   UNL A   1     -26.441   0.088  27.247  0.00  0.00    +0.000 A 
ATOM      2  C   UNL A   1     -26.931   0.694  26.059  0.00  0.00    +0.003 A 
ATOM      3  C   UNL A   1     -25.103  -0.409  27.197  0.00  0.00    +0.000 A 
ATOM      4  C   UNL A   1     -26.278   0.101  24.916  0.00  0.00    +0.000 A 
ATOM      5  C   UNL A   1     -24.163  -0.035  26.478  0.00  0.00    +0.000 A 
ATOM      6  C   UNL A   1     -24.877   0.251  25.047  0.00  0.00    +0.000 A 
ENDROOT
BRANCH   1   9
ATOM      7  C   UNL A   1     -28.016  -0.814  28.878  0.00  0.00    +0.000 A 
ATOM      8  C   UNL A   1     -28.469  -0.785  29.829  0.00  0.00    +0.000 A 
ATOM      9  C   UNL A   1     -27.136   0.236  28.535  0.00  0.00    +0.006 A 
ATOM     10  C   UNL A   1     -26.875   1.282  29.398  0.00  0.00    +0.080 A 
ATOM     11  C   UNL A   1     -27.507   1.238  30.630  0.00  0.00    +0.007 A 
ATOM     12  C   UNL A   1     -28.329   0.174  30.935  0.00  0.00    +0.000 A 
BRANCH  10  13
ATOM     13  C   UNL A   1     -25.954   2.404  29.127  0.00  0.00    +0.388 C 
ATOM     14  O   UNL A   1     -26.344   3.520  29.113  0.00  0.00    -0.241 OA
ATOM     15  O   UNL A   1     -24.657   2.104  28.933  0.00  0.00    -0.241 OA
ENDBRANCH  10  13
ENDBRANCH   1   9
BRANCH   2  16
ATOM     16  C   UNL A   1     -28.197   1.175  26.018  0.00  0.00    +0.034 A 
ATOM     17  C   UNL A   1     -29.089   0.961  25.600  0.00  0.00    +0.139 A 
ATOM     18  C   UNL A   1     -30.372   1.670  25.615  0.00  0.00    +0.037 A 
ATOM     19  C   UNL A   1     -30.367   2.872  26.338  0.00  0.00    +0.003 A 
ATOM     20  C   UNL A   1     -29.217   3.401  26.859  0.00  0.00    +0.000 A 
ATOM     21  C   UNL A   1     -28.073   2.684  26.766  0.00  0.00    +0.003 A 
BRANCH  17  22
ATOM     22  O   UNL A   1     -29.304  -0.256  24.983  0.00  0.00    -0.471 OA
ATOM     23  C   UNL A   1     -29.201  -0.460  23.676  0.00  0.00    +0.253 C 
ENDBRANCH  17  22
ENDBRANCH   2  16
TORSDOF 4
