MODEL 517
MODEL 1
REMARK VINA RESULT:    -6.619      0.000      0.000
REMARK INTER + INTRA:          -9.537
REMARK INTER:                  -8.167
REMARK INTRA:                  -1.371
REMARK UNBOUND:                -1.371
REMARK  Name = No_517-gen_results/8p0m/2024-11-26-14-13-15/
REMARK  4 active torsions:
REMARK  status: ('A' for Active; 'I' for Inactive)
REMARK    1  A    between atoms: C_3  and  C_7
REMARK    2  A    between atoms: C_4  and  C_19
REMARK    3  A    between atoms: C_8  and  C_10
REMARK    4  A    between atoms: C_11  and  O_22
REMARK                            x       y       z     vdW  Elec       q    Type
REMARK                         _______ _______ _______ _____ _____    ______ ____
ROOT
ATOM      1  C   UNL A   1     -23.467   0.514  28.058  0.00  0.00    +0.000 A 
ATOM      2  C   UNL A   1     -23.208  -0.587  28.917  0.00  0.00    +0.003 A 
ATOM      3  C   UNL A   1     -22.337   1.301  27.680  0.00  0.00    +0.000 A 
ATOM      4  C   UNL A   1     -22.055  -0.294  29.735  0.00  0.00    +0.000 A 
ATOM      5  C   UNL A   1     -21.145   0.961  27.607  0.00  0.00    +0.000 A 
ATOM      6  C   UNL A   1     -20.950  -0.003  28.900  0.00  0.00    +0.000 A 
ENDROOT
BRANCH   1   9
ATOM      7  C   UNL A   1     -25.059  -0.369  26.433  0.00  0.00    +0.000 A 
ATOM      8  C   UNL A   1     -26.004  -0.345  25.968  0.00  0.00    +0.000 A 
ATOM      9  C   UNL A   1     -24.749   0.659  27.350  0.00  0.00    +0.006 A 
ATOM     10  C   UNL A   1     -25.636   1.679  27.632  0.00  0.00    +0.080 A 
ATOM     11  C   UNL A   1     -26.858   1.631  26.982  0.00  0.00    +0.007 A 
ATOM     12  C   UNL A   1     -27.131   0.587  26.123  0.00  0.00    +0.000 A 
BRANCH  10  13
ATOM     13  C   UNL A   1     -25.400   2.776  28.592  0.00  0.00    +0.388 C 
ATOM     14  O   UNL A   1     -25.805   2.711  29.700  0.00  0.00    -0.241 OA
ATOM     15  O   UNL A   1     -24.679   3.827  28.161  0.00  0.00    -0.241 OA
ENDBRANCH  10  13
ENDBRANCH   1   9
BRANCH   2  16
ATOM     16  C   UNL A   1     -24.229  -1.373  29.336  0.00  0.00    +0.034 A 
ATOM     17  C   UNL A   1     -24.989  -1.360  29.999  0.00  0.00    +0.139 A 
ATOM     18  C   UNL A   1     -25.979  -2.374  30.371  0.00  0.00    +0.037 A 
ATOM     19  C   UNL A   1     -25.852  -3.594  29.690  0.00  0.00    +0.003 A 
ATOM     20  C   UNL A   1     -24.798  -3.852  28.855  0.00  0.00    +0.000 A 
ATOM     21  C   UNL A   1     -23.916  -2.859  28.598  0.00  0.00    +0.003 A 
BRANCH  17  22
ATOM     22  O   UNL A   1     -25.343  -0.190  30.641  0.00  0.00    -0.471 OA
ATOM     23  C   UNL A   1     -25.181   0.029  31.940  0.00  0.00    +0.253 C 
ENDBRANCH  17  22
ENDBRANCH   2  16
TORSDOF 4
ENDMDL
ENDMDL
