REMARK  Name = No_518-gen_results/8p0m/2024-11-26-14-13-15/
REMARK  2 active torsions:
REMARK  status: ('A' for Active; 'I' for Inactive)
REMARK    1  A    between atoms: C_1  and  C_7
REMARK    2  A    between atoms: C_5  and  C_10
REMARK                            x       y       z     vdW  Elec       q    Type
REMARK                         _______ _______ _______ _____ _____    ______ ____
ROOT
ATOM      1  C   UNL A   1     -28.016  -0.814  28.878  0.00  0.00    +0.080 A 
ATOM      2  C   UNL A   1     -27.064  -0.119  28.608  0.00  0.00    +0.007 A 
ATOM      3  C   UNL A   1     -27.001   0.691  27.491  0.00  0.00    +0.000 A 
ATOM      4  C   UNL A   1     -28.137   0.736  26.635  0.00  0.00    +0.005 A 
ATOM      5  C   UNL A   1     -29.236   0.076  27.069  0.00  0.00    +0.057 A 
ATOM      6  C   UNL A   1     -29.218  -0.643  28.175  0.00  0.00    +0.011 A 
ENDROOT
BRANCH   1   7
ATOM      7  C   UNL A   1     -28.003  -1.660  30.127  0.00  0.00    +0.388 C 
ATOM      8  O   UNL A   1     -28.691  -1.792  30.889  0.00  0.00    -0.241 OA
ATOM      9  O   UNL A   1     -26.723  -2.245  30.265  0.00  0.00    -0.241 OA
ENDBRANCH   1   7
BRANCH   5  10
ATOM     10  C   UNL A   1     -30.428   0.166  26.197  0.00  0.00    +0.284 C 
ATOM     11  O   UNL A   1     -31.318  -0.466  26.388  0.00  0.00    -0.267 OA
ATOM     12  N   UNL A   1     -30.245   0.731  24.904  0.00  0.00    -0.084 NA
ENDBRANCH   5  10
TORSDOF 2
