MODEL 518
MODEL 1
REMARK VINA RESULT:    -5.551      0.000      0.000
REMARK INTER + INTRA:          -6.301
REMARK INTER:                  -6.200
REMARK INTRA:                  -0.101
REMARK UNBOUND:                -0.101
REMARK  Name = No_518-gen_results/8p0m/2024-11-26-14-13-15/
REMARK  2 active torsions:
REMARK  status: ('A' for Active; 'I' for Inactive)
REMARK    1  A    between atoms: C_1  and  C_7
REMARK    2  A    between atoms: C_5  and  C_10
REMARK                            x       y       z     vdW  Elec       q    Type
REMARK                         _______ _______ _______ _____ _____    ______ ____
ROOT
ATOM      1  C   UNL A   1     -29.265 -11.387  30.063  0.00  0.00    +0.080 A 
ATOM      2  C   UNL A   1     -29.864 -10.420  30.472  0.00  0.00    +0.007 A 
ATOM      3  C   UNL A   1     -29.763  -9.950  31.767  0.00  0.00    +0.000 A 
ATOM      4  C   UNL A   1     -28.874 -10.621  32.652  0.00  0.00    +0.005 A 
ATOM      5  C   UNL A   1     -28.102 -11.586  32.102  0.00  0.00    +0.057 A 
ATOM      6  C   UNL A   1     -28.239 -11.944  30.840  0.00  0.00    +0.011 A 
ENDROOT
BRANCH   1   7
ATOM      7  C   UNL A   1     -29.428 -11.824  28.628  0.00  0.00    +0.388 C 
ATOM      8  O   UNL A   1     -29.561 -11.296  27.747  0.00  0.00    -0.241 OA
ATOM      9  O   UNL A   1     -29.536 -13.233  28.592  0.00  0.00    -0.241 OA
ENDBRANCH   1   7
BRANCH   5  10
ATOM     10  C   UNL A   1     -27.146 -12.248  33.018  0.00  0.00    +0.284 C 
ATOM     11  O   UNL A   1     -26.402 -12.973  32.633  0.00  0.00    -0.267 OA
ATOM     12  N   UNL A   1     -27.481 -12.268  34.401  0.00  0.00    -0.084 NA
ENDBRANCH   5  10
TORSDOF 2
ENDMDL
ENDMDL
