REMARK  Name = No_519-gen_results/8p0m/2024-11-26-14-13-15/
REMARK  5 active torsions:
REMARK  status: ('A' for Active; 'I' for Inactive)
REMARK    1  A    between atoms: C_2  and  C_5
REMARK    2  A    between atoms: C_4  and  C_11
REMARK    3  A    between atoms: N_12  and  N_22
REMARK    4  A    between atoms: C_14  and  C_23
REMARK    5  A    between atoms: C_16  and  C_18
REMARK                            x       y       z     vdW  Elec       q    Type
REMARK                         _______ _______ _______ _____ _____    ______ ____
ROOT
ATOM      1  C   UNL A   1     -30.006  -0.746  29.898  0.00  0.00    +0.249 C 
ATOM      2  O   UNL A   1     -30.634  -0.099  29.160  0.00  0.00    -0.270 OA
ATOM      3  N   UNL A   1     -30.696  -1.591  30.822  0.00  0.00    -0.275 N 
ATOM      4  C   UNL A   1     -32.119  -1.645  30.818  0.00  0.00    +0.105 C 
ATOM      5  C   UNL A   1     -32.590  -2.660  31.288  0.00  0.00    +0.123 C 
ATOM      6  C   UNL A   1     -31.843  -3.643  32.046  0.00  0.00    +0.023 C 
ATOM      7  C   UNL A   1     -30.426  -3.594  32.003  0.00  0.00    +0.116 C 
ATOM      8  C   UNL A   1     -29.886  -2.640  31.327  0.00  0.00    +0.102 C 
ENDROOT
BRANCH   1  10
ATOM      9  C   UNL A   1     -28.016  -0.814  28.878  0.00  0.00    +0.005 A 
ATOM     10  C   UNL A   1     -28.469  -0.785  29.829  0.00  0.00    +0.054 A 
ATOM     11  C   UNL A   1     -26.546  -0.876  28.850  0.00  0.00    +0.005 A 
ATOM     12  C   UNL A   1     -25.804  -1.032  30.057  0.00  0.00    +0.056 A 
ATOM     13  C   UNL A   1     -26.575  -1.056  31.201  0.00  0.00    +0.005 A 
ATOM     14  C   UNL A   1     -27.925  -0.974  31.168  0.00  0.00    +0.005 A 
BRANCH  12  15
ATOM     15  C   UNL A   1     -24.359  -1.087  30.043  0.00  0.00    +0.281 C 
ATOM     16  N   UNL A   1     -23.770  -1.619  30.769  0.00  0.00    -0.108 NA
ATOM     17  O   UNL A   1     -23.742  -0.768  28.913  0.00  0.00    -0.267 OA
BRANCH  16  18
ATOM     18  N   UNL A   1     -22.340  -1.565  30.833  0.00  0.00    -0.107 NA
ATOM     19  C   UNL A   1     -21.917  -0.378  30.263  0.00  0.00    +0.134 C 
ENDBRANCH  16  18
ENDBRANCH  12  15
ENDBRANCH   1  10
BRANCH   7  20
ATOM     20  C   UNL A   1     -29.722  -4.723  32.695  0.00  0.00    +0.399 C 
ATOM     21  F   UNL A   1     -28.832  -5.247  31.857  0.00  0.00    -0.170 F 
ATOM     22  F   UNL A   1     -28.989  -4.247  33.715  0.00  0.00    -0.170 F 
ATOM     23  F   UNL A   1     -30.497  -5.617  33.175  0.00  0.00    -0.170 F 
ENDBRANCH   7  20
BRANCH   5  24
ATOM     24  C   UNL A   1     -34.094  -2.811  31.502  0.00  0.00    +0.366 C 
ATOM     25  O   UNL A   1     -34.718  -3.599  30.859  0.00  0.00    -0.246 OA
ATOM     26  O   UNL A   1     -34.699  -1.953  32.288  0.00  0.00    -0.246 OA
ENDBRANCH   5  24
TORSDOF 5
