MODEL 51
MODEL 1
REMARK VINA RESULT:    -5.275      0.000      0.000
REMARK INTER + INTRA:          -5.275
REMARK INTER:                  -5.275
REMARK INTRA:                   0.000
REMARK UNBOUND:                 0.000
REMARK  Name = No_51-gen_results/8p0m/2024-11-26-14-13-15/
REMARK  0 active torsions:
REMARK  status: ('A' for Active; 'I' for Inactive)
REMARK                            x       y       z     vdW  Elec       q    Type
REMARK                         _______ _______ _______ _____ _____    ______ ____
ROOT
ATOM      1  C   UNL A   1     -10.173 -10.290  16.968  0.00  0.00    +0.227 C 
ATOM      2  C   UNL A   1      -9.726 -10.084  18.072  0.00  0.00    +0.012 C 
ATOM      3  C   UNL A   1     -10.350  -9.342  19.060  0.00  0.00    +0.101 C 
ATOM      4  C   UNL A   1      -9.806  -9.013  20.354  0.00  0.00    -0.086 C 
ATOM      5  C   UNL A   1      -8.512  -9.483  20.684  0.00  0.00    -0.090 C 
ATOM      6  C   UNL A   1      -7.820 -10.244  19.690  0.00  0.00    +0.081 C 
ATOM      7  C   UNL A   1      -8.351 -10.517  18.440  0.00  0.00    +0.040 C 
ATOM      8  O   UNL A   1     -11.387 -10.517  16.912  0.00  0.00    -0.284 OA
ENDROOT
TORSDOF 0
ENDMDL
ENDMDL
