REMARK  Name = No_520-gen_results/8p0m/2024-11-26-14-13-15/
REMARK  4 active torsions:
REMARK  status: ('A' for Active; 'I' for Inactive)
REMARK    1  A    between atoms: C_3  and  C_9
REMARK    2  A    between atoms: C_9  and  C_10
REMARK    3  A    between atoms: C_10  and  C_19
REMARK    4  A    between atoms: C_11  and  C_12
REMARK                            x       y       z     vdW  Elec       q    Type
REMARK                         _______ _______ _______ _____ _____    ______ ____
ROOT
ATOM      1  C   UNL A   1     -24.540   1.707  29.176  0.00  0.00    +0.058 C 
ATOM      2  C   UNL A   1     -24.303   1.630  30.428  0.00  0.00    -0.019 C 
ENDROOT
BRANCH   2   3
ATOM      3  C   UNL A   1     -25.465   1.667  31.302  0.00  0.00    +0.048 C 
ATOM      4  C   UNL A   1     -25.347   2.946  32.168  0.00  0.00    -0.004 A 
ATOM      5  C   UNL A   1     -26.422   3.114  33.129  0.00  0.00    +0.063 A 
ATOM      6  C   UNL A   1     -26.604   4.406  33.648  0.00  0.00    +0.016 A 
ATOM      7  C   UNL A   1     -25.628   5.416  33.400  0.00  0.00    +0.001 A 
ATOM      8  C   UNL A   1     -24.600   5.187  32.523  0.00  0.00    -0.000 A 
ATOM      9  C   UNL A   1     -24.489   3.975  31.865  0.00  0.00    -0.003 A 
ATOM     10  C   UNL A   1     -25.375   0.506  32.380  0.00  0.00    +0.043 C 
ATOM     11  C   UNL A   1     -24.242   0.004  32.675  0.00  0.00    +0.004 C 
ATOM     12  C   UNL A   1     -26.505  -0.566  32.019  0.00  0.00    +0.004 C 
ATOM     13  C   UNL A   1     -25.950   1.063  33.840  0.00  0.00    +0.183 C 
ATOM     14  N   UNL A   1     -26.301   2.174  34.191  0.00  0.00    -0.220 NA
ATOM     15  N   UNL A   1     -26.159   0.062  34.817  0.00  0.00    -0.109 NA
ENDBRANCH   2   3
BRANCH   1  16
ATOM     16  C   UNL A   1     -23.328   1.717  28.206  0.00  0.00    +0.384 C 
ATOM     17  O   UNL A   1     -23.292   2.411  27.239  0.00  0.00    -0.241 OA
ATOM     18  O   UNL A   1     -22.286   0.849  28.478  0.00  0.00    -0.241 OA
ENDBRANCH   1  16
BRANCH   1  19
ATOM     19  C   UNL A   1     -25.674   1.934  28.446  0.00  0.00    +0.061 C 
BRANCH  19  22
ATOM     20  C   UNL A   1     -28.016  -0.814  28.878  0.00  0.00    +0.030 A 
ATOM     21  C   UNL A   1     -27.064  -0.119  28.608  0.00  0.00    +0.137 A 
ATOM     22  C   UNL A   1     -26.876   1.133  28.913  0.00  0.00    +0.011 A 
ATOM     23  C   UNL A   1     -27.901   1.807  29.644  0.00  0.00    +0.010 A 
ATOM     24  C   UNL A   1     -29.046  -0.232  29.718  0.00  0.00    +0.014 A 
ATOM     25  C   UNL A   1     -28.940   1.052  30.060  0.00  0.00    +0.058 A 
ATOM     26  F   UNL A   1     -26.021  -0.677  27.877  0.00  0.00    -0.204 F 
ATOM     27 CL   UNL A   1     -30.185   1.778  31.005  0.00  0.00    -0.082 Cl
ENDBRANCH  19  22
ENDBRANCH   1  19
TORSDOF 4
