MODEL 520
MODEL 1
REMARK VINA RESULT:    -7.506      0.000      0.000
REMARK INTER + INTRA:         -10.726
REMARK INTER:                  -9.261
REMARK INTRA:                  -1.465
REMARK UNBOUND:                -1.465
REMARK  Name = No_520-gen_results/8p0m/2024-11-26-14-13-15/
REMARK  4 active torsions:
REMARK  status: ('A' for Active; 'I' for Inactive)
REMARK    1  A    between atoms: C_3  and  C_9
REMARK    2  A    between atoms: C_9  and  C_10
REMARK    3  A    between atoms: C_10  and  C_19
REMARK    4  A    between atoms: C_11  and  C_12
REMARK                            x       y       z     vdW  Elec       q    Type
REMARK                         _______ _______ _______ _____ _____    ______ ____
ROOT
ATOM      1  C   UNL A   1     -22.970   0.298  28.684  0.00  0.00    +0.058 C 
ATOM      2  C   UNL A   1     -23.571   0.821  27.687  0.00  0.00    -0.019 C 
ENDROOT
BRANCH   2   3
ATOM      3  C   UNL A   1     -24.988   1.094  27.867  0.00  0.00    +0.048 C 
ATOM      4  C   UNL A   1     -25.694   0.755  26.529  0.00  0.00    -0.004 A 
ATOM      5  C   UNL A   1     -27.123   1.008  26.531  0.00  0.00    +0.063 A 
ATOM      6  C   UNL A   1     -27.875   0.366  25.534  0.00  0.00    +0.016 A 
ATOM      7  C   UNL A   1     -27.213  -0.303  24.463  0.00  0.00    +0.001 A 
ATOM      8  C   UNL A   1     -25.853  -0.468  24.484  0.00  0.00    -0.000 A 
ATOM      9  C   UNL A   1     -25.099   0.010  25.541  0.00  0.00    -0.003 A 
ATOM     10  C   UNL A   1     -25.232   2.656  28.003  0.00  0.00    +0.043 C 
ATOM     11  C   UNL A   1     -24.374   3.472  27.533  0.00  0.00    +0.004 C 
ATOM     12  C   UNL A   1     -25.661   2.939  29.517  0.00  0.00    +0.004 C 
ATOM     13  C   UNL A   1     -26.639   3.066  27.214  0.00  0.00    +0.183 C 
ATOM     14  N   UNL A   1     -27.387   2.407  26.516  0.00  0.00    -0.220 NA
ATOM     15  N   UNL A   1     -27.103   4.378  27.469  0.00  0.00    -0.109 NA
ENDBRANCH   2   3
BRANCH   1  16
ATOM     16  C   UNL A   1     -21.466  -0.053  28.523  0.00  0.00    +0.384 C 
ATOM     17  O   UNL A   1     -20.998  -1.062  28.948  0.00  0.00    -0.241 OA
ATOM     18  O   UNL A   1     -20.657   0.878  27.897  0.00  0.00    -0.241 OA
ENDBRANCH   1  16
BRANCH   1  19
ATOM     19  C   UNL A   1     -23.395  -0.184  29.891  0.00  0.00    +0.061 C 
BRANCH  19  22
ATOM     20  C   UNL A   1     -26.294  -2.345  30.276  0.00  0.00    +0.030 A 
ATOM     21  C   UNL A   1     -25.522  -1.415  30.258  0.00  0.00    +0.137 A 
ATOM     22  C   UNL A   1     -24.309  -1.391  29.783  0.00  0.00    +0.011 A 
ATOM     23  C   UNL A   1     -23.786  -2.594  29.218  0.00  0.00    +0.010 A 
ATOM     24  C   UNL A   1     -25.875  -3.568  29.617  0.00  0.00    +0.014 A 
ATOM     25  C   UNL A   1     -24.640  -3.635  29.120  0.00  0.00    +0.058 A 
ATOM     26  F   UNL A   1     -25.929  -0.204  30.806  0.00  0.00    -0.204 F 
ATOM     27 CL   UNL A   1     -24.104  -5.100  28.389  0.00  0.00    -0.082 Cl
ENDBRANCH  19  22
ENDBRANCH   1  19
TORSDOF 4
ENDMDL
ENDMDL
