MODEL 521
MODEL 1
REMARK VINA RESULT:    -6.715      0.000      0.000
REMARK INTER + INTRA:          -7.439
REMARK INTER:                  -7.107
REMARK INTRA:                  -0.331
REMARK UNBOUND:                -0.331
REMARK  Name = No_521-gen_results/8p0m/2024-11-26-14-13-15/
REMARK  1 active torsions:
REMARK  status: ('A' for Active; 'I' for Inactive)
REMARK    1  A    between atoms: C_5  and  C_7
REMARK                            x       y       z     vdW  Elec       q    Type
REMARK                         _______ _______ _______ _____ _____    ______ ____
ROOT
ATOM      1  C   UNL A   1     -24.231  -3.747  28.891  0.00  0.00    +0.030 A 
ATOM      2  C   UNL A   1     -25.003  -4.656  29.090  0.00  0.00    +0.140 A 
ATOM      3  C   UNL A   1     -26.200  -4.591  29.599  0.00  0.00    +0.030 A 
ATOM      4  C   UNL A   1     -26.693  -3.310  29.994  0.00  0.00    +0.002 A 
ATOM      5  C   UNL A   1     -24.704  -2.403  29.160  0.00  0.00    +0.002 A 
ATOM      6  C   UNL A   1     -25.912  -2.248  29.700  0.00  0.00    +0.000 A 
ATOM      7  F   UNL A   1     -24.573  -5.957  28.769  0.00  0.00    -0.204 F 
ENDROOT
BRANCH   5   8
ATOM      8  C   UNL A   1     -23.788  -1.287  28.824  0.00  0.00    +0.000 A 
ATOM      9  C   UNL A   1     -22.576  -1.310  29.283  0.00  0.00    +0.000 A 
ATOM     10  C   UNL A   1     -21.653  -0.272  28.906  0.00  0.00    +0.000 A 
ATOM     11  C   UNL A   1     -24.265  -0.258  27.946  0.00  0.00    +0.000 A 
ATOM     12  C   UNL A   1     -23.363   0.781  27.572  0.00  0.00    +0.000 A 
ATOM     13  C   UNL A   1     -22.107   0.750  28.077  0.00  0.00    +0.000 A 
ENDBRANCH   5   8
TORSDOF 1
ENDMDL
ENDMDL
