MODEL 522
MODEL 1
REMARK VINA RESULT:    -4.827      0.000      0.000
REMARK INTER + INTRA:          -5.531
REMARK INTER:                  -5.391
REMARK INTRA:                  -0.140
REMARK UNBOUND:                -0.140
REMARK  Name = No_522-gen_results/8p0m/2024-11-26-14-13-15/
REMARK  2 active torsions:
REMARK  status: ('A' for Active; 'I' for Inactive)
REMARK    1  A    between atoms: C_2  and  N_7
REMARK    2  A    between atoms: N_7  and  C_8
REMARK                            x       y       z     vdW  Elec       q    Type
REMARK                         _______ _______ _______ _____ _____    ______ ____
ROOT
ATOM      1  C   UNL A   1     -25.060  -2.547  29.538  0.00  0.00    +0.017 A 
ATOM      2  C   UNL A   1     -24.069  -3.032  29.042  0.00  0.00    +0.070 A 
ATOM      3  C   UNL A   1     -24.011  -4.387  28.733  0.00  0.00    +0.017 A 
ATOM      4  C   UNL A   1     -25.112  -5.264  29.037  0.00  0.00    +0.001 A 
ATOM      5  C   UNL A   1     -26.207  -4.624  29.632  0.00  0.00    +0.000 A 
ATOM      6  C   UNL A   1     -26.206  -3.342  29.918  0.00  0.00    +0.001 A 
ENDROOT
BRANCH   2   7
ATOM      7  N   UNL A   1     -23.003  -2.170  28.847  0.00  0.00    -0.211 NA
BRANCH   7   8
ATOM      8  C   UNL A   1     -23.174  -0.890  29.142  0.00  0.00    +0.086 C 
ATOM      9  C   UNL A   1     -22.174   0.026  29.174  0.00  0.00    +0.019 C 
ENDBRANCH   7   8
ENDBRANCH   2   7
TORSDOF 2
ENDMDL
ENDMDL
