REMARK  Name = No_523-gen_results/8p0m/2024-11-26-14-13-15/
REMARK  2 active torsions:
REMARK  status: ('A' for Active; 'I' for Inactive)
REMARK    1  A    between atoms: N_4  and  C_10
REMARK    2  A    between atoms: C_10  and  C_17
REMARK                            x       y       z     vdW  Elec       q    Type
REMARK                         _______ _______ _______ _____ _____    ______ ____
ROOT
ATOM      1  O   UNL A   1     -28.123  -1.335  28.487  0.00  0.00    -0.270 OA
ATOM      2  C   UNL A   1     -27.064  -0.824  28.869  0.00  0.00    +0.249 C 
ATOM      3  C   UNL A   1     -26.402  -0.062  28.622  0.00  0.00    +0.053 A 
ATOM      4  N   UNL A   1     -26.572  -1.584  30.117  0.00  0.00    -0.268 N 
ATOM      5  C   UNL A   1     -26.698   0.964  27.645  0.00  0.00    +0.004 A 
ATOM      6  C   UNL A   1     -25.783   1.813  27.035  0.00  0.00    +0.000 A 
ATOM      7  C   UNL A   1     -24.435   1.909  27.589  0.00  0.00    +0.003 A 
ATOM      8  C   UNL A   1     -24.082   1.004  28.575  0.00  0.00    +0.035 A 
ATOM      9  C   UNL A   1     -24.928   0.087  29.048  0.00  0.00    +0.006 A 
ATOM     10  C   UNL A   1     -22.667   1.064  29.062  0.00  0.00    +0.170 A 
ATOM     11  N   UNL A   1     -21.772   1.564  28.242  0.00  0.00    -0.107 NA
ATOM     12  N   UNL A   1     -22.346   0.241  30.059  0.00  0.00    -0.226 NA
ATOM     13  C   UNL A   1     -25.420  -1.348  30.923  0.00  0.00    +0.122 C 
ATOM     14  C   UNL A   1     -24.456  -0.500  30.236  0.00  0.00    +0.017 A 
ATOM     15  C   UNL A   1     -23.182  -0.536  30.767  0.00  0.00    +0.098 A 
ENDROOT
BRANCH   4  16
ATOM     16  C   UNL A   1     -27.391  -2.771  30.624  0.00  0.00    +0.121 C 
BRANCH  16  17
ATOM     17  C   UNL A   1     -28.653  -2.511  31.215  0.00  0.00    -0.002 A 
ATOM     18  C   UNL A   1     -28.850  -1.352  31.761  0.00  0.00    -0.003 A 
ATOM     19  C   UNL A   1     -30.176  -1.065  32.263  0.00  0.00    -0.000 A 
ATOM     20  C   UNL A   1     -31.078  -2.138  32.270  0.00  0.00    -0.000 A 
ATOM     21  C   UNL A   1     -29.730  -3.416  31.227  0.00  0.00    -0.003 A 
ATOM     22  C   UNL A   1     -30.905  -3.284  31.738  0.00  0.00    -0.000 A 
ENDBRANCH  16  17
ENDBRANCH   4  16
TORSDOF 2
