MODEL 523
MODEL 1
REMARK VINA RESULT:    -8.259      0.000      0.000
REMARK INTER + INTRA:          -9.501
REMARK INTER:                  -9.225
REMARK INTRA:                  -0.276
REMARK UNBOUND:                -0.276
REMARK  Name = No_523-gen_results/8p0m/2024-11-26-14-13-15/
REMARK  2 active torsions:
REMARK  status: ('A' for Active; 'I' for Inactive)
REMARK    1  A    between atoms: N_4  and  C_10
REMARK    2  A    between atoms: C_10  and  C_17
REMARK                            x       y       z     vdW  Elec       q    Type
REMARK                         _______ _______ _______ _____ _____    ______ ____
ROOT
ATOM      1  O   UNL A   1     -22.476  -1.752  28.557  0.00  0.00    -0.270 OA
ATOM      2  C   UNL A   1     -23.520  -1.937  29.193  0.00  0.00    +0.249 C 
ATOM      3  C   UNL A   1     -24.210  -2.684  29.409  0.00  0.00    +0.053 A 
ATOM      4  N   UNL A   1     -23.922  -0.616  29.878  0.00  0.00    -0.268 N 
ATOM      5  C   UNL A   1     -23.993  -4.081  29.102  0.00  0.00    +0.004 A 
ATOM      6  C   UNL A   1     -24.959  -5.079  29.064  0.00  0.00    +0.000 A 
ATOM      7  C   UNL A   1     -26.273  -4.808  29.641  0.00  0.00    +0.003 A 
ATOM      8  C   UNL A   1     -26.549  -3.506  30.022  0.00  0.00    +0.035 A 
ATOM      9  C   UNL A   1     -25.659  -2.518  29.910  0.00  0.00    +0.006 A 
ATOM     10  C   UNL A   1     -27.933  -3.236  30.526  0.00  0.00    +0.170 A 
ATOM     11  N   UNL A   1     -28.885  -4.046  30.127  0.00  0.00    -0.107 NA
ATOM     12  N   UNL A   1     -28.178  -1.999  30.958  0.00  0.00    -0.226 NA
ATOM     13  C   UNL A   1     -25.027  -0.342  30.735  0.00  0.00    +0.122 C 
ATOM     14  C   UNL A   1     -26.047  -1.376  30.634  0.00  0.00    +0.017 A 
ATOM     15  C   UNL A   1     -27.286  -1.008  31.119  0.00  0.00    +0.098 A 
ENDROOT
BRANCH   4  16
ATOM     16  C   UNL A   1     -23.051   0.621  29.655  0.00  0.00    +0.121 C 
BRANCH  16  17
ATOM     17  C   UNL A   1     -23.056   1.221  28.371  0.00  0.00    -0.002 A 
ATOM     18  C   UNL A   1     -21.918   1.449  27.794  0.00  0.00    -0.003 A 
ATOM     19  C   UNL A   1     -21.944   1.962  26.442  0.00  0.00    -0.000 A 
ATOM     20  C   UNL A   1     -23.202   2.331  25.946  0.00  0.00    -0.000 A 
ATOM     21  C   UNL A   1     -24.217   1.564  27.655  0.00  0.00    -0.003 A 
ATOM     22  C   UNL A   1     -24.332   2.115  26.496  0.00  0.00    -0.000 A 
ENDBRANCH  16  17
ENDBRANCH   4  16
TORSDOF 2
ENDMDL
ENDMDL
