REMARK  Name = No_524-gen_results/8p0m/2024-11-26-14-13-15/
REMARK  8 active torsions:
REMARK  status: ('A' for Active; 'I' for Inactive)
REMARK    1  A    between atoms: C_3  and  C_6
REMARK    2  A    between atoms: N_4  and  C_14
REMARK    3  A    between atoms: C_6  and  C_7
REMARK    4  A    between atoms: C_8  and  C_9
REMARK    5  A    between atoms: C_10  and  C_11
REMARK    6  A    between atoms: C_16  and  C_24
REMARK    7  A    between atoms: C_24  and  O_26
REMARK    8  A    between atoms: O_26  and  C_27
REMARK                            x       y       z     vdW  Elec       q    Type
REMARK                         _______ _______ _______ _____ _____    ______ ____
ROOT
ATOM      1  O   UNL A   1     -28.123  -1.335  28.487  0.00  0.00    -0.273 OA
ATOM      2  C   UNL A   1     -28.521  -0.436  29.078  0.00  0.00    +0.246 C 
ATOM      3  C   UNL A   1     -28.589   0.592  28.946  0.00  0.00    +0.164 C 
ATOM      4  N   UNL A   1     -29.125  -0.940  30.427  0.00  0.00    -0.253 N 
ATOM      5  N   UNL A   1     -29.248   1.567  29.434  0.00  0.00    -0.177 NA
ATOM      6  C   UNL A   1     -29.805  -0.086  31.234  0.00  0.00    +0.152 C 
ATOM      7  C   UNL A   1     -29.858   1.226  30.749  0.00  0.00    +0.256 C 
ATOM      8  F   UNL A   1     -30.508   2.140  31.402  0.00  0.00    -0.216 F 
ENDROOT
BRANCH   4   9
ATOM      9  C   UNL A   1     -28.924  -2.370  30.830  0.00  0.00    +0.054 A 
ATOM     10  C   UNL A   1     -29.666  -2.781  31.727  0.00  0.00    +0.021 A 
ATOM     11  C   UNL A   1     -29.624  -4.239  31.935  0.00  0.00    +0.077 A 
ATOM     12  C   UNL A   1     -28.827  -5.047  31.139  0.00  0.00    +0.006 A 
ATOM     13  C   UNL A   1     -28.011  -4.464  30.194  0.00  0.00    +0.002 A 
ATOM     14  C   UNL A   1     -28.072  -3.138  30.003  0.00  0.00    +0.015 A 
BRANCH  11  15
ATOM     15  C   UNL A   1     -30.469  -4.971  32.983  0.00  0.00    +0.346 C 
ATOM     16  O   UNL A   1     -30.575  -5.968  33.172  0.00  0.00    -0.244 OA
BRANCH  15  17
ATOM     17  O   UNL A   1     -30.804  -4.055  33.978  0.00  0.00    -0.421 OA
BRANCH  17  18
ATOM     18  C   UNL A   1     -31.663  -4.253  34.778  0.00  0.00    +0.149 A 
ATOM     19  C   UNL A   1     -31.456  -4.417  36.104  0.00  0.00    +0.038 A 
ATOM     20  C   UNL A   1     -32.456  -4.683  36.985  0.00  0.00    +0.003 A 
ATOM     21  C   UNL A   1     -33.770  -4.724  36.469  0.00  0.00    +0.000 A 
ATOM     22  C   UNL A   1     -34.001  -4.550  35.144  0.00  0.00    +0.003 A 
ATOM     23  C   UNL A   1     -32.967  -4.287  34.234  0.00  0.00    +0.038 A 
ENDBRANCH  17  18
ENDBRANCH  15  17
ENDBRANCH  11  15
ENDBRANCH   4   9
BRANCH   3  24
ATOM     24  C   UNL A   1     -27.766   1.145  27.682  0.00  0.00    +0.090 C 
ATOM     25  C   UNL A   1     -28.617   2.064  26.855  0.00  0.00    +0.016 C 
BRANCH  24  26
ATOM     26  C   UNL A   1     -26.704   0.871  27.382  0.00  0.00    -0.077 C 
ATOM     27  C   UNL A   1     -25.677   1.076  27.351  0.00  0.00    -0.014 C 
BRANCH  27  28
ATOM     28  C   UNL A   1     -24.377   1.028  27.579  0.00  0.00    -0.003 C 
ATOM     29  C   UNL A   1     -23.151   1.352  27.738  0.00  0.00    +0.033 C 
BRANCH  29  30
ATOM     30  C   UNL A   1     -21.758   1.409  28.046  0.00  0.00    +0.431 C 
ATOM     31  O   UNL A   1     -21.076   1.930  27.230  0.00  0.00    -0.231 OA
ATOM     32  O   UNL A   1     -21.396   0.875  29.180  0.00  0.00    -0.231 OA
ENDBRANCH  29  30
ENDBRANCH  27  28
ENDBRANCH  24  26
ENDBRANCH   3  24
TORSDOF 8
