MODEL 525
MODEL 1
REMARK VINA RESULT:    -5.237      0.000      0.000
REMARK INTER + INTRA:          -5.719
REMARK INTER:                  -5.543
REMARK INTRA:                  -0.176
REMARK UNBOUND:                -0.176
REMARK  Name = No_525-gen_results/8p0m/2024-11-26-14-13-15/
REMARK  1 active torsions:
REMARK  status: ('A' for Active; 'I' for Inactive)
REMARK    1  A    between atoms: C_3  and  C_7
REMARK                            x       y       z     vdW  Elec       q    Type
REMARK                         _______ _______ _______ _____ _____    ______ ____
ROOT
ATOM      1  C   UNL A   1     -25.548  -2.643  29.816  0.00  0.00    -0.000 A 
ATOM      2  C   UNL A   1     -26.293  -3.377  29.942  0.00  0.00    -0.000 A 
ATOM      3  C   UNL A   1     -24.358  -3.059  29.130  0.00  0.00    -0.000 A 
ATOM      4  C   UNL A   1     -24.109  -4.332  28.808  0.00  0.00    -0.000 A 
ATOM      5  C   UNL A   1     -25.102  -5.232  29.078  0.00  0.00    -0.000 A 
ATOM      6  C   UNL A   1     -26.260  -4.798  29.669  0.00  0.00    -0.000 A 
ENDROOT
BRANCH   3   7
ATOM      7  C   UNL A   1     -23.303  -1.975  28.834  0.00  0.00    -0.005 C 
ATOM      8  C   UNL A   1     -22.875  -1.188  29.581  0.00  0.00    -0.026 C 
ATOM      9  C   UNL A   1     -21.916  -0.154  29.161  0.00  0.00    +0.031 C 
ENDBRANCH   3   7
TORSDOF 1
ENDMDL
ENDMDL
