MODEL 526
MODEL 1
REMARK VINA RESULT:    -6.991      0.000      0.000
REMARK INTER + INTRA:         -10.102
REMARK INTER:                  -9.035
REMARK INTRA:                  -1.067
REMARK UNBOUND:                -1.067
REMARK  Name = No_526-gen_results/8p0m/2024-11-26-14-13-15/
REMARK  5 active torsions:
REMARK  status: ('A' for Active; 'I' for Inactive)
REMARK    1  A    between atoms: C_9  and  C_11
REMARK    2  A    between atoms: C_10  and  C_13
REMARK    3  A    between atoms: C_13  and  O_14
REMARK    4  A    between atoms: O_14  and  C_15
REMARK    5  A    between atoms: C_15  and  C_16
REMARK                            x       y       z     vdW  Elec       q    Type
REMARK                         _______ _______ _______ _____ _____    ______ ____
ROOT
ATOM      1  C   UNL A   1     -22.237   2.157  26.374  0.00  0.00    +0.002 A 
ATOM      2  C   UNL A   1     -23.414   2.025  26.619  0.00  0.00    -0.000 A 
ATOM      3  C   UNL A   1     -23.898   1.230  27.607  0.00  0.00    +0.002 A 
ATOM      4  C   UNL A   1     -22.981   0.511  28.396  0.00  0.00    +0.029 A 
ATOM      5  C   UNL A   1     -21.240   1.527  27.201  0.00  0.00    +0.030 A 
ATOM      6  C   UNL A   1     -21.675   0.694  28.188  0.00  0.00    +0.140 A 
ATOM      7  C   UNL A   1     -24.496   2.757  25.843  0.00  0.00    +0.000 A 
ATOM      8  C   UNL A   1     -25.620   3.263  26.605  0.00  0.00    +0.004 A 
ATOM      9  C   UNL A   1     -26.278   2.338  27.425  0.00  0.00    +0.050 A 
ATOM     10  C   UNL A   1     -25.247   1.447  28.162  0.00  0.00    +0.025 A 
ATOM     11  F   UNL A   1     -20.759  -0.028  28.859  0.00  0.00    -0.204 F 
ENDROOT
BRANCH   9  12
ATOM     12  C   UNL A   1     -27.573   2.533  27.933  0.00  0.00    +0.253 C 
ATOM     13 CL   UNL A   1     -27.987   3.675  28.650  0.00  0.00    -0.038 Cl
ATOM     14  O   UNL A   1     -28.531   1.737  27.325  0.00  0.00    -0.274 OA
ENDBRANCH   9  12
BRANCH  10  15
ATOM     15  C   UNL A   1     -25.847   0.686  29.281  0.00  0.00    +0.235 C 
BRANCH  15  16
ATOM     16  O   UNL A   1     -26.208  -0.418  28.821  0.00  0.00    -0.440 OA
BRANCH  16  17
ATOM     17  C   UNL A   1     -26.053  -1.423  29.736  0.00  0.00    +0.342 C 
ATOM     18  O   UNL A   1     -26.474  -1.035  30.931  0.00  0.00    -0.245 OA
BRANCH  17  19
ATOM     19  C   UNL A   1     -25.652  -2.494  29.439  0.00  0.00    +0.076 A 
ATOM     20  C   UNL A   1     -24.581  -2.782  28.917  0.00  0.00    +0.006 A 
ATOM     21  C   UNL A   1     -24.005  -4.122  28.587  0.00  0.00    +0.000 A 
ATOM     22  C   UNL A   1     -24.842  -5.175  28.941  0.00  0.00    +0.000 A 
ATOM     23  C   UNL A   1     -26.026  -5.008  29.567  0.00  0.00    +0.000 A 
ATOM     24  C   UNL A   1     -26.460  -3.663  29.870  0.00  0.00    +0.006 A 
ENDBRANCH  17  19
ENDBRANCH  16  17
ENDBRANCH  15  16
ENDBRANCH  10  15
TORSDOF 5
ENDMDL
ENDMDL
