REMARK  Name = No_527-gen_results/8p0m/2024-11-26-14-13-15/
REMARK  4 active torsions:
REMARK  status: ('A' for Active; 'I' for Inactive)
REMARK    1  A    between atoms: C_1  and  C_2
REMARK    2  A    between atoms: C_1  and  C_8
REMARK    3  A    between atoms: C_8  and  C_9
REMARK    4  A    between atoms: C_8  and  C_16
REMARK                            x       y       z     vdW  Elec       q    Type
REMARK                         _______ _______ _______ _____ _____    ______ ____
ROOT
ATOM      1  C   UNL A   1     -28.735  -0.464  30.142  0.00  0.00    +0.048 C 
ENDROOT
BRANCH   1   2
ATOM      2  C   UNL A   1     -29.811  -1.305  30.601  0.00  0.00    -0.018 A 
ATOM      3  C   UNL A   1     -30.902  -1.067  30.648  0.00  0.00    -0.004 A 
ATOM      4  C   UNL A   1     -31.963  -2.034  31.095  0.00  0.00    -0.000 A 
ATOM      5  C   UNL A   1     -31.521  -3.324  31.387  0.00  0.00    -0.000 A 
ATOM      6  C   UNL A   1     -30.196  -3.689  31.287  0.00  0.00    -0.000 A 
ATOM      7  C   UNL A   1     -29.244  -2.704  30.879  0.00  0.00    -0.004 A 
ENDBRANCH   1   2
BRANCH   1   8
ATOM      8  C   UNL A   1     -28.494   0.765  30.866  0.00  0.00    -0.026 C 
ATOM      9  C   UNL A   1     -29.142   1.926  30.510  0.00  0.00    -0.030 C 
ATOM     10  C   UNL A   1     -29.023   2.957  31.047  0.00  0.00    +0.030 C 
ENDBRANCH   1   8
BRANCH   1  11
ATOM     11  C   UNL A   1     -28.016  -0.814  28.878  0.00  0.00    +0.035 C 
BRANCH  11  12
ATOM     12  C   UNL A   1     -27.064  -0.119  28.608  0.00  0.00    -0.021 A 
ATOM     13  C   UNL A   1     -27.001   0.691  27.491  0.00  0.00    -0.002 A 
ATOM     14  C   UNL A   1     -25.855   1.482  27.083  0.00  0.00    +0.029 A 
ATOM     15  C   UNL A   1     -24.690   1.453  27.881  0.00  0.00    +0.140 A 
ATOM     16  C   UNL A   1     -24.738   0.601  29.042  0.00  0.00    +0.029 A 
ATOM     17  C   UNL A   1     -25.823  -0.169  29.389  0.00  0.00    -0.002 A 
ATOM     18  F   UNL A   1     -23.660   2.138  27.584  0.00  0.00    -0.204 F 
ENDBRANCH  11  12
ENDBRANCH   1  11
TORSDOF 4
