MODEL 527
MODEL 1
REMARK VINA RESULT:    -7.476      0.000      0.000
REMARK INTER + INTRA:         -10.106
REMARK INTER:                  -9.225
REMARK INTRA:                  -0.881
REMARK UNBOUND:                -0.881
REMARK  Name = No_527-gen_results/8p0m/2024-11-26-14-13-15/
REMARK  4 active torsions:
REMARK  status: ('A' for Active; 'I' for Inactive)
REMARK    1  A    between atoms: C_1  and  C_2
REMARK    2  A    between atoms: C_1  and  C_8
REMARK    3  A    between atoms: C_8  and  C_9
REMARK    4  A    between atoms: C_8  and  C_16
REMARK                            x       y       z     vdW  Elec       q    Type
REMARK                         _______ _______ _______ _____ _____    ______ ____
ROOT
ATOM      1  C   UNL A   1     -24.320  -1.233  29.489  0.00  0.00    +0.048 C 
ENDROOT
BRANCH   1   2
ATOM      2  C   UNL A   1     -24.534  -2.632  29.220  0.00  0.00    -0.018 A 
ATOM      3  C   UNL A   1     -23.823  -3.365  28.766  0.00  0.00    -0.004 A 
ATOM      4  C   UNL A   1     -24.119  -4.826  28.571  0.00  0.00    -0.000 A 
ATOM      5  C   UNL A   1     -25.342  -5.267  29.074  0.00  0.00    -0.000 A 
ATOM      6  C   UNL A   1     -26.231  -4.419  29.698  0.00  0.00    -0.000 A 
ATOM      7  C   UNL A   1     -25.887  -3.037  29.821  0.00  0.00    -0.004 A 
ENDBRANCH   1   2
BRANCH   1   8
ATOM      8  C   UNL A   1     -23.432  -0.892  30.579  0.00  0.00    -0.026 C 
ATOM      9  C   UNL A   1     -23.688  -1.337  31.856  0.00  0.00    -0.030 C 
ATOM     10  C   UNL A   1     -23.018  -1.127  32.791  0.00  0.00    +0.030 C 
ENDBRANCH   1   8
BRANCH   1  11
ATOM     11  C   UNL A   1     -25.116  -0.210  28.743  0.00  0.00    +0.035 C 
BRANCH  11  12
ATOM     12  C   UNL A   1     -24.521   0.383  27.873  0.00  0.00    -0.021 A 
ATOM     13  C   UNL A   1     -23.444   1.213  28.113  0.00  0.00    -0.002 A 
ATOM     14  C   UNL A   1     -22.747   2.005  27.117  0.00  0.00    +0.029 A 
ATOM     15  C   UNL A   1     -23.175   1.936  25.773  0.00  0.00    +0.140 A 
ATOM     16  C   UNL A   1     -24.308   1.084  25.511  0.00  0.00    +0.029 A 
ATOM     17  C   UNL A   1     -24.976   0.371  26.478  0.00  0.00    -0.002 A 
ATOM     18  F   UNL A   1     -22.594   2.594  24.852  0.00  0.00    -0.204 F 
ENDBRANCH  11  12
ENDBRANCH   1  11
TORSDOF 4
ENDMDL
ENDMDL
