MODEL 528
MODEL 1
REMARK VINA RESULT:    -4.289      0.000      0.000
REMARK INTER + INTRA:          -4.289
REMARK INTER:                  -4.289
REMARK INTRA:                   0.000
REMARK UNBOUND:                 0.000
REMARK  Name = No_528-gen_results/8p0m/2024-11-26-14-13-15/
REMARK  0 active torsions:
REMARK  status: ('A' for Active; 'I' for Inactive)
REMARK                            x       y       z     vdW  Elec       q    Type
REMARK                         _______ _______ _______ _____ _____    ______ ____
ROOT
ATOM      1  C   UNL A   1     -24.955  -5.365  28.976  0.00  0.00    +0.000 A 
ATOM      2  C   UNL A   1     -24.173  -4.703  28.730  0.00  0.00    +0.000 A 
ATOM      3  C   UNL A   1     -26.093  -4.712  29.623  0.00  0.00    +0.000 A 
ATOM      4  C   UNL A   1     -26.121  -3.359  29.858  0.00  0.00    +0.000 A 
ATOM      5  C   UNL A   1     -23.933  -3.265  28.851  0.00  0.00    +0.000 A 
ATOM      6  C   UNL A   1     -25.029  -2.624  29.476  0.00  0.00    +0.000 A 
ENDROOT
TORSDOF 0
ENDMDL
ENDMDL
