MODEL 529
MODEL 1
REMARK VINA RESULT:    -5.867      0.000      0.000
REMARK INTER + INTRA:          -5.867
REMARK INTER:                  -5.867
REMARK INTRA:                   0.000
REMARK UNBOUND:                 0.000
REMARK  Name = No_529-gen_results/8p0m/2024-11-26-14-13-15/
REMARK  0 active torsions:
REMARK  status: ('A' for Active; 'I' for Inactive)
REMARK                            x       y       z     vdW  Elec       q    Type
REMARK                         _______ _______ _______ _____ _____    ______ ____
ROOT
ATOM      1  C   UNL A   1     -24.606  -2.825  29.015  0.00  0.00    -0.004 A 
ATOM      2  C   UNL A   1     -23.860  -3.534  28.787  0.00  0.00    -0.000 A 
ATOM      3  C   UNL A   1     -25.688  -3.287  29.838  0.00  0.00    -0.000 A 
ATOM      4  C   UNL A   1     -26.678  -2.340  30.392  0.00  0.00    -0.000 A 
ATOM      5  C   UNL A   1     -26.283  -1.016  30.659  0.00  0.00    -0.000 A 
ATOM      6  C   UNL A   1     -25.017  -0.579  30.218  0.00  0.00    -0.004 A 
ATOM      7  C   UNL A   1     -24.187  -1.417  29.569  0.00  0.00    -0.022 A 
ATOM      8  C   UNL A   1     -24.003  -4.822  28.500  0.00  0.00    -0.000 A 
ATOM      9  C   UNL A   1     -25.224  -5.349  29.028  0.00  0.00    -0.000 A 
ATOM     10  C   UNL A   1     -26.159  -4.561  29.669  0.00  0.00    -0.000 A 
ATOM     11  C   UNL A   1     -22.848  -1.019  29.198  0.00  0.00    +0.031 C 
ENDROOT
TORSDOF 0
ENDMDL
ENDMDL
