MODEL 52
MODEL 1
REMARK VINA RESULT:    -4.818      0.000      0.000
REMARK INTER + INTRA:          -5.874
REMARK INTER:                  -5.663
REMARK INTRA:                  -0.211
REMARK UNBOUND:                -0.211
REMARK  Name = No_52-gen_results/8p0m/2024-11-26-14-13-15/
REMARK  3 active torsions:
REMARK  status: ('A' for Active; 'I' for Inactive)
REMARK    1  A    between atoms: C_2  and  C_7
REMARK    2  A    between atoms: C_7  and  N_8
REMARK    3  A    between atoms: N_8  and  C_9
REMARK                            x       y       z     vdW  Elec       q    Type
REMARK                         _______ _______ _______ _____ _____    ______ ____
ROOT
ATOM      1  C   UNL A   1     -23.849  -3.406  28.666  0.00  0.00    -0.003 A 
ATOM      2  C   UNL A   1     -24.528  -2.763  29.153  0.00  0.00    -0.001 A 
ATOM      3  C   UNL A   1     -24.183  -4.839  28.669  0.00  0.00    -0.000 A 
ATOM      4  C   UNL A   1     -25.433  -5.292  29.183  0.00  0.00    -0.000 A 
ATOM      5  C   UNL A   1     -25.896  -2.964  29.704  0.00  0.00    -0.003 A 
ATOM      6  C   UNL A   1     -26.237  -4.283  29.732  0.00  0.00    -0.000 A 
ENDROOT
BRANCH   2   7
ATOM      7  C   UNL A   1     -24.211  -1.200  29.156  0.00  0.00    +0.139 C 
BRANCH   7   8
ATOM      8  N   UNL A   1     -23.534  -0.804  30.141  0.00  0.00    -0.232 NA
BRANCH   8   9
ATOM      9  C   UNL A   1     -22.299  -0.407  30.110  0.00  0.00    +0.081 C 
ATOM     10  C   UNL A   1     -21.607  -0.153  28.881  0.00  0.00    +0.019 C 
ENDBRANCH   8   9
ENDBRANCH   7   8
ENDBRANCH   2   7
TORSDOF 3
ENDMDL
ENDMDL
