REMARK  Name = No_53-gen_results/8p0m/2024-11-26-14-13-15/
REMARK  4 active torsions:
REMARK  status: ('A' for Active; 'I' for Inactive)
REMARK    1  A    between atoms: C_3  and  C_4
REMARK    2  A    between atoms: C_4  and  C_5
REMARK    3  A    between atoms: C_4  and  C_9
REMARK    4  A    between atoms: C_5  and  C_11
REMARK                            x       y       z     vdW  Elec       q    Type
REMARK                         _______ _______ _______ _____ _____    ______ ____
ROOT
ATOM      1  C   UNL A   1     -28.016  -0.814  28.878  0.00  0.00    -0.000 A 
ATOM      2  C   UNL A   1     -27.064  -0.119  28.608  0.00  0.00    -0.004 A 
ATOM      3  C   UNL A   1     -26.876   1.133  28.913  0.00  0.00    -0.018 A 
ATOM      4  C   UNL A   1     -29.097  -0.235  29.699  0.00  0.00    -0.000 A 
ATOM      5  C   UNL A   1     -29.030   1.073  30.032  0.00  0.00    -0.000 A 
ATOM      6  C   UNL A   1     -27.855   1.859  29.680  0.00  0.00    -0.004 A 
ENDROOT
BRANCH   3   7
ATOM      7  C   UNL A   1     -25.688   1.952  28.567  0.00  0.00    +0.044 C 
BRANCH   7   8
ATOM      8  C   UNL A   1     -24.665   1.337  27.741  0.00  0.00    -0.022 C 
ATOM      9  C   UNL A   1     -23.558   2.046  27.291  0.00  0.00    -0.005 C 
ENDBRANCH   7   8
BRANCH   7  10
ATOM     10  C   UNL A   1     -25.509   3.304  28.886  0.00  0.00    +0.009 C 
BRANCH  10  11
ATOM     11  C   UNL A   1     -26.483   3.996  29.674  0.00  0.00    +0.001 C 
ATOM     12  C   UNL A   1     -26.312   5.391  30.078  0.00  0.00    +0.000 C 
ENDBRANCH  10  11
ENDBRANCH   7  10
ENDBRANCH   3   7
TORSDOF 4
