REMARK  Name = No_530-gen_results/8p0m/2024-11-26-14-13-15/
REMARK  1 active torsions:
REMARK  status: ('A' for Active; 'I' for Inactive)
REMARK    1  A    between atoms: C_7  and  C_14
REMARK                            x       y       z     vdW  Elec       q    Type
REMARK                         _______ _______ _______ _____ _____    ______ ____
ROOT
ATOM      1  C   UNL A   1     -28.016  -0.814  28.878  0.00  0.00    -0.012 A 
ATOM      2  C   UNL A   1     -28.469  -0.785  29.829  0.00  0.00    -0.004 A 
ATOM      3  C   UNL A   1     -28.196   0.348  28.055  0.00  0.00    -0.007 A 
ATOM      4  C   UNL A   1     -27.442   0.510  26.795  0.00  0.00    -0.012 A 
ATOM      5  C   UNL A   1     -26.169  -0.079  26.679  0.00  0.00    +0.080 C 
ATOM      6  C   UNL A   1     -25.731  -0.961  27.688  0.00  0.00    +0.032 C 
ATOM      7  C   UNL A   1     -26.504  -1.222  28.758  0.00  0.00    +0.127 C 
ATOM      8  C   UNL A   1     -29.580  -0.243  30.217  0.00  0.00    -0.000 A 
ATOM      9  C   UNL A   1     -30.057   0.724  29.310  0.00  0.00    -0.000 A 
ATOM     10  C   UNL A   1     -29.360   1.053  28.122  0.00  0.00    -0.001 A 
ATOM     11  C   UNL A   1     -29.811   2.005  27.177  0.00  0.00    -0.000 A 
ATOM     12  C   UNL A   1     -27.729   1.431  25.745  0.00  0.00    -0.004 A 
ATOM     13  C   UNL A   1     -28.953   2.193  25.966  0.00  0.00    -0.000 A 
ATOM     14 BR   UNL A   1     -24.995   0.219  25.271  0.00  0.00    -0.077 Br
ENDROOT
BRANCH   7  15
ATOM     15  C   UNL A   1     -26.056  -2.256  29.722  0.00  0.00    +0.368 C 
ATOM     16  O   UNL A   1     -24.959  -2.326  30.004  0.00  0.00    -0.245 OA
ATOM     17  O   UNL A   1     -26.942  -3.104  30.200  0.00  0.00    -0.245 OA
ENDBRANCH   7  15
TORSDOF 1
