MODEL 530
MODEL 1
REMARK VINA RESULT:    -6.818      0.000      0.000
REMARK INTER + INTRA:          -7.290
REMARK INTER:                  -7.216
REMARK INTRA:                  -0.073
REMARK UNBOUND:                -0.073
REMARK  Name = No_530-gen_results/8p0m/2024-11-26-14-13-15/
REMARK  1 active torsions:
REMARK  status: ('A' for Active; 'I' for Inactive)
REMARK    1  A    between atoms: C_7  and  C_14
REMARK                            x       y       z     vdW  Elec       q    Type
REMARK                         _______ _______ _______ _____ _____    ______ ____
ROOT
ATOM      1  C   UNL A   1     -24.608  -2.557  29.121  0.00  0.00    -0.012 A 
ATOM      2  C   UNL A   1     -23.884  -3.278  28.864  0.00  0.00    -0.004 A 
ATOM      3  C   UNL A   1     -25.723  -3.026  29.893  0.00  0.00    -0.007 A 
ATOM      4  C   UNL A   1     -26.689  -2.079  30.485  0.00  0.00    -0.012 A 
ATOM      5  C   UNL A   1     -26.251  -0.789  30.842  0.00  0.00    +0.080 C 
ATOM      6  C   UNL A   1     -24.961  -0.375  30.452  0.00  0.00    +0.032 C 
ATOM      7  C   UNL A   1     -24.148  -1.202  29.769  0.00  0.00    +0.127 C 
ATOM      8  C   UNL A   1     -24.011  -4.535  28.577  0.00  0.00    -0.000 A 
ATOM      9  C   UNL A   1     -25.242  -5.068  29.008  0.00  0.00    -0.000 A 
ATOM     10  C   UNL A   1     -26.203  -4.286  29.694  0.00  0.00    -0.001 A 
ATOM     11  C   UNL A   1     -27.457  -4.776  30.130  0.00  0.00    -0.000 A 
ATOM     12  C   UNL A   1     -27.981  -2.392  31.001  0.00  0.00    -0.004 A 
ATOM     13  C   UNL A   1     -28.353  -3.789  30.810  0.00  0.00    -0.000 A 
ATOM     14 BR   UNL A   1     -27.260   0.436  31.806  0.00  0.00    -0.077 Br
ENDROOT
BRANCH   7  15
ATOM     15  C   UNL A   1     -22.856  -0.675  29.268  0.00  0.00    +0.368 C 
ATOM     16  O   UNL A   1     -21.922  -0.774  29.905  0.00  0.00    -0.245 OA
ATOM     17  O   UNL A   1     -22.831  -0.059  28.105  0.00  0.00    -0.245 OA
ENDBRANCH   7  15
TORSDOF 1
ENDMDL
ENDMDL
