MODEL 531
MODEL 1
REMARK VINA RESULT:    -6.553      0.000      0.000
REMARK INTER + INTRA:          -7.251
REMARK INTER:                  -6.936
REMARK INTRA:                  -0.316
REMARK UNBOUND:                -0.316
REMARK  Name = No_531-gen_results/8p0m/2024-11-26-14-13-15/
REMARK  1 active torsions:
REMARK  status: ('A' for Active; 'I' for Inactive)
REMARK    1  A    between atoms: C_3  and  C_7
REMARK                            x       y       z     vdW  Elec       q    Type
REMARK                         _______ _______ _______ _____ _____    ______ ____
ROOT
ATOM      1  C   UNL A   1     -24.663  -4.965  28.943  0.00  0.00    +0.000 A 
ATOM      2  C   UNL A   1     -24.057  -3.950  28.691  0.00  0.00    +0.000 A 
ATOM      3  C   UNL A   1     -24.523  -2.674  29.005  0.00  0.00    +0.000 A 
ATOM      4  C   UNL A   1     -25.831  -2.531  29.615  0.00  0.00    +0.000 A 
ATOM      5  C   UNL A   1     -26.504  -3.726  29.870  0.00  0.00    +0.000 A 
ATOM      6  C   UNL A   1     -25.992  -4.892  29.528  0.00  0.00    +0.000 A 
ENDROOT
BRANCH   3   7
ATOM      7  C   UNL A   1     -23.831  -1.381  28.734  0.00  0.00    +0.000 A 
ATOM      8  C   UNL A   1     -24.304  -0.507  27.896  0.00  0.00    +0.000 A 
ATOM      9  C   UNL A   1     -23.585   0.697  27.587  0.00  0.00    +0.000 A 
ATOM     10  C   UNL A   1     -22.334   0.948  28.033  0.00  0.00    +0.000 A 
ATOM     11  C   UNL A   1     -22.470  -1.160  29.247  0.00  0.00    +0.000 A 
ATOM     12  C   UNL A   1     -21.760   0.020  28.877  0.00  0.00    +0.000 A 
ENDBRANCH   3   7
TORSDOF 1
ENDMDL
ENDMDL
