REMARK  Name = No_532-gen_results/8p0m/2024-11-26-14-13-15/
REMARK  1 active torsions:
REMARK  status: ('A' for Active; 'I' for Inactive)
REMARK    1  A    between atoms: C_4  and  C_7
REMARK                            x       y       z     vdW  Elec       q    Type
REMARK                         _______ _______ _______ _____ _____    ______ ____
ROOT
ATOM      1  C   UNL A   1     -28.016  -0.814  28.878  0.00  0.00    +0.000 A 
ATOM      2  C   UNL A   1     -28.469  -0.785  29.829  0.00  0.00    +0.000 A 
ATOM      3  C   UNL A   1     -26.603  -1.060  28.538  0.00  0.00    +0.000 A 
ATOM      4  C   UNL A   1     -25.826  -0.865  29.318  0.00  0.00    +0.000 A 
ATOM      5  C   UNL A   1     -26.157  -0.710  30.787  0.00  0.00    +0.000 A 
ATOM      6  C   UNL A   1     -27.538  -0.638  31.013  0.00  0.00    +0.000 A 
ENDROOT
BRANCH   4   7
ATOM      7  C   UNL A   1     -24.296  -0.964  29.228  0.00  0.00    +0.000 A 
ATOM      8  C   UNL A   1     -23.421  -1.818  29.506  0.00  0.00    +0.000 A 
ATOM      9  C   UNL A   1     -23.763   0.262  28.470  0.00  0.00    +0.000 A 
ATOM     10  C   UNL A   1     -22.364   0.396  28.345  0.00  0.00    +0.000 A 
ATOM     11  C   UNL A   1     -22.011  -1.718  29.351  0.00  0.00    +0.000 A 
ATOM     12  C   UNL A   1     -21.499  -0.533  28.809  0.00  0.00    +0.000 A 
ENDBRANCH   4   7
TORSDOF 1
