MODEL 532
MODEL 1
REMARK VINA RESULT:    -6.435      0.000      0.000
REMARK INTER + INTRA:          -7.150
REMARK INTER:                  -6.811
REMARK INTRA:                  -0.339
REMARK UNBOUND:                -0.339
REMARK  Name = No_532-gen_results/8p0m/2024-11-26-14-13-15/
REMARK  1 active torsions:
REMARK  status: ('A' for Active; 'I' for Inactive)
REMARK    1  A    between atoms: C_4  and  C_7
REMARK                            x       y       z     vdW  Elec       q    Type
REMARK                         _______ _______ _______ _____ _____    ______ ____
ROOT
ATOM      1  C   UNL A   1     -26.470  -3.575  29.981  0.00  0.00    +0.000 A 
ATOM      2  C   UNL A   1     -26.287  -4.563  29.665  0.00  0.00    +0.000 A 
ATOM      3  C   UNL A   1     -25.731  -2.347  29.639  0.00  0.00    +0.000 A 
ATOM      4  C   UNL A   1     -24.670  -2.441  29.298  0.00  0.00    +0.000 A 
ATOM      5  C   UNL A   1     -24.070  -3.751  28.832  0.00  0.00    +0.000 A 
ATOM      6  C   UNL A   1     -24.923  -4.837  29.069  0.00  0.00    +0.000 A 
ENDROOT
BRANCH   4   7
ATOM      7  C   UNL A   1     -23.649  -1.349  28.947  0.00  0.00    +0.000 A 
ATOM      8  C   UNL A   1     -22.441  -1.119  29.192  0.00  0.00    +0.000 A 
ATOM      9  C   UNL A   1     -24.277  -0.395  27.919  0.00  0.00    +0.000 A 
ATOM     10  C   UNL A   1     -23.519   0.727  27.521  0.00  0.00    +0.000 A 
ATOM     11  C   UNL A   1     -21.649  -0.017  28.768  0.00  0.00    +0.000 A 
ATOM     12  C   UNL A   1     -22.261   0.950  27.961  0.00  0.00    +0.000 A 
ENDBRANCH   4   7
TORSDOF 1
ENDMDL
ENDMDL
