REMARK  Name = No_533-gen_results/8p0m/2024-11-26-14-13-15/
REMARK  1 active torsions:
REMARK  status: ('A' for Active; 'I' for Inactive)
REMARK    1  A    between atoms: C_5  and  C_8
REMARK                            x       y       z     vdW  Elec       q    Type
REMARK                         _______ _______ _______ _____ _____    ______ ____
ROOT
ATOM      1  F   UNL A   1     -28.073  -1.254  28.532  0.00  0.00    -0.233 F 
ATOM      2  C   UNL A   1     -27.359  -0.379  28.722  0.00  0.00    +0.216 C 
ATOM      3  C   UNL A   1     -26.810   0.189  27.651  0.00  0.00    +0.211 C 
ATOM      4  C   UNL A   1     -25.602   0.953  27.683  0.00  0.00    +0.133 C 
ATOM      5  C   UNL A   1     -25.037   1.233  29.000  0.00  0.00    +0.180 C 
ATOM      6  C   UNL A   1     -25.616   0.586  30.087  0.00  0.00    +0.180 C 
ATOM      7  C   UNL A   1     -26.606  -0.230  29.962  0.00  0.00    +0.173 C 
ATOM      8 CL   UNL A   1     -27.292  -0.976  31.367  0.00  0.00    -0.104 Cl
ATOM      9  F   UNL A   1     -27.197  -0.040  26.436  0.00  0.00    -0.233 F 
ATOM     10 CL   UNL A   1     -24.978   1.665  26.277  0.00  0.00    -0.111 Cl
ATOM     11  O   UNL A   1     -25.052   0.834  31.328  0.00  0.00    -0.294 OA
ENDROOT
BRANCH   5  12
ATOM     12  C   UNL A   1     -23.893   2.110  29.076  0.00  0.00    +0.373 C 
ATOM     13  O   UNL A   1     -23.571   2.339  30.155  0.00  0.00    -0.245 OA
ATOM     14  O   UNL A   1     -23.242   2.453  28.027  0.00  0.00    -0.245 OA
ENDBRANCH   5  12
TORSDOF 1
