MODEL 533
MODEL 1
REMARK VINA RESULT:    -5.041      0.000      0.000
REMARK INTER + INTRA:          -5.508
REMARK INTER:                  -5.336
REMARK INTRA:                  -0.172
REMARK UNBOUND:                -0.172
REMARK  Name = No_533-gen_results/8p0m/2024-11-26-14-13-15/
REMARK  1 active torsions:
REMARK  status: ('A' for Active; 'I' for Inactive)
REMARK    1  A    between atoms: C_5  and  C_8
REMARK                            x       y       z     vdW  Elec       q    Type
REMARK                         _______ _______ _______ _____ _____    ______ ____
ROOT
ATOM      1  F   UNL A   1     -21.576   0.367  29.528  0.00  0.00    -0.233 F 
ATOM      2  C   UNL A   1     -22.269   0.229  28.627  0.00  0.00    +0.216 C 
ATOM      3  C   UNL A   1     -22.203   1.156  27.674  0.00  0.00    +0.211 C 
ATOM      4  C   UNL A   1     -23.250   1.412  26.735  0.00  0.00    +0.133 C 
ATOM      5  C   UNL A   1     -24.385   0.493  26.750  0.00  0.00    +0.180 C 
ATOM      6  C   UNL A   1     -24.434  -0.433  27.787  0.00  0.00    +0.180 C 
ATOM      7  C   UNL A   1     -23.532  -0.495  28.706  0.00  0.00    +0.173 C 
ATOM      8 CL   UNL A   1     -23.648  -1.696  29.950  0.00  0.00    -0.104 Cl
ATOM      9  F   UNL A   1     -21.272   2.055  27.606  0.00  0.00    -0.233 F 
ATOM     10 CL   UNL A   1     -23.081   2.596  25.535  0.00  0.00    -0.111 Cl
ATOM     11  O   UNL A   1     -25.531  -1.279  27.811  0.00  0.00    -0.294 OA
ENDROOT
BRANCH   5  12
ATOM     12  C   UNL A   1     -25.395   0.643  25.731  0.00  0.00    +0.373 C 
ATOM     13  O   UNL A   1     -25.194   0.003  24.798  0.00  0.00    -0.245 OA
ATOM     14  O   UNL A   1     -26.466   1.315  25.943  0.00  0.00    -0.245 OA
ENDBRANCH   5  12
TORSDOF 1
ENDMDL
ENDMDL
