REMARK  Name = No_534-gen_results/8p0m/2024-11-26-14-13-15/
REMARK  7 active torsions:
REMARK  status: ('A' for Active; 'I' for Inactive)
REMARK    1  A    between atoms: C_3  and  C_7
REMARK    2  A    between atoms: C_7  and  C_8
REMARK    3  A    between atoms: C_8  and  C_9
REMARK    4  A    between atoms: C_9  and  C_10
REMARK    5  A    between atoms: C_10  and  C_13
REMARK    6  A    between atoms: C_11  and  C_12
REMARK    7  A    between atoms: C_15  and  C_16
REMARK                            x       y       z     vdW  Elec       q    Type
REMARK                         _______ _______ _______ _____ _____    ______ ____
ROOT
ATOM      1  C   UNL A   1     -25.238   1.232  27.467  0.00  0.00    +0.030 C 
ENDROOT
BRANCH   1   2
ATOM      2  C   UNL A   1     -24.410   1.042  28.366  0.00  0.00    +0.020 C 
ATOM      3  C   UNL A   1     -24.344   0.070  29.169  0.00  0.00    -0.001 C 
BRANCH   3   4
ATOM      4  C   UNL A   1     -23.399   0.059  30.236  0.00  0.00    -0.000 C 
ATOM      5  C   UNL A   1     -23.427  -1.087  31.059  0.00  0.00    -0.000 C 
BRANCH   5   6
ATOM      6  C   UNL A   1     -24.245  -2.136  30.783  0.00  0.00    -0.000 C 
ATOM      7  C   UNL A   1     -24.996  -2.198  29.630  0.00  0.00    -0.000 C 
ENDBRANCH   5   6
ENDBRANCH   3   4
BRANCH   2   8
ATOM      8  C   UNL A   1     -23.495   2.217  28.729  0.00  0.00    +0.230 C 
ATOM      9  O   UNL A   1     -23.513   3.208  27.896  0.00  0.00    -0.283 OA
ENDBRANCH   2   8
ENDBRANCH   1   2
BRANCH   1  10
ATOM     10  C   UNL A   1     -25.981   0.255  26.784  0.00  0.00    +0.009 C 
BRANCH  10  11
ATOM     11  C   UNL A   1     -27.448   0.380  26.712  0.00  0.00    +0.027 C 
BRANCH  11  14
ATOM     12  C   UNL A   1     -28.016  -0.814  28.878  0.00  0.00    -0.004 A 
ATOM     13  C   UNL A   1     -28.469  -0.785  29.829  0.00  0.00    -0.000 A 
ATOM     14  C   UNL A   1     -28.196   0.348  28.055  0.00  0.00    -0.022 A 
ATOM     15  C   UNL A   1     -29.019   1.350  28.378  0.00  0.00    -0.004 A 
ATOM     16  C   UNL A   1     -29.411   0.180  30.378  0.00  0.00    -0.000 A 
ATOM     17  C   UNL A   1     -29.606   1.250  29.619  0.00  0.00    -0.000 A 
ENDBRANCH  11  14
ENDBRANCH  10  11
ENDBRANCH   1  10
TORSDOF 7
