MODEL 534
MODEL 1
REMARK VINA RESULT:    -5.577      0.000      0.000
REMARK INTER + INTRA:          -9.261
REMARK INTER:                  -7.859
REMARK INTRA:                  -1.402
REMARK UNBOUND:                -1.402
REMARK  Name = No_534-gen_results/8p0m/2024-11-26-14-13-15/
REMARK  7 active torsions:
REMARK  status: ('A' for Active; 'I' for Inactive)
REMARK    1  A    between atoms: C_3  and  C_7
REMARK    2  A    between atoms: C_7  and  C_8
REMARK    3  A    between atoms: C_8  and  C_9
REMARK    4  A    between atoms: C_9  and  C_10
REMARK    5  A    between atoms: C_10  and  C_13
REMARK    6  A    between atoms: C_11  and  C_12
REMARK    7  A    between atoms: C_15  and  C_16
REMARK                            x       y       z     vdW  Elec       q    Type
REMARK                         _______ _______ _______ _____ _____    ______ ____
ROOT
ATOM      1  C   UNL A   1     -22.514   0.902  28.437  0.00  0.00    +0.030 C 
ENDROOT
BRANCH   1   2
ATOM      2  C   UNL A   1     -23.466   0.266  28.904  0.00  0.00    +0.020 C 
ATOM      3  C   UNL A   1     -23.965  -0.812  28.475  0.00  0.00    -0.001 C 
BRANCH   3   4
ATOM      4  C   UNL A   1     -25.147  -1.358  29.054  0.00  0.00    -0.000 C 
ATOM      5  C   UNL A   1     -25.139  -2.756  29.245  0.00  0.00    -0.000 C 
BRANCH   5   6
ATOM      6  C   UNL A   1     -24.036  -3.501  28.972  0.00  0.00    -0.000 C 
ATOM      7  C   UNL A   1     -24.120  -4.788  28.491  0.00  0.00    -0.000 C 
ENDBRANCH   5   6
ENDBRANCH   3   4
BRANCH   2   8
ATOM      8  C   UNL A   1     -24.309   0.962  29.978  0.00  0.00    +0.230 C 
ATOM      9  O   UNL A   1     -23.731   1.955  30.575  0.00  0.00    -0.283 OA
ENDBRANCH   2   8
ENDBRANCH   1   2
BRANCH   1  10
ATOM     10  C   UNL A   1     -22.392   1.402  27.130  0.00  0.00    +0.009 C 
BRANCH  10  11
ATOM     11  C   UNL A   1     -23.416   2.328  26.611  0.00  0.00    +0.027 C 
BRANCH  11  14
ATOM     12  C   UNL A   1     -25.913   2.300  26.158  0.00  0.00    -0.004 A 
ATOM     13  C   UNL A   1     -26.726   1.892  25.628  0.00  0.00    -0.000 A 
ATOM     14  C   UNL A   1     -24.638   1.677  25.942  0.00  0.00    -0.022 A 
ATOM     15  C   UNL A   1     -24.488   0.545  25.248  0.00  0.00    -0.004 A 
ATOM     16  C   UNL A   1     -26.799   0.668  24.841  0.00  0.00    -0.000 A 
ATOM     17  C   UNL A   1     -25.632   0.068  24.651  0.00  0.00    -0.000 A 
ENDBRANCH  11  14
ENDBRANCH  10  11
ENDBRANCH   1  10
TORSDOF 7
ENDMDL
ENDMDL
