MODEL 535
MODEL 1
REMARK VINA RESULT:    -4.503      0.000      0.000
REMARK INTER + INTRA:          -4.503
REMARK INTER:                  -4.503
REMARK INTRA:                   0.000
REMARK UNBOUND:                 0.000
REMARK  Name = No_535-gen_results/8p0m/2024-11-26-14-13-15/
REMARK  0 active torsions:
REMARK  status: ('A' for Active; 'I' for Inactive)
REMARK                            x       y       z     vdW  Elec       q    Type
REMARK                         _______ _______ _______ _____ _____    ______ ____
ROOT
ATOM      1  C   UNL A   1     -26.545  -3.838  29.844  0.00  0.00    +0.001 A 
ATOM      2  C   UNL A   1     -26.238  -4.812  29.585  0.00  0.00    +0.000 A 
ATOM      3  C   UNL A   1     -25.543  -2.770  29.697  0.00  0.00    +0.011 A 
ATOM      4  C   UNL A   1     -24.277  -3.041  29.100  0.00  0.00    +0.058 A 
ATOM      5  C   UNL A   1     -24.042  -4.348  28.757  0.00  0.00    +0.011 A 
ATOM      6  C   UNL A   1     -24.989  -5.294  28.938  0.00  0.00    +0.001 A 
ATOM      7 CL   UNL A   1     -23.133  -1.843  28.912  0.00  0.00    -0.082 Cl
ENDROOT
TORSDOF 0
ENDMDL
ENDMDL
