REMARK  Name = No_536-gen_results/8p0m/2024-11-26-14-13-15/
REMARK  2 active torsions:
REMARK  status: ('A' for Active; 'I' for Inactive)
REMARK    1  A    between atoms: C_3  and  C_7
REMARK    2  A    between atoms: N_8  and  C_10
REMARK                            x       y       z     vdW  Elec       q    Type
REMARK                         _______ _______ _______ _____ _____    ______ ____
ROOT
ATOM      1  C   UNL A   1     -26.311   0.392  27.364  0.00  0.00    +0.279 C 
ATOM      2  N   UNL A   1     -26.777   0.832  26.376  0.00  0.00    -0.208 NA
ATOM      3  O   UNL A   1     -25.051  -0.000  27.376  0.00  0.00    -0.265 OA
ENDROOT
BRANCH   1   6
ATOM      4  C   UNL A   1     -28.016  -0.814  28.878  0.00  0.00    +0.005 A 
ATOM      5  C   UNL A   1     -28.469  -0.785  29.829  0.00  0.00    +0.000 A 
ATOM      6  C   UNL A   1     -27.087   0.290  28.638  0.00  0.00    +0.058 A 
ATOM      7  C   UNL A   1     -26.832   1.249  29.587  0.00  0.00    +0.005 A 
ATOM      8  C   UNL A   1     -28.391   0.080  31.006  0.00  0.00    +0.000 A 
ATOM      9  C   UNL A   1     -27.494   1.152  30.784  0.00  0.00    +0.000 A 
ENDBRANCH   1   6
BRANCH   2  10
ATOM     10  C   UNL A   1     -28.141   1.315  26.197  0.00  0.00    +0.085 A 
ATOM     11  C   UNL A   1     -28.184   2.476  26.263  0.00  0.00    +0.019 A 
ATOM     12  C   UNL A   1     -29.114   0.438  25.777  0.00  0.00    +0.019 A 
ATOM     13  C   UNL A   1     -30.431   0.849  25.651  0.00  0.00    +0.002 A 
ATOM     14  C   UNL A   1     -29.559   3.148  26.064  0.00  0.00    +0.002 A 
ATOM     15  C   UNL A   1     -30.586   2.279  25.747  0.00  0.00    +0.000 A 
ENDBRANCH   2  10
TORSDOF 2
