REMARK  Name = No_537-gen_results/8p0m/2024-11-26-14-13-15/
REMARK  1 active torsions:
REMARK  status: ('A' for Active; 'I' for Inactive)
REMARK    1  A    between atoms: C_5  and  C_7
REMARK                            x       y       z     vdW  Elec       q    Type
REMARK                         _______ _______ _______ _____ _____    ______ ____
ROOT
ATOM      1  C   UNL A   1     -28.016  -0.814  28.878  0.00  0.00    -0.000 A 
ATOM      2  C   UNL A   1     -27.064  -0.119  28.608  0.00  0.00    -0.000 A 
ATOM      3  C   UNL A   1     -27.001   0.691  27.491  0.00  0.00    -0.000 A 
ATOM      4  C   UNL A   1     -28.137   0.736  26.635  0.00  0.00    +0.004 A 
ATOM      5  C   UNL A   1     -29.236   0.076  27.069  0.00  0.00    +0.071 A 
ATOM      6  C   UNL A   1     -29.218  -0.643  28.175  0.00  0.00    +0.004 A 
ENDROOT
BRANCH   5   7
ATOM      7  C   UNL A   1     -30.415   0.159  26.182  0.00  0.00    +0.419 C 
ATOM      8  F   UNL A   1     -31.229  -0.637  26.431  0.00  0.00    -0.166 F 
ATOM      9  F   UNL A   1     -30.875   1.422  26.240  0.00  0.00    -0.166 F 
ATOM     10  F   UNL A   1     -30.032  -0.017  24.872  0.00  0.00    -0.166 F 
ENDBRANCH   5   7
TORSDOF 1
