MODEL 537
MODEL 1
REMARK VINA RESULT:    -5.294      0.000      0.000
REMARK INTER + INTRA:          -5.780
REMARK INTER:                  -5.603
REMARK INTRA:                  -0.177
REMARK UNBOUND:                -0.177
REMARK  Name = No_537-gen_results/8p0m/2024-11-26-14-13-15/
REMARK  1 active torsions:
REMARK  status: ('A' for Active; 'I' for Inactive)
REMARK    1  A    between atoms: C_5  and  C_7
REMARK                            x       y       z     vdW  Elec       q    Type
REMARK                         _______ _______ _______ _____ _____    ______ ____
ROOT
ATOM      1  C   UNL A   1     -24.624  -5.102  28.965  0.00  0.00    -0.000 A 
ATOM      2  C   UNL A   1     -25.752  -5.016  29.392  0.00  0.00    -0.000 A 
ATOM      3  C   UNL A   1     -26.323  -3.831  29.812  0.00  0.00    -0.000 A 
ATOM      4  C   UNL A   1     -25.550  -2.641  29.697  0.00  0.00    +0.004 A 
ATOM      5  C   UNL A   1     -24.363  -2.762  29.058  0.00  0.00    +0.071 A 
ATOM      6  C   UNL A   1     -23.913  -3.934  28.652  0.00  0.00    +0.004 A 
ENDROOT
BRANCH   5   7
ATOM      7  C   UNL A   1     -23.588  -1.511  28.921  0.00  0.00    +0.419 C 
ATOM      8  F   UNL A   1     -22.438  -1.691  28.865  0.00  0.00    -0.166 F 
ATOM      9  F   UNL A   1     -24.073  -0.851  27.854  0.00  0.00    -0.166 F 
ATOM     10  F   UNL A   1     -23.839  -0.683  29.992  0.00  0.00    -0.166 F 
ENDBRANCH   5   7
TORSDOF 1
ENDMDL
ENDMDL
