REMARK  Name = No_538-gen_results/8p0m/2024-11-26-14-13-15/
REMARK  3 active torsions:
REMARK  status: ('A' for Active; 'I' for Inactive)
REMARK    1  A    between atoms: C_3  and  C_7
REMARK    2  A    between atoms: C_7  and  N_8
REMARK    3  A    between atoms: C_9  and  C_10
REMARK                            x       y       z     vdW  Elec       q    Type
REMARK                         _______ _______ _______ _____ _____    ______ ____
ROOT
ATOM      1  C   UNL A   1     -28.016  -0.814  28.878  0.00  0.00    -0.002 A 
ATOM      2  C   UNL A   1     -28.469  -0.785  29.829  0.00  0.00    -0.000 A 
ATOM      3  C   UNL A   1     -28.182   0.428  28.113  0.00  0.00    +0.002 A 
ATOM      4  C   UNL A   1     -28.984   1.415  28.515  0.00  0.00    -0.002 A 
ATOM      5  C   UNL A   1     -29.380   0.138  30.461  0.00  0.00    -0.000 A 
ATOM      6  C   UNL A   1     -29.541   1.274  29.724  0.00  0.00    -0.000 A 
ENDROOT
BRANCH   3   7
ATOM      7  C   UNL A   1     -27.459   0.493  26.770  0.00  0.00    +0.152 C 
BRANCH   7   8
ATOM      8  N   UNL A   1     -26.680   1.528  26.574  0.00  0.00    -0.264 NA
ATOM      9  C   UNL A   1     -25.416   1.379  26.105  0.00  0.00    +0.093 C 
BRANCH   9  10
ATOM     10  C   UNL A   1     -24.502   2.512  26.117  0.00  0.00    +0.016 C 
ATOM     11  C   UNL A   1     -25.062   3.750  26.459  0.00  0.00    -0.024 C 
ATOM     12  C   UNL A   1     -26.362   3.876  26.920  0.00  0.00    +0.031 C 
ENDBRANCH   9  10
ENDBRANCH   7   8
ENDBRANCH   3   7
TORSDOF 3
