MODEL 538
MODEL 1
REMARK VINA RESULT:    -5.883      0.000      0.000
REMARK INTER + INTRA:          -7.115
REMARK INTER:                  -6.914
REMARK INTRA:                  -0.201
REMARK UNBOUND:                -0.201
REMARK  Name = No_538-gen_results/8p0m/2024-11-26-14-13-15/
REMARK  3 active torsions:
REMARK  status: ('A' for Active; 'I' for Inactive)
REMARK    1  A    between atoms: C_3  and  C_7
REMARK    2  A    between atoms: C_7  and  N_8
REMARK    3  A    between atoms: C_9  and  C_10
REMARK                            x       y       z     vdW  Elec       q    Type
REMARK                         _______ _______ _______ _____ _____    ______ ____
ROOT
ATOM      1  C   UNL A   1     -26.159  -3.439  29.701  0.00  0.00    -0.002 A 
ATOM      2  C   UNL A   1     -26.118  -4.491  29.639  0.00  0.00    -0.000 A 
ATOM      3  C   UNL A   1     -25.050  -2.769  29.011  0.00  0.00    +0.002 A 
ATOM      4  C   UNL A   1     -24.004  -3.435  28.520  0.00  0.00    -0.002 A 
ATOM      5  C   UNL A   1     -25.104  -5.414  29.190  0.00  0.00    -0.000 A 
ATOM      6  C   UNL A   1     -24.071  -4.771  28.574  0.00  0.00    -0.000 A 
ENDROOT
BRANCH   3   7
ATOM      7  C   UNL A   1     -25.107  -1.244  28.970  0.00  0.00    +0.152 C 
BRANCH   7   8
ATOM      8  N   UNL A   1     -23.961  -0.613  29.043  0.00  0.00    -0.264 NA
ATOM      9  C   UNL A   1     -23.682   0.437  28.231  0.00  0.00    +0.093 C 
BRANCH   9  10
ATOM     10  C   UNL A   1     -22.327   0.966  28.172  0.00  0.00    +0.016 C 
ATOM     11  C   UNL A   1     -22.029   1.772  27.065  0.00  0.00    -0.024 C 
ATOM     12  C   UNL A   1     -22.997   2.183  26.163  0.00  0.00    +0.031 C 
ENDBRANCH   9  10
ENDBRANCH   7   8
ENDBRANCH   3   7
TORSDOF 3
ENDMDL
ENDMDL
