REMARK  Name = No_539-gen_results/8p0m/2024-11-26-14-13-15/
REMARK  2 active torsions:
REMARK  status: ('A' for Active; 'I' for Inactive)
REMARK    1  A    between atoms: C_3  and  C_7
REMARK    2  A    between atoms: C_10  and  C_13
REMARK                            x       y       z     vdW  Elec       q    Type
REMARK                         _______ _______ _______ _____ _____    ______ ____
ROOT
ATOM      1  C   UNL A   1     -26.399   0.295  27.228  0.00  0.00    -0.000 A 
ATOM      2  C   UNL A   1     -26.902   0.728  26.213  0.00  0.00    -0.000 A 
ATOM      3  C   UNL A   1     -26.201   0.588  24.959  0.00  0.00    -0.000 A 
ATOM      4  C   UNL A   1     -24.999   0.211  27.247  0.00  0.00    -0.000 A 
ATOM      5  C   UNL A   1     -24.202   0.261  26.191  0.00  0.00    -0.000 A 
ATOM      6  C   UNL A   1     -24.846   0.496  24.960  0.00  0.00    -0.000 A 
ENDROOT
BRANCH   1   9
ATOM      7  C   UNL A   1     -28.016  -0.814  28.878  0.00  0.00    -0.000 A 
ATOM      8  C   UNL A   1     -28.469  -0.785  29.829  0.00  0.00    +0.000 A 
ATOM      9  C   UNL A   1     -27.136   0.236  28.535  0.00  0.00    -0.000 A 
ATOM     10  C   UNL A   1     -26.875   1.282  29.398  0.00  0.00    -0.000 A 
ATOM     11  C   UNL A   1     -28.361   0.199  30.924  0.00  0.00    +0.000 A 
ATOM     12  C   UNL A   1     -27.528   1.223  30.636  0.00  0.00    +0.000 A 
ENDBRANCH   1   9
BRANCH   4  13
ATOM     13  C   UNL A   1     -24.285  -0.074  28.601  0.00  0.00    -0.005 C 
ATOM     14  C   UNL A   1     -23.918   0.596  29.452  0.00  0.00    -0.026 C 
ATOM     15  C   UNL A   1     -23.190   0.263  30.606  0.00  0.00    +0.031 C 
ENDBRANCH   4  13
TORSDOF 2
