MODEL 539
MODEL 1
REMARK VINA RESULT:    -6.719      0.000      0.000
REMARK INTER + INTRA:          -8.375
REMARK INTER:                  -7.504
REMARK INTRA:                  -0.871
REMARK UNBOUND:                -0.871
REMARK  Name = No_539-gen_results/8p0m/2024-11-26-14-13-15/
REMARK  2 active torsions:
REMARK  status: ('A' for Active; 'I' for Inactive)
REMARK    1  A    between atoms: C_3  and  C_7
REMARK    2  A    between atoms: C_10  and  C_13
REMARK                            x       y       z     vdW  Elec       q    Type
REMARK                         _______ _______ _______ _____ _____    ______ ____
ROOT
ATOM      1  C   UNL A   1     -24.216  -1.117  28.474  0.00  0.00    -0.000 A 
ATOM      2  C   UNL A   1     -24.624  -0.510  27.506  0.00  0.00    -0.000 A 
ATOM      3  C   UNL A   1     -23.919   0.667  27.058  0.00  0.00    -0.000 A 
ATOM      4  C   UNL A   1     -23.479  -0.379  29.411  0.00  0.00    -0.000 A 
ATOM      5  C   UNL A   1     -22.929   0.809  29.208  0.00  0.00    -0.000 A 
ATOM      6  C   UNL A   1     -23.192   1.388  27.951  0.00  0.00    -0.000 A 
ENDROOT
BRANCH   1   9
ATOM      7  C   UNL A   1     -26.014  -2.581  29.565  0.00  0.00    -0.000 A 
ATOM      8  C   UNL A   1     -26.343  -3.555  29.797  0.00  0.00    +0.000 A 
ATOM      9  C   UNL A   1     -24.780  -2.444  28.894  0.00  0.00    -0.000 A 
ATOM     10  C   UNL A   1     -24.007  -3.538  28.555  0.00  0.00    -0.000 A 
ATOM     11  C   UNL A   1     -25.722  -4.871  29.549  0.00  0.00    +0.000 A 
ATOM     12  C   UNL A   1     -24.536  -4.786  28.909  0.00  0.00    +0.000 A 
ENDBRANCH   1   9
BRANCH   4  13
ATOM     13  C   UNL A   1     -23.164  -1.025  30.792  0.00  0.00    -0.005 C 
ATOM     14  C   UNL A   1     -23.588  -0.877  31.844  0.00  0.00    -0.026 C 
ATOM     15  C   UNL A   1     -23.177  -1.437  33.065  0.00  0.00    +0.031 C 
ENDBRANCH   4  13
TORSDOF 2
ENDMDL
ENDMDL
