MODEL 53
MODEL 1
REMARK VINA RESULT:    -5.541      0.000      0.000
REMARK INTER + INTRA:          -7.460
REMARK INTER:                  -6.836
REMARK INTRA:                  -0.623
REMARK UNBOUND:                -0.623
REMARK  Name = No_53-gen_results/8p0m/2024-11-26-14-13-15/
REMARK  4 active torsions:
REMARK  status: ('A' for Active; 'I' for Inactive)
REMARK    1  A    between atoms: C_3  and  C_4
REMARK    2  A    between atoms: C_4  and  C_5
REMARK    3  A    between atoms: C_4  and  C_9
REMARK    4  A    between atoms: C_5  and  C_11
REMARK                            x       y       z     vdW  Elec       q    Type
REMARK                         _______ _______ _______ _____ _____    ______ ____
ROOT
ATOM      1  C   UNL A   1     -24.237  -4.947  28.620  0.00  0.00    -0.000 A 
ATOM      2  C   UNL A   1     -23.873  -3.800  28.502  0.00  0.00    -0.004 A 
ATOM      3  C   UNL A   1     -24.492  -2.721  28.890  0.00  0.00    -0.018 A 
ATOM      4  C   UNL A   1     -25.502  -5.213  29.331  0.00  0.00    -0.000 A 
ATOM      5  C   UNL A   1     -26.253  -4.164  29.734  0.00  0.00    -0.000 A 
ATOM      6  C   UNL A   1     -25.760  -2.803  29.567  0.00  0.00    -0.004 A 
ENDROOT
BRANCH   3   7
ATOM      7  C   UNL A   1     -24.009  -1.327  28.732  0.00  0.00    +0.044 C 
BRANCH   7   8
ATOM      8  C   UNL A   1     -22.631  -1.048  29.093  0.00  0.00    -0.022 C 
ATOM      9  C   UNL A   1     -22.013   0.153  28.767  0.00  0.00    -0.005 C 
ENDBRANCH   7   8
BRANCH   7  10
ATOM     10  C   UNL A   1     -24.737  -0.270  28.171  0.00  0.00    +0.009 C 
BRANCH  10  11
ATOM     11  C   UNL A   1     -25.305  -0.398  26.863  0.00  0.00    +0.001 C 
ATOM     12  C   UNL A   1     -24.835   0.394  25.728  0.00  0.00    +0.000 C 
ENDBRANCH  10  11
ENDBRANCH   7  10
ENDBRANCH   3   7
TORSDOF 4
ENDMDL
ENDMDL
