REMARK  Name = No_54-gen_results/8p0m/2024-11-26-14-13-15/
REMARK  2 active torsions:
REMARK  status: ('A' for Active; 'I' for Inactive)
REMARK    1  A    between atoms: C_2  and  C_4
REMARK    2  A    between atoms: C_6  and  C_7
REMARK                            x       y       z     vdW  Elec       q    Type
REMARK                         _______ _______ _______ _____ _____    ______ ____
ROOT
ATOM      1 CL   UNL A   1     -28.149  -0.820  28.908  0.00  0.00    -0.042 Cl
ATOM      2  C   UNL A   1     -27.834   0.496  29.060  0.00  0.00    +0.350 C 
ATOM      3  F   UNL A   1     -27.883   1.038  30.194  0.00  0.00    -0.182 F 
ATOM      4  F   UNL A   1     -28.611   1.249  28.224  0.00  0.00    -0.182 F 
ENDROOT
BRANCH   2   5
ATOM      5  C   UNL A   1     -26.380   0.773  28.538  0.00  0.00    +0.056 C 
ATOM      6  C   UNL A   1     -25.413   0.272  29.294  0.00  0.00    +0.002 C 
BRANCH   6   7
ATOM      7  C   UNL A   1     -25.137   0.904  30.474  0.00  0.00    -0.000 C 
ATOM      8  C   UNL A   1     -26.192   1.355  31.426  0.00  0.00    -0.000 C 
ENDBRANCH   6   7
ENDBRANCH   2   5
TORSDOF 2
