REMARK  Name = No_540-gen_results/8p0m/2024-11-26-14-13-15/
REMARK  3 active torsions:
REMARK  status: ('A' for Active; 'I' for Inactive)
REMARK    1  A    between atoms: C_3  and  C_7
REMARK    2  A    between atoms: C_8  and  C_9
REMARK    3  A    between atoms: C_10  and  C_11
REMARK                            x       y       z     vdW  Elec       q    Type
REMARK                         _______ _______ _______ _____ _____    ______ ____
ROOT
ATOM      1  C   UNL A   1     -28.016  -0.814  28.878  0.00  0.00    +0.000 A 
ATOM      2  C   UNL A   1     -27.064  -0.119  28.608  0.00  0.00    +0.000 A 
ATOM      3  C   UNL A   1     -26.876   1.133  28.913  0.00  0.00    +0.000 A 
ATOM      4  C   UNL A   1     -27.901   1.807  29.644  0.00  0.00    +0.000 A 
ATOM      5  C   UNL A   1     -28.945   1.039  30.036  0.00  0.00    +0.000 A 
ATOM      6  C   UNL A   1     -29.027  -0.289  29.705  0.00  0.00    +0.000 A 
ENDROOT
BRANCH   3   7
ATOM      7  C   UNL A   1     -25.696   1.950  28.476  0.00  0.00    +0.000 C 
ATOM      8  C   UNL A   1     -24.705   1.724  28.139  0.00  0.00    +0.000 C 
BRANCH   8   9
ATOM      9  C   UNL A   1     -23.609   2.629  27.637  0.00  0.00    +0.000 C 
ATOM     10  C   UNL A   1     -22.359   2.117  27.259  0.00  0.00    +0.000 C 
BRANCH  10  11
ATOM     11  C   UNL A   1     -21.982   0.796  27.743  0.00  0.00    +0.000 C 
ATOM     12  C   UNL A   1     -22.820   0.018  28.471  0.00  0.00    +0.000 C 
ENDBRANCH  10  11
ENDBRANCH   8   9
ENDBRANCH   3   7
TORSDOF 3
