MODEL 540
MODEL 1
REMARK VINA RESULT:    -5.979      0.000      0.000
REMARK INTER + INTRA:          -7.461
REMARK INTER:                  -7.028
REMARK INTRA:                  -0.433
REMARK UNBOUND:                -0.433
REMARK  Name = No_540-gen_results/8p0m/2024-11-26-14-13-15/
REMARK  3 active torsions:
REMARK  status: ('A' for Active; 'I' for Inactive)
REMARK    1  A    between atoms: C_3  and  C_7
REMARK    2  A    between atoms: C_8  and  C_9
REMARK    3  A    between atoms: C_10  and  C_11
REMARK                            x       y       z     vdW  Elec       q    Type
REMARK                         _______ _______ _______ _____ _____    ______ ____
ROOT
ATOM      1  C   UNL A   1     -24.900  -5.061  28.912  0.00  0.00    +0.000 A 
ATOM      2  C   UNL A   1     -24.088  -4.174  28.789  0.00  0.00    +0.000 A 
ATOM      3  C   UNL A   1     -24.216  -2.922  29.123  0.00  0.00    +0.000 A 
ATOM      4  C   UNL A   1     -25.455  -2.503  29.696  0.00  0.00    +0.000 A 
ATOM      5  C   UNL A   1     -26.358  -3.485  29.925  0.00  0.00    +0.000 A 
ATOM      6  C   UNL A   1     -26.109  -4.788  29.580  0.00  0.00    +0.000 A 
ENDROOT
BRANCH   3   7
ATOM      7  C   UNL A   1     -23.185  -1.862  28.870  0.00  0.00    +0.000 C 
ATOM      8  C   UNL A   1     -23.200  -0.793  28.812  0.00  0.00    +0.000 C 
BRANCH   8   9
ATOM      9  C   UNL A   1     -22.077   0.197  28.634  0.00  0.00    +0.000 C 
ATOM     10  C   UNL A   1     -22.309   1.472  28.097  0.00  0.00    +0.000 C 
BRANCH  10  11
ATOM     11  C   UNL A   1     -23.531   1.684  27.332  0.00  0.00    +0.000 C 
ATOM     12  C   UNL A   1     -23.536   1.799  25.982  0.00  0.00    +0.000 C 
ENDBRANCH  10  11
ENDBRANCH   8   9
ENDBRANCH   3   7
TORSDOF 3
ENDMDL
ENDMDL
