MODEL 541
MODEL 1
REMARK VINA RESULT:    -5.573      0.000      0.000
REMARK INTER + INTRA:          -6.318
REMARK INTER:                  -6.225
REMARK INTRA:                  -0.093
REMARK UNBOUND:                -0.093
REMARK  Name = No_541-gen_results/8p0m/2024-11-26-14-13-15/
REMARK  2 active torsions:
REMARK  status: ('A' for Active; 'I' for Inactive)
REMARK    1  A    between atoms: C_1  and  C_7
REMARK    2  A    between atoms: C_5  and  C_10
REMARK                            x       y       z     vdW  Elec       q    Type
REMARK                         _______ _______ _______ _____ _____    ______ ____
ROOT
ATOM      1  C   UNL A   1     -26.404  -3.931  29.739  0.00  0.00    +0.080 A 
ATOM      2  C   UNL A   1     -25.937  -5.016  29.481  0.00  0.00    +0.007 A 
ATOM      3  C   UNL A   1     -24.684  -5.197  28.929  0.00  0.00    +0.000 A 
ATOM      4  C   UNL A   1     -23.887  -4.042  28.690  0.00  0.00    +0.007 A 
ATOM      5  C   UNL A   1     -24.383  -2.871  29.152  0.00  0.00    +0.080 A 
ATOM      6  C   UNL A   1     -25.578  -2.797  29.706  0.00  0.00    +0.013 A 
ENDROOT
BRANCH   1   7
ATOM      7  C   UNL A   1     -27.779  -3.828  30.352  0.00  0.00    +0.388 C 
ATOM      8  O   UNL A   1     -28.281  -4.843  30.817  0.00  0.00    -0.241 OA
ATOM      9  O   UNL A   1     -28.479  -2.748  30.267  0.00  0.00    -0.241 OA
ENDBRANCH   1   7
BRANCH   5  10
ATOM     10  C   UNL A   1     -23.527  -1.683  28.928  0.00  0.00    +0.388 C 
ATOM     11  O   UNL A   1     -22.336  -1.587  28.972  0.00  0.00    -0.241 OA
ATOM     12  O   UNL A   1     -24.164  -0.615  28.435  0.00  0.00    -0.241 OA
ENDBRANCH   5  10
TORSDOF 2
ENDMDL
ENDMDL
