REMARK  Name = No_542-gen_results/8p0m/2024-11-26-14-13-15/
REMARK  4 active torsions:
REMARK  status: ('A' for Active; 'I' for Inactive)
REMARK    1  A    between atoms: C_3  and  C_7
REMARK    2  A    between atoms: C_5  and  C_11
REMARK    3  A    between atoms: N_12  and  C_13
REMARK    4  A    between atoms: C_14  and  C_15
REMARK                            x       y       z     vdW  Elec       q    Type
REMARK                         _______ _______ _______ _____ _____    ______ ____
ROOT
ATOM      1  C   UNL A   1     -28.016  -0.814  28.878  0.00  0.00    +0.004 A 
ATOM      2  C   UNL A   1     -28.469  -0.785  29.829  0.00  0.00    -0.000 A 
ATOM      3  C   UNL A   1     -28.196   0.348  28.055  0.00  0.00    +0.071 A 
ATOM      4  C   UNL A   1     -29.019   1.350  28.378  0.00  0.00    +0.005 A 
ATOM      5  C   UNL A   1     -29.625   1.268  29.601  0.00  0.00    +0.019 A 
ATOM      6  C   UNL A   1     -29.379   0.147  30.392  0.00  0.00    +0.002 A 
ENDROOT
BRANCH   3   7
ATOM      7  C   UNL A   1     -27.455   0.382  26.710  0.00  0.00    +0.419 C 
ATOM      8  F   UNL A   1     -27.117   1.679  26.497  0.00  0.00    -0.166 F 
ATOM      9  F   UNL A   1     -28.180   0.012  25.687  0.00  0.00    -0.166 F 
ATOM     10  F   UNL A   1     -26.272  -0.252  26.690  0.00  0.00    -0.166 F 
ENDBRANCH   3   7
BRANCH   5  11
ATOM     11  C   UNL A   1     -30.547   2.306  30.073  0.00  0.00    +0.099 C 
ATOM     12  N   UNL A   1     -30.131   3.027  30.964  0.00  0.00    -0.242 NA
BRANCH  12  13
ATOM     13  C   UNL A   1     -29.157   3.021  31.625  0.00  0.00    +0.099 C 
ATOM     14  C   UNL A   1     -28.340   3.708  32.150  0.00  0.00    +0.021 C 
BRANCH  14  15
ATOM     15  C   UNL A   1     -27.207   3.986  32.100  0.00  0.00    +0.002 A 
ATOM     16  C   UNL A   1     -26.421   5.136  32.608  0.00  0.00    +0.000 A 
ATOM     17  C   UNL A   1     -25.006   5.332  32.341  0.00  0.00    +0.000 A 
ATOM     18  C   UNL A   1     -24.341   4.250  31.758  0.00  0.00    +0.000 A 
ATOM     19  C   UNL A   1     -24.923   3.078  31.451  0.00  0.00    +0.000 A 
ATOM     20  C   UNL A   1     -26.232   2.957  31.612  0.00  0.00    +0.000 A 
ENDBRANCH  14  15
ENDBRANCH  12  13
ENDBRANCH   5  11
TORSDOF 4
