MODEL 542
MODEL 1
REMARK VINA RESULT:    -6.560      0.000      0.000
REMARK INTER + INTRA:          -9.325
REMARK INTER:                  -8.094
REMARK INTRA:                  -1.231
REMARK UNBOUND:                -1.231
REMARK  Name = No_542-gen_results/8p0m/2024-11-26-14-13-15/
REMARK  4 active torsions:
REMARK  status: ('A' for Active; 'I' for Inactive)
REMARK    1  A    between atoms: C_3  and  C_7
REMARK    2  A    between atoms: C_5  and  C_11
REMARK    3  A    between atoms: N_12  and  C_13
REMARK    4  A    between atoms: C_14  and  C_15
REMARK                            x       y       z     vdW  Elec       q    Type
REMARK                         _______ _______ _______ _____ _____    ______ ____
ROOT
ATOM      1  C   UNL A   1     -26.067   1.508  27.141  0.00  0.00    +0.004 A 
ATOM      2  C   UNL A   1     -25.631   1.869  28.029  0.00  0.00    -0.000 A 
ATOM      3  C   UNL A   1     -25.199   0.783  26.258  0.00  0.00    +0.071 A 
ATOM      4  C   UNL A   1     -23.878   0.698  26.442  0.00  0.00    +0.005 A 
ATOM      5  C   UNL A   1     -23.387   1.262  27.587  0.00  0.00    +0.019 A 
ATOM      6  C   UNL A   1     -24.275   1.909  28.444  0.00  0.00    +0.002 A 
ENDROOT
BRANCH   3   7
ATOM      7  C   UNL A   1     -25.830   0.148  25.010  0.00  0.00    +0.419 C 
ATOM      8  F   UNL A   1     -24.916   0.277  24.016  0.00  0.00    -0.166 F 
ATOM      9  F   UNL A   1     -26.919   0.742  24.596  0.00  0.00    -0.166 F 
ATOM     10  F   UNL A   1     -26.027  -1.178  25.078  0.00  0.00    -0.166 F 
ENDBRANCH   3   7
BRANCH   5  11
ATOM     11  C   UNL A   1     -21.956   1.232  27.905  0.00  0.00    +0.099 C 
ATOM     12  N   UNL A   1     -21.593   0.342  28.656  0.00  0.00    -0.242 NA
BRANCH  12  13
ATOM     13  C   UNL A   1     -22.164  -0.472  29.285  0.00  0.00    +0.099 C 
ATOM     14  C   UNL A   1     -22.693  -1.537  29.236  0.00  0.00    +0.021 C 
BRANCH  14  15
ATOM     15  C   UNL A   1     -23.740  -2.045  29.326  0.00  0.00    +0.002 A 
ATOM     16  C   UNL A   1     -25.106  -1.519  29.561  0.00  0.00    +0.000 A 
ATOM     17  C   UNL A   1     -26.279  -2.358  29.739  0.00  0.00    +0.000 A 
ATOM     18  C   UNL A   1     -26.106  -3.714  29.449  0.00  0.00    +0.000 A 
ATOM     19  C   UNL A   1     -24.953  -4.258  29.023  0.00  0.00    +0.000 A 
ATOM     20  C   UNL A   1     -23.874  -3.493  28.963  0.00  0.00    +0.000 A 
ENDBRANCH  14  15
ENDBRANCH  12  13
ENDBRANCH   5  11
TORSDOF 4
ENDMDL
ENDMDL
