REMARK  Name = No_544-gen_results/8p0m/2024-11-26-14-13-15/
REMARK  4 active torsions:
REMARK  status: ('A' for Active; 'I' for Inactive)
REMARK    1  A    between atoms: C_7  and  C_11
REMARK    2  A    between atoms: C_8  and  C_21
REMARK    3  A    between atoms: C_13  and  C_30
REMARK    4  A    between atoms: N_23  and  C_24
REMARK                            x       y       z     vdW  Elec       q    Type
REMARK                         _______ _______ _______ _____ _____    ______ ____
ROOT
ATOM      1  C   UNL A   1     -28.016  -0.814  28.878  0.00  0.00    +0.001 A 
ATOM      2  C   UNL A   1     -27.064  -0.119  28.608  0.00  0.00    -0.018 A 
ATOM      3  C   UNL A   1     -25.792  -0.430  29.076  0.00  0.00    -0.004 A 
ATOM      4  C   UNL A   1     -24.546   0.349  28.823  0.00  0.00    -0.004 A 
ATOM      5  C   UNL A   1     -24.659   1.420  27.888  0.00  0.00    -0.021 A 
ATOM      6  C   UNL A   1     -25.947   1.681  27.379  0.00  0.00    +0.035 C 
ATOM      7  C   UNL A   1     -27.044   0.974  27.687  0.00  0.00    +0.049 C 
ATOM      8  C   UNL A   1     -28.049  -1.598  30.163  0.00  0.00    +0.055 A 
ATOM      9  C   UNL A   1     -26.760  -2.071  30.612  0.00  0.00    +0.005 A 
ATOM     10  C   UNL A   1     -25.610  -1.402  30.171  0.00  0.00    -0.000 A 
ATOM     11  C   UNL A   1     -23.224  -0.041  29.336  0.00  0.00    -0.000 A 
ATOM     12  C   UNL A   1     -22.131   0.586  28.752  0.00  0.00    -0.000 A 
ATOM     13  C   UNL A   1     -22.224   1.585  27.814  0.00  0.00    -0.000 A 
ATOM     14  C   UNL A   1     -23.525   2.052  27.371  0.00  0.00    -0.004 A 
ENDROOT
BRANCH   7  15
ATOM     15  C   UNL A   1     -28.285   1.337  26.970  0.00  0.00    -0.018 A 
ATOM     16  C   UNL A   1     -29.285   1.092  27.223  0.00  0.00    +0.003 A 
ATOM     17  C   UNL A   1     -30.499   1.484  26.495  0.00  0.00    +0.080 A 
ATOM     18  C   UNL A   1     -30.231   2.285  25.399  0.00  0.00    +0.007 A 
ATOM     19  C   UNL A   1     -28.097   2.196  25.834  0.00  0.00    -0.004 A 
ATOM     20  C   UNL A   1     -29.000   2.671  25.041  0.00  0.00    -0.000 A 
BRANCH  17  21
ATOM     21  C   UNL A   1     -31.897   1.090  26.815  0.00  0.00    +0.388 C 
ATOM     22  O   UNL A   1     -32.479   0.284  26.373  0.00  0.00    -0.241 OA
ATOM     23  O   UNL A   1     -32.233   1.486  28.091  0.00  0.00    -0.241 OA
ENDBRANCH  17  21
ENDBRANCH   7  15
BRANCH   8  24
ATOM     24  C   UNL A   1     -29.219  -2.357  30.578  0.00  0.00    +0.269 C 
ATOM     25  O   UNL A   1     -29.251  -3.490  30.786  0.00  0.00    -0.268 OA
ATOM     26  N   UNL A   1     -30.357  -1.606  30.759  0.00  0.00    -0.175 NA
BRANCH  26  27
ATOM     27  C   UNL A   1     -31.486  -1.919  31.044  0.00  0.00    +0.074 A 
ATOM     28  C   UNL A   1     -32.316  -1.282  31.612  0.00  0.00    +0.017 A 
ATOM     29  C   UNL A   1     -33.607  -1.663  32.104  0.00  0.00    +0.001 A 
ATOM     30  C   UNL A   1     -33.935  -2.993  31.779  0.00  0.00    +0.000 A 
ATOM     31  C   UNL A   1     -33.074  -3.785  31.088  0.00  0.00    +0.001 A 
ATOM     32  C   UNL A   1     -31.838  -3.326  30.759  0.00  0.00    +0.017 A 
ENDBRANCH  26  27
ENDBRANCH   8  24
TORSDOF 4
