MODEL 544
MODEL 1
REMARK VINA RESULT:    -8.277      0.000      0.000
REMARK INTER + INTRA:         -11.585
REMARK INTER:                 -10.212
REMARK INTRA:                  -1.373
REMARK UNBOUND:                -1.373
REMARK  Name = No_544-gen_results/8p0m/2024-11-26-14-13-15/
REMARK  4 active torsions:
REMARK  status: ('A' for Active; 'I' for Inactive)
REMARK    1  A    between atoms: C_7  and  C_11
REMARK    2  A    between atoms: C_8  and  C_21
REMARK    3  A    between atoms: C_13  and  C_30
REMARK    4  A    between atoms: N_23  and  C_24
REMARK                            x       y       z     vdW  Elec       q    Type
REMARK                         _______ _______ _______ _____ _____    ______ ____
ROOT
ATOM      1  C   UNL A   1     -11.009   0.794  36.708  0.00  0.00    +0.001 A 
ATOM      2  C   UNL A   1     -11.832   1.366  37.385  0.00  0.00    -0.018 A 
ATOM      3  C   UNL A   1     -12.769   2.217  36.809  0.00  0.00    -0.004 A 
ATOM      4  C   UNL A   1     -13.823   2.984  37.533  0.00  0.00    -0.004 A 
ATOM      5  C   UNL A   1     -13.968   2.688  38.921  0.00  0.00    -0.021 A 
ATOM      6  C   UNL A   1     -13.045   1.777  39.472  0.00  0.00    +0.035 C 
ATOM      7  C   UNL A   1     -12.081   1.156  38.777  0.00  0.00    +0.049 C 
ATOM      8  C   UNL A   1     -10.522   1.404  35.421  0.00  0.00    +0.055 A 
ATOM      9  C   UNL A   1     -11.512   2.179  34.710  0.00  0.00    +0.005 A 
ATOM     10  C   UNL A   1     -12.591   2.710  35.430  0.00  0.00    -0.000 A 
ATOM     11  C   UNL A   1     -14.797   3.859  36.864  0.00  0.00    -0.000 A 
ATOM     12  C   UNL A   1     -15.901   4.236  37.617  0.00  0.00    -0.000 A 
ATOM     13  C   UNL A   1     -16.078   3.917  38.941  0.00  0.00    -0.000 A 
ATOM     14  C   UNL A   1     -15.075   3.138  39.645  0.00  0.00    -0.004 A 
ENDROOT
BRANCH   7  15
ATOM     15  C   UNL A   1     -11.277   0.156  39.512  0.00  0.00    -0.018 A 
ATOM     16  C   UNL A   1     -10.302   0.264  39.912  0.00  0.00    +0.003 A 
ATOM     17  C   UNL A   1      -9.537  -0.747  40.653  0.00  0.00    +0.080 A 
ATOM     18  C   UNL A   1     -10.244  -1.923  40.839  0.00  0.00    +0.007 A 
ATOM     19  C   UNL A   1     -11.951  -1.085  39.775  0.00  0.00    -0.004 A 
ATOM     20  C   UNL A   1     -11.493  -2.119  40.400  0.00  0.00    -0.000 A 
BRANCH  17  21
ATOM     21  C   UNL A   1      -8.146  -0.617  41.163  0.00  0.00    +0.388 C 
ATOM     22  O   UNL A   1      -7.543  -1.379  41.653  0.00  0.00    -0.241 OA
ATOM     23  O   UNL A   1      -7.477   0.387  40.498  0.00  0.00    -0.241 OA
ENDBRANCH  17  21
ENDBRANCH   7  15
BRANCH   8  24
ATOM     24  C   UNL A   1      -9.454   0.805  34.634  0.00  0.00    +0.269 C 
ATOM     25  O   UNL A   1      -9.413   0.745  33.484  0.00  0.00    -0.268 OA
ATOM     26  N   UNL A   1      -8.404   0.310  35.373  0.00  0.00    -0.175 NA
BRANCH  26  27
ATOM     27  C   UNL A   1      -7.405  -0.282  35.047  0.00  0.00    +0.074 A 
ATOM     28  C   UNL A   1      -7.283  -1.425  34.738  0.00  0.00    +0.017 A 
ATOM     29  C   UNL A   1      -6.104  -2.202  34.495  0.00  0.00    +0.001 A 
ATOM     30  C   UNL A   1      -4.927  -1.434  34.577  0.00  0.00    +0.000 A 
ATOM     31  C   UNL A   1      -4.967  -0.109  34.875  0.00  0.00    +0.001 A 
ATOM     32  C   UNL A   1      -6.150   0.489  35.174  0.00  0.00    +0.017 A 
ENDBRANCH  26  27
ENDBRANCH   8  24
TORSDOF 4
ENDMDL
ENDMDL
