REMARK  Name = No_545-gen_results/8p0m/2024-11-26-14-13-15/
REMARK  1 active torsions:
REMARK  status: ('A' for Active; 'I' for Inactive)
REMARK    1  A    between atoms: C_2  and  C_5
REMARK                            x       y       z     vdW  Elec       q    Type
REMARK                         _______ _______ _______ _____ _____    ______ ____
ROOT
ATOM      1  C   UNL A   1     -28.016  -0.814  28.878  0.00  0.00    +0.034 A 
ATOM      2  C   UNL A   1     -28.469  -0.785  29.829  0.00  0.00    +0.074 A 
ATOM      3  C   UNL A   1     -26.504  -0.778  28.877  0.00  0.00    +0.140 A 
ATOM      4  C   UNL A   1     -25.810  -0.853  30.103  0.00  0.00    +0.030 A 
ATOM      5  C   UNL A   1     -26.567  -0.885  31.252  0.00  0.00    +0.002 A 
ATOM      6  C   UNL A   1     -27.941  -0.907  31.185  0.00  0.00    +0.004 A 
ATOM      7  F   UNL A   1     -25.737  -0.755  27.785  0.00  0.00    -0.204 F 
ENDROOT
BRANCH   2   8
ATOM      8  C   UNL A   1     -30.014  -0.841  29.851  0.00  0.00    +0.419 C 
ATOM      9  F   UNL A   1     -30.529  -0.015  30.784  0.00  0.00    -0.166 F 
ATOM     10  F   UNL A   1     -30.450  -0.342  28.689  0.00  0.00    -0.166 F 
ATOM     11  F   UNL A   1     -30.333  -2.135  29.875  0.00  0.00    -0.166 F 
ENDBRANCH   2   8
TORSDOF 1
