MODEL 545
MODEL 1
REMARK VINA RESULT:    -5.500      0.000      0.000
REMARK INTER + INTRA:          -5.956
REMARK INTER:                  -5.822
REMARK INTRA:                  -0.135
REMARK UNBOUND:                -0.135
REMARK  Name = No_545-gen_results/8p0m/2024-11-26-14-13-15/
REMARK  1 active torsions:
REMARK  status: ('A' for Active; 'I' for Inactive)
REMARK    1  A    between atoms: C_2  and  C_5
REMARK                            x       y       z     vdW  Elec       q    Type
REMARK                         _______ _______ _______ _____ _____    ______ ____
ROOT
ATOM      1  C   UNL A   1     -24.196  -3.632  28.924  0.00  0.00    +0.034 A 
ATOM      2  C   UNL A   1     -24.561  -2.728  29.324  0.00  0.00    +0.074 A 
ATOM      3  C   UNL A   1     -25.095  -4.834  29.111  0.00  0.00    +0.140 A 
ATOM      4  C   UNL A   1     -26.383  -4.656  29.657  0.00  0.00    +0.030 A 
ATOM      5  C   UNL A   1     -26.725  -3.385  30.059  0.00  0.00    +0.002 A 
ATOM      6  C   UNL A   1     -25.858  -2.334  29.869  0.00  0.00    +0.004 A 
ATOM      7  F   UNL A   1     -24.802  -6.079  28.727  0.00  0.00    -0.204 F 
ENDROOT
BRANCH   2   8
ATOM      8  C   UNL A   1     -23.666  -1.483  29.125  0.00  0.00    +0.419 C 
ATOM      9  F   UNL A   1     -22.388  -1.825  28.865  0.00  0.00    -0.166 F 
ATOM     10  F   UNL A   1     -24.078  -0.866  28.011  0.00  0.00    -0.166 F 
ATOM     11  F   UNL A   1     -23.931  -0.674  30.150  0.00  0.00    -0.166 F 
ENDBRANCH   2   8
TORSDOF 1
ENDMDL
ENDMDL
