REMARK  Name = No_546-gen_results/8p0m/2024-11-26-14-13-15/
REMARK  9 active torsions:
REMARK  status: ('A' for Active; 'I' for Inactive)
REMARK    1  A    between atoms: C_4  and  O_30
REMARK    2  A    between atoms: C_6  and  C_8
REMARK    3  A    between atoms: C_8  and  C_9
REMARK    4  A    between atoms: C_9  and  C_10
REMARK    5  A    between atoms: C_9  and  C_16
REMARK    6  A    between atoms: C_14  and  C_17
REMARK    7  A    between atoms: O_30  and  C_31
REMARK    8  A    between atoms: C_31  and  C_32
REMARK    9  A    between atoms: C_32  and  C_34
REMARK                            x       y       z     vdW  Elec       q    Type
REMARK                         _______ _______ _______ _____ _____    ______ ____
ROOT
ATOM      1  C   UNL A   1     -23.445  -0.205  29.440  0.00  0.00    +0.130 C 
ENDROOT
BRANCH   1   2
ATOM      2  C   UNL A   1     -23.758   1.094  29.509  0.00  0.00    -0.015 A 
ATOM      3  C   UNL A   1     -23.910   1.899  28.555  0.00  0.00    -0.025 A 
ATOM      4  C   UNL A   1     -24.428   3.228  28.581  0.00  0.00    -0.026 A 
ATOM      5  C   UNL A   1     -25.214   3.529  29.749  0.00  0.00    -0.001 A 
ATOM      6  C   UNL A   1     -25.165   2.665  30.832  0.00  0.00    +0.071 A 
ATOM      7  C   UNL A   1     -24.564   1.448  30.774  0.00  0.00    -0.000 A 
ATOM      8  C   UNL A   1     -23.040   1.711  27.269  0.00  0.00    +0.048 C 
ATOM      9  C   UNL A   1     -23.619   2.139  26.029  0.00  0.00    -0.040 C 
ATOM     10  C   UNL A   1     -22.990   1.802  24.966  0.00  0.00    -0.009 C 
ATOM     11  C   UNL A   1     -24.259   3.335  26.035  0.00  0.00    +0.027 C 
ATOM     12  C   UNL A   1     -24.404   4.212  27.576  0.00  0.00    +0.030 C 
BRANCH   6  13
ATOM     13  C   UNL A   1     -25.978   3.009  32.027  0.00  0.00    +0.419 C 
ATOM     14  F   UNL A   1     -25.981   2.120  32.860  0.00  0.00    -0.166 F 
ATOM     15  F   UNL A   1     -25.397   4.059  32.636  0.00  0.00    -0.166 F 
ATOM     16  F   UNL A   1     -27.173   3.462  31.664  0.00  0.00    -0.166 F 
ENDBRANCH   6  13
ENDBRANCH   1   2
BRANCH   1  17
ATOM     17  C   UNL A   1     -22.022  -0.459  29.130  0.00  0.00    +0.369 C 
ATOM     18  O   UNL A   1     -21.050   0.138  29.288  0.00  0.00    -0.245 OA
ATOM     19  O   UNL A   1     -21.829  -1.750  28.856  0.00  0.00    -0.245 OA
ENDBRANCH   1  17
BRANCH   1  20
ATOM     20  C   UNL A   1     -24.311  -1.265  29.689  0.00  0.00    +0.044 C 
BRANCH  20  26
ATOM     21  C   UNL A   1     -28.016  -0.814  28.878  0.00  0.00    +0.180 A 
ATOM     22  C   UNL A   1     -28.469  -0.785  29.829  0.00  0.00    +0.121 A 
ATOM     23  F   UNL A   1     -28.654  -0.674  27.845  0.00  0.00    -0.201 F 
ATOM     24  C   UNL A   1     -27.727  -1.014  31.138  0.00  0.00    +0.151 A 
ATOM     25  C   UNL A   1     -26.313  -1.108  31.063  0.00  0.00    +0.036 A 
ATOM     26  C   UNL A   1     -25.732  -1.135  29.773  0.00  0.00    +0.011 A 
ATOM     27  C   UNL A   1     -26.583  -0.953  28.714  0.00  0.00    +0.164 A 
ATOM     28 CL   UNL A   1     -30.189  -0.544  30.116  0.00  0.00    -0.077 Cl
ATOM     29  F   UNL A   1     -25.986  -0.939  27.538  0.00  0.00    -0.202 F 
BRANCH  24  30
ATOM     30  O   UNL A   1     -28.369  -0.923  32.369  0.00  0.00    -0.471 OA
BRANCH  30  31
ATOM     31  C   UNL A   1     -29.380  -0.277  32.658  0.00  0.00    +0.243 C 
BRANCH  31  32
ATOM     32  C   UNL A   1     -30.199  -0.656  33.692  0.00  0.00    +0.217 C 
ATOM     33  O   UNL A   1     -29.757  -1.496  34.403  0.00  0.00    -0.214 OA
BRANCH  32  34
ATOM     34  C   UNL A   1     -31.583  -1.012  33.214  0.00  0.00    +0.010 C 
ATOM     35  C   UNL A   1     -31.776  -2.358  33.121  0.00  0.00    -0.002 C 
ENDBRANCH  32  34
ENDBRANCH  31  32
ENDBRANCH  30  31
ENDBRANCH  24  30
ENDBRANCH  20  26
ENDBRANCH   1  20
TORSDOF 9
