MODEL 546
MODEL 1
REMARK VINA RESULT:    -6.610      0.000      0.000
REMARK INTER + INTRA:         -13.581
REMARK INTER:                 -10.088
REMARK INTRA:                  -3.493
REMARK UNBOUND:                -3.493
REMARK  Name = No_546-gen_results/8p0m/2024-11-26-14-13-15/
REMARK  9 active torsions:
REMARK  status: ('A' for Active; 'I' for Inactive)
REMARK    1  A    between atoms: C_4  and  O_30
REMARK    2  A    between atoms: C_6  and  C_8
REMARK    3  A    between atoms: C_8  and  C_9
REMARK    4  A    between atoms: C_9  and  C_10
REMARK    5  A    between atoms: C_9  and  C_16
REMARK    6  A    between atoms: C_14  and  C_17
REMARK    7  A    between atoms: O_30  and  C_31
REMARK    8  A    between atoms: C_31  and  C_32
REMARK    9  A    between atoms: C_32  and  C_34
REMARK                            x       y       z     vdW  Elec       q    Type
REMARK                         _______ _______ _______ _____ _____    ______ ____
ROOT
ATOM      1  C   UNL A   1     -23.121   0.891  28.438  0.00  0.00    +0.130 C 
ENDROOT
BRANCH   1   2
ATOM      2  C   UNL A   1     -23.525   0.032  29.381  0.00  0.00    -0.015 A 
ATOM      3  C   UNL A   1     -24.123   0.297  30.455  0.00  0.00    -0.025 A 
ATOM      4  C   UNL A   1     -24.734  -0.600  31.382  0.00  0.00    -0.026 A 
ATOM      5  C   UNL A   1     -25.034  -1.897  30.834  0.00  0.00    -0.001 A 
ATOM      6  C   UNL A   1     -24.473  -2.257  29.618  0.00  0.00    +0.071 A 
ATOM      7  C   UNL A   1     -23.811  -1.376  28.824  0.00  0.00    -0.000 A 
ATOM      8  C   UNL A   1     -23.805   1.646  31.179  0.00  0.00    +0.048 C 
ATOM      9  C   UNL A   1     -24.863   2.231  31.950  0.00  0.00    -0.040 C 
ATOM     10  C   UNL A   1     -24.662   3.424  32.370  0.00  0.00    -0.009 C 
ATOM     11  C   UNL A   1     -25.579   1.392  32.739  0.00  0.00    +0.027 C 
ATOM     12  C   UNL A   1     -25.211  -0.347  32.681  0.00  0.00    +0.030 C 
BRANCH   6  13
ATOM     13  C   UNL A   1     -24.792  -3.607  29.084  0.00  0.00    +0.419 C 
ATOM     14  F   UNL A   1     -25.961  -3.907  29.246  0.00  0.00    -0.166 F 
ATOM     15  F   UNL A   1     -24.617  -3.577  27.750  0.00  0.00    -0.166 F 
ATOM     16  F   UNL A   1     -23.904  -4.499  29.510  0.00  0.00    -0.166 F 
ENDBRANCH   6  13
ENDBRANCH   1   2
BRANCH   1  17
ATOM     17  C   UNL A   1     -21.671   0.829  28.157  0.00  0.00    +0.369 C 
ATOM     18  O   UNL A   1     -20.837   0.080  28.420  0.00  0.00    -0.245 OA
ATOM     19  O   UNL A   1     -21.349   1.683  27.184  0.00  0.00    -0.245 OA
ENDBRANCH   1  17
BRANCH   1  20
ATOM     20  C   UNL A   1     -23.944   1.742  27.707  0.00  0.00    +0.044 C 
BRANCH  20  26
ATOM     21  C   UNL A   1     -26.175   0.455  24.887  0.00  0.00    +0.180 A 
ATOM     22  C   UNL A   1     -27.143   0.521  25.297  0.00  0.00    +0.121 A 
ATOM     23  F   UNL A   1     -25.973   0.080  23.741  0.00  0.00    -0.201 F 
ATOM     24  C   UNL A   1     -27.439   0.924  26.734  0.00  0.00    +0.151 A 
ATOM     25  C   UNL A   1     -26.344   1.394  27.504  0.00  0.00    +0.036 A 
ATOM     26  C   UNL A   1     -25.056   1.303  26.924  0.00  0.00    +0.011 A 
ATOM     27  C   UNL A   1     -24.999   0.873  25.624  0.00  0.00    +0.164 A 
ATOM     28 CL   UNL A   1     -28.626   0.106  24.443  0.00  0.00    -0.077 Cl
ATOM     29  F   UNL A   1     -23.783   0.851  25.115  0.00  0.00    -0.202 F 
BRANCH  24  30
ATOM     30  O   UNL A   1     -28.742   1.034  27.211  0.00  0.00    -0.471 OA
BRANCH  30  31
ATOM     31  C   UNL A   1     -29.247   0.478  28.190  0.00  0.00    +0.243 C 
BRANCH  31  32
ATOM     32  C   UNL A   1     -29.476   1.159  29.359  0.00  0.00    +0.217 C 
ATOM     33  O   UNL A   1     -29.532   2.339  29.252  0.00  0.00    -0.214 OA
BRANCH  32  34
ATOM     34  C   UNL A   1     -28.518   0.749  30.447  0.00  0.00    +0.010 C 
ATOM     35  C   UNL A   1     -28.278  -0.592  30.458  0.00  0.00    -0.002 C 
ENDBRANCH  32  34
ENDBRANCH  31  32
ENDBRANCH  30  31
ENDBRANCH  24  30
ENDBRANCH  20  26
ENDBRANCH   1  20
TORSDOF 9
ENDMDL
ENDMDL
