REMARK  Name = No_547-gen_results/8p0m/2024-11-26-14-13-15/
REMARK  3 active torsions:
REMARK  status: ('A' for Active; 'I' for Inactive)
REMARK    1  A    between atoms: C_1  and  C_2
REMARK    2  A    between atoms: C_1  and  N_8
REMARK    3  A    between atoms: C_6  and  C_16
REMARK                            x       y       z     vdW  Elec       q    Type
REMARK                         _______ _______ _______ _____ _____    ______ ____
ROOT
ATOM      1  C   UNL A   1     -28.016  -0.814  28.878  0.00  0.00    +0.153 C 
ENDROOT
BRANCH   1   2
ATOM      2  N   UNL A   1     -28.730  -0.530  30.043  0.00  0.00    -0.249 NA
ATOM      3  C   UNL A   1     -28.932   0.323  30.538  0.00  0.00    +0.159 C 
ATOM      4  N   UNL A   1     -28.781   1.559  30.048  0.00  0.00    -0.291 N 
ATOM      5  C   UNL A   1     -29.041   1.871  28.988  0.00  0.00    +0.092 C 
ATOM      6  C   UNL A   1     -29.364   3.372  28.785  0.00  0.00    +0.021 C 
ATOM      7  C   UNL A   1     -28.217   2.636  30.967  0.00  0.00    +0.092 C 
ATOM      8  C   UNL A   1     -28.497   3.933  30.856  0.00  0.00    +0.021 C 
ATOM      9  C   UNL A   1     -28.888   4.350  29.590  0.00  0.00    +0.004 C 
ENDBRANCH   1   2
BRANCH   1  10
ATOM     10  C   UNL A   1     -27.064  -0.119  28.608  0.00  0.00    +0.002 A 
ATOM     11  C   UNL A   1     -27.001   0.691  27.491  0.00  0.00    -0.002 A 
ATOM     12  C   UNL A   1     -25.855   1.482  27.083  0.00  0.00    -0.000 A 
ATOM     13  C   UNL A   1     -24.690   1.453  27.881  0.00  0.00    +0.005 A 
ATOM     14  C   UNL A   1     -24.738   0.601  29.042  0.00  0.00    +0.056 A 
ATOM     15  C   UNL A   1     -25.823  -0.169  29.389  0.00  0.00    +0.002 A 
BRANCH  14  16
ATOM     16  C   UNL A   1     -23.456   0.513  29.841  0.00  0.00    +0.284 C 
ATOM     17  N   UNL A   1     -23.497   0.553  31.109  0.00  0.00    -0.084 NA
ATOM     18  O   UNL A   1     -22.329   0.405  29.239  0.00  0.00    -0.267 OA
ENDBRANCH  14  16
ENDBRANCH   1  10
TORSDOF 3
