MODEL 547
MODEL 1
REMARK VINA RESULT:    -6.296      0.000      0.000
REMARK INTER + INTRA:          -7.768
REMARK INTER:                  -7.400
REMARK INTRA:                  -0.368
REMARK UNBOUND:                -0.368
REMARK  Name = No_547-gen_results/8p0m/2024-11-26-14-13-15/
REMARK  3 active torsions:
REMARK  status: ('A' for Active; 'I' for Inactive)
REMARK    1  A    between atoms: C_1  and  C_2
REMARK    2  A    between atoms: C_1  and  N_8
REMARK    3  A    between atoms: C_6  and  C_16
REMARK                            x       y       z     vdW  Elec       q    Type
REMARK                         _______ _______ _______ _____ _____    ______ ____
ROOT
ATOM      1  C   UNL A   1     -25.805   0.342  26.380  0.00  0.00    +0.153 C 
ENDROOT
BRANCH   1   2
ATOM      2  N   UNL A   1     -25.904  -0.282  25.135  0.00  0.00    -0.249 NA
ATOM      3  C   UNL A   1     -26.616  -0.294  24.423  0.00  0.00    +0.159 C 
ATOM      4  N   UNL A   1     -27.645   0.558  24.341  0.00  0.00    -0.291 N 
ATOM      5  C   UNL A   1     -27.581   1.672  24.550  0.00  0.00    +0.092 C 
ATOM      6  C   UNL A   1     -28.650   2.551  23.855  0.00  0.00    +0.021 C 
ATOM      7  C   UNL A   1     -29.009   0.005  23.944  0.00  0.00    +0.092 C 
ATOM      8  C   UNL A   1     -29.944   0.711  23.311  0.00  0.00    +0.021 C 
ATOM      9  C   UNL A   1     -29.865   2.088  23.481  0.00  0.00    +0.004 C 
ENDBRANCH   1   2
BRANCH   1  10
ATOM     10  C   UNL A   1     -24.714   0.708  26.750  0.00  0.00    +0.002 A 
ATOM     11  C   UNL A   1     -24.021   1.753  26.171  0.00  0.00    -0.002 A 
ATOM     12  C   UNL A   1     -22.681   2.180  26.527  0.00  0.00    -0.000 A 
ATOM     13  C   UNL A   1     -22.001   1.496  27.559  0.00  0.00    +0.005 A 
ATOM     14  C   UNL A   1     -22.708   0.395  28.161  0.00  0.00    +0.056 A 
ATOM     15  C   UNL A   1     -23.964  -0.016  27.782  0.00  0.00    +0.002 A 
BRANCH  14  16
ATOM     16  C   UNL A   1     -21.936  -0.383  29.206  0.00  0.00    +0.284 C 
ATOM     17  N   UNL A   1     -22.334  -0.388  30.411  0.00  0.00    -0.084 NA
ATOM     18  O   UNL A   1     -20.879  -1.029  28.876  0.00  0.00    -0.267 OA
ENDBRANCH  14  16
ENDBRANCH   1  10
TORSDOF 3
ENDMDL
ENDMDL
