REMARK  Name = No_548-gen_results/8p0m/2024-11-26-14-13-15/
REMARK  1 active torsions:
REMARK  status: ('A' for Active; 'I' for Inactive)
REMARK    1  A    between atoms: C_2  and  C_14
REMARK                            x       y       z     vdW  Elec       q    Type
REMARK                         _______ _______ _______ _____ _____    ______ ____
ROOT
ATOM      1  C   UNL A   1     -28.016  -0.814  28.878  0.00  0.00    +0.006 A 
ATOM      2  C   UNL A   1     -28.469  -0.785  29.829  0.00  0.00    +0.068 A 
ATOM      3  C   UNL A   1     -26.546  -0.876  28.850  0.00  0.00    -0.000 A 
ATOM      4  C   UNL A   1     -25.683  -0.777  27.683  0.00  0.00    -0.004 A 
ATOM      5  C   UNL A   1     -27.918  -1.003  31.188  0.00  0.00    +0.006 A 
ATOM      6  C   UNL A   1     -26.531  -1.079  31.246  0.00  0.00    +0.000 A 
ATOM      7  C   UNL A   1     -25.780  -1.046  30.090  0.00  0.00    +0.000 A 
ATOM      8  C   UNL A   1     -24.368  -0.250  27.792  0.00  0.00    -0.011 A 
ATOM      9  C   UNL A   1     -23.681  -0.476  29.017  0.00  0.00    +0.087 A 
ATOM     10  C   UNL A   1     -24.369  -0.787  30.144  0.00  0.00    +0.007 A 
ATOM     11  C   UNL A   1     -22.219  -0.193  29.055  0.00  0.00    +0.418 C 
ATOM     12  N   UNL A   1     -21.305  -0.835  29.438  0.00  0.00    +0.198 NA
ATOM     13  N   UNL A   1     -21.862   0.991  28.317  0.00  0.00    +0.001 NA
ATOM     14  C   UNL A   1     -22.710   1.928  27.790  0.00  0.00    +0.220 C 
ATOM     15  C   UNL A   1     -23.930   0.592  26.739  0.00  0.00    +0.048 C 
ATOM     16  C   UNL A   1     -24.863   0.512  25.596  0.00  0.00    +0.009 C 
ATOM     17  C   UNL A   1     -23.185   1.688  26.730  0.00  0.00    +0.026 C 
ENDROOT
BRANCH   2  18
ATOM     18  C   UNL A   1     -30.066  -0.843  29.900  0.00  0.00    +0.333 C 
ATOM     19  O   UNL A   1     -30.730  -1.666  30.106  0.00  0.00    -0.254 OA
ATOM     20  F   UNL A   1     -30.541   0.349  29.602  0.00  0.00    -0.159 F 
ENDBRANCH   2  18
TORSDOF 1
