MODEL 548
MODEL 1
REMARK VINA RESULT:    -7.267      0.000      0.000
REMARK INTER + INTRA:          -7.812
REMARK INTER:                  -7.692
REMARK INTRA:                  -0.120
REMARK UNBOUND:                -0.120
REMARK  Name = No_548-gen_results/8p0m/2024-11-26-14-13-15/
REMARK  1 active torsions:
REMARK  status: ('A' for Active; 'I' for Inactive)
REMARK    1  A    between atoms: C_2  and  C_14
REMARK                            x       y       z     vdW  Elec       q    Type
REMARK                         _______ _______ _______ _____ _____    ______ ____
ROOT
ATOM      1  C   UNL A   1     -28.154 -12.012  31.285  0.00  0.00    +0.006 A 
ATOM      2  C   UNL A   1     -28.360 -11.715  32.275  0.00  0.00    +0.068 A 
ATOM      3  C   UNL A   1     -28.913 -11.334  30.222  0.00  0.00    -0.000 A 
ATOM      4  C   UNL A   1     -28.925 -11.658  28.804  0.00  0.00    -0.004 A 
ATOM      5  C   UNL A   1     -29.138 -10.577  32.819  0.00  0.00    +0.006 A 
ATOM      6  C   UNL A   1     -29.881  -9.878  31.874  0.00  0.00    +0.000 A 
ATOM      7  C   UNL A   1     -29.789 -10.199  30.536  0.00  0.00    +0.000 A 
ATOM      8  C   UNL A   1     -30.070 -11.393  28.005  0.00  0.00    -0.011 A 
ATOM      9  C   UNL A   1     -30.856 -10.262  28.359  0.00  0.00    +0.087 A 
ATOM     10  C   UNL A   1     -30.776  -9.730  29.604  0.00  0.00    +0.007 A 
ATOM     11  C   UNL A   1     -31.880  -9.796  27.382  0.00  0.00    +0.418 C 
ATOM     12  N   UNL A   1     -32.117  -8.726  26.943  0.00  0.00    +0.198 NA
ATOM     13  N   UNL A   1     -32.561 -10.885  26.729  0.00  0.00    +0.001 NA
ATOM     14  C   UNL A   1     -32.500 -12.214  27.050  0.00  0.00    +0.220 C 
ATOM     15  C   UNL A   1     -30.413 -12.373  27.041  0.00  0.00    +0.048 C 
ATOM     16  C   UNL A   1     -29.316 -13.351  26.888  0.00  0.00    +0.009 C 
ATOM     17  C   UNL A   1     -31.583 -12.830  26.617  0.00  0.00    +0.026 C 
ENDROOT
BRANCH   2  18
ATOM     18  C   UNL A   1     -27.467 -12.341  33.445  0.00  0.00    +0.333 C 
ATOM     19  O   UNL A   1     -27.597 -12.321  34.515  0.00  0.00    -0.254 OA
ATOM     20  F   UNL A   1     -26.410 -12.912  32.905  0.00  0.00    -0.159 F 
ENDBRANCH   2  18
TORSDOF 1
ENDMDL
ENDMDL
