REMARK  Name = No_549-gen_results/8p0m/2024-11-26-14-13-15/
REMARK  2 active torsions:
REMARK  status: ('A' for Active; 'I' for Inactive)
REMARK    1  A    between atoms: C_3  and  C_12
REMARK    2  A    between atoms: C_6  and  C_8
REMARK                            x       y       z     vdW  Elec       q    Type
REMARK                         _______ _______ _______ _____ _____    ______ ____
ROOT
ATOM      1  C   UNL A   1     -28.016  -0.814  28.878  0.00  0.00    +0.146 A 
ATOM      2  C   UNL A   1     -27.064  -0.119  28.608  0.00  0.00    +0.058 A 
ATOM      3  C   UNL A   1     -27.001   0.691  27.491  0.00  0.00    -0.014 A 
ATOM      4  C   UNL A   1     -28.142   0.828  26.799  0.00  0.00    +0.003 A 
ATOM      5  C   UNL A   1     -29.290  -0.487  28.366  0.00  0.00    +0.037 A 
ATOM      6  C   UNL A   1     -29.285   0.261  27.262  0.00  0.00    +0.082 A 
ATOM      7  F   UNL A   1     -27.986  -1.553  30.026  0.00  0.00    -0.204 F 
ATOM      8 BR   UNL A   1     -25.520  -0.503  29.733  0.00  0.00    -0.047 Br
ENDROOT
BRANCH   6   9
ATOM      9  C   UNL A   1     -30.434   0.523  26.296  0.00  0.00    +0.388 C 
ATOM     10  O   UNL A   1     -31.377  -0.053  26.425  0.00  0.00    -0.241 OA
ATOM     11  O   UNL A   1     -30.349   1.380  25.333  0.00  0.00    -0.241 OA
ENDBRANCH   6   9
BRANCH   3  12
ATOM     12  C   UNL A   1     -25.620   1.290  27.093  0.00  0.00    +0.027 C 
ATOM     13  C   UNL A   1     -24.554   1.038  27.800  0.00  0.00    +0.005 C 
ENDBRANCH   3  12
TORSDOF 2
