MODEL 549
MODEL 1
REMARK VINA RESULT:    -5.826      0.000      0.000
REMARK INTER + INTRA:          -6.707
REMARK INTER:                  -6.507
REMARK INTRA:                  -0.200
REMARK UNBOUND:                -0.200
REMARK  Name = No_549-gen_results/8p0m/2024-11-26-14-13-15/
REMARK  2 active torsions:
REMARK  status: ('A' for Active; 'I' for Inactive)
REMARK    1  A    between atoms: C_3  and  C_12
REMARK    2  A    between atoms: C_6  and  C_8
REMARK                            x       y       z     vdW  Elec       q    Type
REMARK                         _______ _______ _______ _____ _____    ______ ____
ROOT
ATOM      1  C   UNL A   1     -29.707  -9.853  31.769  0.00  0.00    +0.146 A 
ATOM      2  C   UNL A   1     -29.860 -10.344  30.674  0.00  0.00    +0.058 A 
ATOM      3  C   UNL A   1     -29.069 -11.359  30.174  0.00  0.00    -0.014 A 
ATOM      4  C   UNL A   1     -28.222 -11.928  31.045  0.00  0.00    +0.003 A 
ATOM      5  C   UNL A   1     -29.055 -10.589  32.781  0.00  0.00    +0.037 A 
ATOM      6  C   UNL A   1     -28.246 -11.557  32.350  0.00  0.00    +0.082 A 
ATOM      7  F   UNL A   1     -30.568  -8.875  32.177  0.00  0.00    -0.204 F 
ATOM      8 BR   UNL A   1     -31.124  -9.342  29.581  0.00  0.00    -0.047 Br
ENDROOT
BRANCH   6   9
ATOM      9  C   UNL A   1     -27.178 -12.312  33.133  0.00  0.00    +0.388 C 
ATOM     10  O   UNL A   1     -26.404 -12.875  32.567  0.00  0.00    -0.241 OA
ATOM     11  O   UNL A   1     -27.145 -12.326  34.425  0.00  0.00    -0.241 OA
ENDBRANCH   6   9
BRANCH   3  12
ATOM     12  C   UNL A   1     -29.166 -11.687  28.655  0.00  0.00    +0.027 C 
ATOM     13  C   UNL A   1     -29.588 -12.852  28.249  0.00  0.00    +0.005 C 
ENDBRANCH   3  12
TORSDOF 2
ENDMDL
ENDMDL
