MODEL 54
MODEL 1
REMARK VINA RESULT:    -3.943      0.000      0.000
REMARK INTER + INTRA:          -4.499
REMARK INTER:                  -4.404
REMARK INTRA:                  -0.095
REMARK UNBOUND:                -0.095
REMARK  Name = No_54-gen_results/8p0m/2024-11-26-14-13-15/
REMARK  2 active torsions:
REMARK  status: ('A' for Active; 'I' for Inactive)
REMARK    1  A    between atoms: C_2  and  C_4
REMARK    2  A    between atoms: C_6  and  C_7
REMARK                            x       y       z     vdW  Elec       q    Type
REMARK                         _______ _______ _______ _____ _____    ______ ____
ROOT
ATOM      1 CL   UNL A   1     -29.498 -12.038  11.933  0.00  0.00    -0.042 Cl
ATOM      2  C   UNL A   1     -30.628 -12.475  12.553  0.00  0.00    +0.350 C 
ATOM      3  F   UNL A   1     -31.709 -12.574  11.917  0.00  0.00    -0.182 F 
ATOM      4  F   UNL A   1     -30.879 -11.693  13.646  0.00  0.00    -0.182 F 
ENDROOT
BRANCH   2   5
ATOM      5  C   UNL A   1     -30.393 -13.895  13.180  0.00  0.00    +0.056 C 
ATOM      6  C   UNL A   1     -29.752 -14.750  12.394  0.00  0.00    +0.002 C 
BRANCH   6   7
ATOM      7  C   UNL A   1     -30.446 -15.297  11.352  0.00  0.00    -0.000 C 
ATOM      8  C   UNL A   1     -29.796 -15.776  10.099  0.00  0.00    -0.000 C 
ENDBRANCH   6   7
ENDBRANCH   2   5
TORSDOF 2
ENDMDL
ENDMDL
