MODEL 550
MODEL 1
REMARK VINA RESULT:    -6.000      0.000      0.000
REMARK INTER + INTRA:          -8.235
REMARK INTER:                  -7.403
REMARK INTRA:                  -0.832
REMARK UNBOUND:                -0.832
REMARK  Name = No_550-gen_results/8p0m/2024-11-26-14-13-15/
REMARK  4 active torsions:
REMARK  status: ('A' for Active; 'I' for Inactive)
REMARK    1  A    between atoms: C_3  and  C_7
REMARK    2  A    between atoms: C_6  and  C_12
REMARK    3  A    between atoms: C_8  and  C_15
REMARK    4  A    between atoms: C_15  and  C_17
REMARK                            x       y       z     vdW  Elec       q    Type
REMARK                         _______ _______ _______ _____ _____    ______ ____
ROOT
ATOM      1  C   UNL A   1     -25.427  -2.905  29.178  0.00  0.00    +0.006 A 
ATOM      2  C   UNL A   1     -24.760  -2.164  28.494  0.00  0.00    -0.003 A 
ATOM      3  C   UNL A   1     -25.102  -0.837  28.235  0.00  0.00    -0.015 A 
ATOM      4  C   UNL A   1     -26.350  -0.315  28.757  0.00  0.00    -0.003 A 
ATOM      5  C   UNL A   1     -27.097  -1.210  29.523  0.00  0.00    +0.006 A 
ATOM      6  C   UNL A   1     -26.703  -2.454  29.709  0.00  0.00    +0.080 A 
ENDROOT
BRANCH   3   7
ATOM      7  C   UNL A   1     -24.332   0.145  27.407  0.00  0.00    +0.064 C 
ATOM      8  C   UNL A   1     -23.309   0.842  27.880  0.00  0.00    -0.014 C 
ATOM      9  C   UNL A   1     -22.671   1.849  27.089  0.00  0.00    -0.007 C 
ATOM     10  C   UNL A   1     -23.056   2.053  25.736  0.00  0.00    -0.004 C 
ATOM     11  C   UNL A   1     -24.496   0.854  26.083  0.00  0.00    -0.018 C 
BRANCH   8  12
ATOM     12  C   UNL A   1     -22.727   0.597  29.288  0.00  0.00    +0.163 C 
ATOM     13 CL   UNL A   1     -23.304   1.150  30.569  0.00  0.00    -0.102 Cl
BRANCH  12  14
ATOM     14  C   UNL A   1     -21.471  -0.151  29.280  0.00  0.00    +0.228 C 
ATOM     15  O   UNL A   1     -21.451  -1.196  28.892  0.00  0.00    -0.287 OA
ENDBRANCH  12  14
ENDBRANCH   8  12
ENDBRANCH   3   7
BRANCH   6  16
ATOM     16  C   UNL A   1     -27.598  -3.337  30.500  0.00  0.00    +0.388 C 
ATOM     17  O   UNL A   1     -28.016  -4.261  30.030  0.00  0.00    -0.241 OA
ATOM     18  O   UNL A   1     -28.330  -2.799  31.477  0.00  0.00    -0.241 OA
ENDBRANCH   6  16
TORSDOF 4
ENDMDL
ENDMDL
