REMARK  Name = No_551-gen_results/8p0m/2024-11-26-14-13-15/
REMARK  0 active torsions:
REMARK  status: ('A' for Active; 'I' for Inactive)
REMARK                            x       y       z     vdW  Elec       q    Type
REMARK                         _______ _______ _______ _____ _____    ______ ____
ROOT
ATOM      1  C   UNL A   1     -28.016  -0.814  28.878  0.00  0.00    +0.002 A 
ATOM      2  C   UNL A   1     -27.064  -0.119  28.608  0.00  0.00    +0.030 A 
ATOM      3  C   UNL A   1     -26.775   0.558  27.414  0.00  0.00    +0.140 A 
ATOM      4  C   UNL A   1     -27.857   0.559  26.474  0.00  0.00    +0.030 A 
ATOM      5  C   UNL A   1     -29.049   0.082  26.883  0.00  0.00    +0.002 A 
ATOM      6  C   UNL A   1     -29.163  -0.565  28.049  0.00  0.00    +0.000 A 
ATOM      7  F   UNL A   1     -25.645   1.138  27.094  0.00  0.00    -0.204 F 
ENDROOT
TORSDOF 0
