MODEL 551
MODEL 1
REMARK VINA RESULT:    -4.639      0.000      0.000
REMARK INTER + INTRA:          -4.639
REMARK INTER:                  -4.639
REMARK INTRA:                   0.000
REMARK UNBOUND:                 0.000
REMARK  Name = No_551-gen_results/8p0m/2024-11-26-14-13-15/
REMARK  0 active torsions:
REMARK  status: ('A' for Active; 'I' for Inactive)
REMARK                            x       y       z     vdW  Elec       q    Type
REMARK                         _______ _______ _______ _____ _____    ______ ____
ROOT
ATOM      1  C   UNL A   1     -10.208  -9.156  19.621  0.00  0.00    +0.002 A 
ATOM      2  C   UNL A   1      -9.172  -9.098  20.241  0.00  0.00    +0.030 A 
ATOM      3  C   UNL A   1      -8.009  -9.869  20.092  0.00  0.00    +0.140 A 
ATOM      4  C   UNL A   1      -8.012 -10.700  18.925  0.00  0.00    +0.030 A 
ATOM      5  C   UNL A   1      -9.010 -10.535  18.035  0.00  0.00    +0.002 A 
ATOM      6  C   UNL A   1     -10.073  -9.778  18.332  0.00  0.00    +0.000 A 
ATOM      7  F   UNL A   1      -6.984  -9.907  20.907  0.00  0.00    -0.204 F 
ENDROOT
TORSDOF 0
ENDMDL
ENDMDL
