REMARK  Name = No_552-gen_results/8p0m/2024-11-26-14-13-15/
REMARK  5 active torsions:
REMARK  status: ('A' for Active; 'I' for Inactive)
REMARK    1  A    between atoms: C_4  and  C_8
REMARK    2  A    between atoms: C_9  and  C_10
REMARK    3  A    between atoms: C_10  and  C_11
REMARK    4  A    between atoms: C_11  and  C_12
REMARK    5  A    between atoms: C_18  and  O_22
REMARK                            x       y       z     vdW  Elec       q    Type
REMARK                         _______ _______ _______ _____ _____    ______ ____
ROOT
ATOM      1  C   UNL A   1     -24.373  -0.842  29.924  0.00  0.00    +0.033 A 
ATOM      2  C   UNL A   1     -23.758   0.490  30.118  0.00  0.00    +0.000 A 
ATOM      3  C   UNL A   1     -23.754  -1.993  29.509  0.00  0.00    +0.157 A 
ATOM      4  C   UNL A   1     -22.281   0.115  29.967  0.00  0.00    +0.095 A 
ATOM      5  N   UNL A   1     -21.674  -0.899  29.505  0.00  0.00    -0.239 NA
ATOM      6  C   UNL A   1     -22.420  -1.965  29.273  0.00  0.00    +0.136 A 
ENDROOT
BRANCH   1  10
ATOM      7  C   UNL A   1     -28.016  -0.814  28.878  0.00  0.00    +0.011 A 
ATOM      8  C   UNL A   1     -28.469  -0.785  29.829  0.00  0.00    +0.058 A 
ATOM      9  C   UNL A   1     -26.546  -0.876  28.850  0.00  0.00    +0.001 A 
ATOM     10  C   UNL A   1     -25.897  -0.827  29.889  0.00  0.00    +0.003 A 
ATOM     11  C   UNL A   1     -27.913  -0.839  31.194  0.00  0.00    +0.011 A 
ATOM     12  C   UNL A   1     -26.552  -0.832  31.177  0.00  0.00    +0.001 A 
ATOM     13 CL   UNL A   1     -30.306  -0.879  30.028  0.00  0.00    -0.082 Cl
ENDBRANCH   1  10
BRANCH   3  14
ATOM     14  O   UNL A   1     -24.387  -3.082  29.227  0.00  0.00    -0.470 OA
ATOM     15  C   UNL A   1     -24.363  -3.846  28.139  0.00  0.00    +0.253 C 
ENDBRANCH   3  14
BRANCH   2  16
ATOM     16  C   UNL A   1     -24.169   1.463  30.561  0.00  0.00    +0.033 C 
BRANCH  16  17
ATOM     17  C   UNL A   1     -25.500   1.588  31.086  0.00  0.00    +0.031 C 
BRANCH  17  18
ATOM     18  C   UNL A   1     -25.816   2.996  31.588  0.00  0.00    -0.022 A 
ATOM     19  C   UNL A   1     -27.006   3.222  32.286  0.00  0.00    -0.004 A 
ATOM     20  C   UNL A   1     -27.581   4.452  32.219  0.00  0.00    -0.000 A 
ATOM     21  C   UNL A   1     -26.874   5.569  31.747  0.00  0.00    -0.000 A 
ATOM     22  C   UNL A   1     -25.678   5.373  31.132  0.00  0.00    -0.000 A 
ATOM     23  C   UNL A   1     -25.149   4.101  30.990  0.00  0.00    -0.004 A 
ENDBRANCH  17  18
ENDBRANCH  16  17
ENDBRANCH   2  16
TORSDOF 5
