MODEL 552
MODEL 1
REMARK VINA RESULT:    -6.801      0.000      0.000
REMARK INTER + INTRA:         -10.107
REMARK INTER:                  -8.789
REMARK INTRA:                  -1.317
REMARK UNBOUND:                -1.317
REMARK  Name = No_552-gen_results/8p0m/2024-11-26-14-13-15/
REMARK  5 active torsions:
REMARK  status: ('A' for Active; 'I' for Inactive)
REMARK    1  A    between atoms: C_4  and  C_8
REMARK    2  A    between atoms: C_9  and  C_10
REMARK    3  A    between atoms: C_10  and  C_11
REMARK    4  A    between atoms: C_11  and  C_12
REMARK    5  A    between atoms: C_18  and  O_22
REMARK                            x       y       z     vdW  Elec       q    Type
REMARK                         _______ _______ _______ _____ _____    ______ ____
ROOT
ATOM      1  C   UNL A   1      -9.165   1.734  34.712  0.00  0.00    +0.033 A 
ATOM      2  C   UNL A   1      -8.654   0.748  35.690  0.00  0.00    +0.000 A 
ATOM      3  C   UNL A   1      -8.430   2.541  33.882  0.00  0.00    +0.157 A 
ATOM      4  C   UNL A   1      -7.172   0.748  35.304  0.00  0.00    +0.095 A 
ATOM      5  N   UNL A   1      -6.442   1.526  34.617  0.00  0.00    -0.239 NA
ATOM      6  C   UNL A   1      -7.080   2.433  33.897  0.00  0.00    +0.136 A 
ENDROOT
BRANCH   1  10
ATOM      7  C   UNL A   1     -12.941   1.940  34.459  0.00  0.00    +0.011 A 
ATOM      8  C   UNL A   1     -13.122   2.688  35.179  0.00  0.00    +0.058 A 
ATOM      9  C   UNL A   1     -11.540   1.527  34.276  0.00  0.00    +0.001 A 
ATOM     10  C   UNL A   1     -10.638   2.085  34.890  0.00  0.00    +0.003 A 
ATOM     11  C   UNL A   1     -12.230   3.406  36.109  0.00  0.00    +0.011 A 
ATOM     12  C   UNL A   1     -10.926   3.076  35.901  0.00  0.00    +0.001 A 
ATOM     13 CL   UNL A   1     -14.842   3.188  35.643  0.00  0.00    -0.082 Cl
ENDBRANCH   1  10
BRANCH   3  14
ATOM     14  O   UNL A   1      -8.946   3.478  33.158  0.00  0.00    -0.470 OA
ATOM     15  C   UNL A   1      -8.417   4.601  32.682  0.00  0.00    +0.253 C 
ENDBRANCH   3  14
BRANCH   2  16
ATOM     16  C   UNL A   1      -9.187  -0.035  36.334  0.00  0.00    +0.033 C 
BRANCH  16  17
ATOM     17  C   UNL A   1      -9.523   0.177  37.714  0.00  0.00    +0.031 C 
BRANCH  17  18
ATOM     18  C   UNL A   1     -10.739  -0.630  38.166  0.00  0.00    -0.022 A 
ATOM     19  C   UNL A   1     -11.192  -0.505  39.482  0.00  0.00    -0.004 A 
ATOM     20  C   UNL A   1     -11.822  -1.562  40.061  0.00  0.00    -0.000 A 
ATOM     21  C   UNL A   1     -12.307  -2.636  39.299  0.00  0.00    -0.000 A 
ATOM     22  C   UNL A   1     -11.936  -2.731  37.995  0.00  0.00    -0.000 A 
ATOM     23  C   UNL A   1     -11.115  -1.779  37.415  0.00  0.00    -0.004 A 
ENDBRANCH  17  18
ENDBRANCH  16  17
ENDBRANCH   2  16
TORSDOF 5
ENDMDL
ENDMDL
