MODEL 553
MODEL 1
REMARK VINA RESULT:    -5.382      0.000      0.000
REMARK INTER + INTRA:          -5.737
REMARK INTER:                  -5.697
REMARK INTRA:                  -0.041
REMARK UNBOUND:                -0.041
REMARK  Name = No_553-gen_results/8p0m/2024-11-26-14-13-15/
REMARK  1 active torsions:
REMARK  status: ('A' for Active; 'I' for Inactive)
REMARK    1  A    between atoms: C_1  and  C_7
REMARK                            x       y       z     vdW  Elec       q    Type
REMARK                         _______ _______ _______ _____ _____    ______ ____
ROOT
ATOM      1  C   UNL A   1      -9.491 -10.093  18.239  0.00  0.00    +0.080 A 
ATOM      2  C   UNL A   1      -8.414 -10.487  18.622  0.00  0.00    +0.007 A 
ATOM      3  C   UNL A   1      -7.859 -10.135  19.837  0.00  0.00    +0.000 A 
ATOM      4  C   UNL A   1      -8.617  -9.293  20.698  0.00  0.00    +0.000 A 
ATOM      5  C   UNL A   1      -9.882  -9.019  20.300  0.00  0.00    +0.000 A 
ATOM      6  C   UNL A   1     -10.345  -9.434  19.136  0.00  0.00    +0.007 A 
ENDROOT
BRANCH   1   7
ATOM      7  C   UNL A   1     -10.026 -10.539  16.901  0.00  0.00    +0.388 C 
ATOM      8  O   UNL A   1      -9.598 -11.061  16.116  0.00  0.00    -0.241 OA
ATOM      9  O   UNL A   1     -11.483 -10.511  16.987  0.00  0.00    -0.241 OA
ENDBRANCH   1   7
TORSDOF 1
ENDMDL
ENDMDL
