REMARK  Name = No_554-gen_results/8p0m/2024-11-26-14-13-15/
REMARK  3 active torsions:
REMARK  status: ('A' for Active; 'I' for Inactive)
REMARK    1  A    between atoms: C_3  and  C_5
REMARK    2  A    between atoms: N_4  and  C_6
REMARK    3  A    between atoms: C_5  and  C_7
REMARK                            x       y       z     vdW  Elec       q    Type
REMARK                         _______ _______ _______ _____ _____    ______ ____
ROOT
ATOM      1  O   UNL A   1     -28.123  -1.335  28.487  0.00  0.00    -0.275 OA
ATOM      2  C   UNL A   1     -28.521  -0.436  29.078  0.00  0.00    +0.229 C 
ATOM      3  C   UNL A   1     -27.666   0.113  30.035  0.00  0.00    +0.081 C 
ATOM      4  N   UNL A   1     -29.742   0.110  28.887  0.00  0.00    -0.259 N 
ATOM      5  C   UNL A   1     -30.276   1.238  29.651  0.00  0.00    +0.098 C 
ATOM      6  C   UNL A   1     -29.484   1.715  30.639  0.00  0.00    +0.022 C 
ATOM      7  C   UNL A   1     -28.201   1.233  30.926  0.00  0.00    +0.011 C 
ENDROOT
BRANCH   4   8
ATOM      8  C   UNL A   1     -30.563  -0.446  27.925  0.00  0.00    +0.054 A 
ATOM      9  C   UNL A   1     -31.721  -0.854  28.145  0.00  0.00    +0.015 A 
ATOM     10  C   UNL A   1     -32.509  -1.467  27.158  0.00  0.00    +0.001 A 
ATOM     11  C   UNL A   1     -32.001  -1.524  25.814  0.00  0.00    +0.000 A 
ATOM     12  C   UNL A   1     -30.720  -0.957  25.576  0.00  0.00    +0.001 A 
ATOM     13  C   UNL A   1     -30.004  -0.351  26.552  0.00  0.00    +0.014 A 
ATOM     14  C   UNL A   1     -30.176  -0.968  24.199  0.00  0.00    +0.000 A 
ATOM     15  C   UNL A   1     -28.919  -0.261  24.088  0.00  0.00    +0.000 A 
ATOM     16  C   UNL A   1     -28.618   0.657  25.001  0.00  0.00    +0.000 A 
ATOM     17  C   UNL A   1     -28.918   0.527  26.272  0.00  0.00    +0.001 A 
ENDBRANCH   4   8
BRANCH   3  18
ATOM     18  C   UNL A   1     -26.548  -0.376  30.309  0.00  0.00    +0.035 C 
BRANCH  18  19
ATOM     19  C   UNL A   1     -25.331   0.442  30.067  0.00  0.00    -0.022 A 
ATOM     20  C   UNL A   1     -24.058  -0.134  29.961  0.00  0.00    -0.004 A 
ATOM     21  C   UNL A   1     -22.942   0.665  29.636  0.00  0.00    -0.000 A 
ATOM     22  C   UNL A   1     -23.188   1.955  29.126  0.00  0.00    -0.000 A 
ATOM     23  C   UNL A   1     -24.467   2.503  29.130  0.00  0.00    -0.000 A 
ATOM     24  C   UNL A   1     -25.545   1.776  29.593  0.00  0.00    -0.004 A 
ENDBRANCH  18  19
ENDBRANCH   3  18
TORSDOF 3
