MODEL 554
MODEL 1
REMARK VINA RESULT:    -7.974      0.000      0.000
REMARK INTER + INTRA:         -10.084
REMARK INTER:                  -9.373
REMARK INTRA:                  -0.711
REMARK UNBOUND:                -0.711
REMARK  Name = No_554-gen_results/8p0m/2024-11-26-14-13-15/
REMARK  3 active torsions:
REMARK  status: ('A' for Active; 'I' for Inactive)
REMARK    1  A    between atoms: C_3  and  C_5
REMARK    2  A    between atoms: N_4  and  C_6
REMARK    3  A    between atoms: C_5  and  C_7
REMARK                            x       y       z     vdW  Elec       q    Type
REMARK                         _______ _______ _______ _____ _____    ______ ____
ROOT
ATOM      1  O   UNL A   1     -25.265  -0.875  27.054  0.00  0.00    -0.275 OA
ATOM      2  C   UNL A   1     -24.340  -0.630  27.687  0.00  0.00    +0.229 C 
ATOM      3  C   UNL A   1     -23.685   0.569  27.401  0.00  0.00    +0.081 C 
ATOM      4  N   UNL A   1     -23.875  -1.421  28.679  0.00  0.00    -0.259 N 
ATOM      5  C   UNL A   1     -22.681  -1.137  29.476  0.00  0.00    +0.098 C 
ATOM      6  C   UNL A   1     -21.994  -0.020  29.141  0.00  0.00    +0.022 C 
ATOM      7  C   UNL A   1     -22.382   0.876  28.137  0.00  0.00    +0.011 C 
ENDROOT
BRANCH   4   8
ATOM      8  C   UNL A   1     -24.549  -2.596  28.948  0.00  0.00    +0.054 A 
ATOM      9  C   UNL A   1     -24.107  -3.732  28.684  0.00  0.00    +0.015 A 
ATOM     10  C   UNL A   1     -24.843  -4.905  28.919  0.00  0.00    +0.001 A 
ATOM     11  C   UNL A   1     -26.108  -4.796  29.593  0.00  0.00    +0.000 A 
ATOM     12  C   UNL A   1     -26.535  -3.495  29.973  0.00  0.00    +0.001 A 
ATOM     13  C   UNL A   1     -25.782  -2.392  29.751  0.00  0.00    +0.014 A 
ATOM     14  C   UNL A   1     -27.818  -3.345  30.697  0.00  0.00    +0.000 A 
ATOM     15  C   UNL A   1     -28.069  -1.983  31.116  0.00  0.00    +0.000 A 
ATOM     16  C   UNL A   1     -27.039  -1.153  31.244  0.00  0.00    +0.000 A 
ATOM     17  C   UNL A   1     -26.007  -1.162  30.433  0.00  0.00    +0.001 A 
ENDBRANCH   4   8
BRANCH   3  18
ATOM     18  C   UNL A   1     -24.022   1.320  26.459  0.00  0.00    +0.035 C 
BRANCH  18  19
ATOM     19  C   UNL A   1     -24.643   2.632  26.777  0.00  0.00    -0.022 A 
ATOM     20  C   UNL A   1     -25.297   2.868  27.994  0.00  0.00    -0.004 A 
ATOM     21  C   UNL A   1     -25.790   4.155  28.297  0.00  0.00    -0.000 A 
ATOM     22  C   UNL A   1     -25.339   5.230  27.507  0.00  0.00    -0.000 A 
ATOM     23  C   UNL A   1     -24.599   5.017  26.348  0.00  0.00    -0.000 A 
ATOM     24  C   UNL A   1     -24.243   3.740  25.963  0.00  0.00    -0.004 A 
ENDBRANCH  18  19
ENDBRANCH   3  18
TORSDOF 3
ENDMDL
ENDMDL
