REMARK  Name = No_555-gen_results/8p0m/2024-11-26-14-13-15/
REMARK  2 active torsions:
REMARK  status: ('A' for Active; 'I' for Inactive)
REMARK    1  A    between atoms: C_1  and  C_3
REMARK    2  A    between atoms: C_3  and  C_11
REMARK                            x       y       z     vdW  Elec       q    Type
REMARK                         _______ _______ _______ _____ _____    ______ ____
ROOT
ATOM      1  C   UNL A   1     -28.196   0.348  28.055  0.00  0.00    +0.038 C 
ATOM      2  C   UNL A   1     -27.442   0.510  26.795  0.00  0.00    +0.008 C 
ATOM      3  C   UNL A   1     -27.843   1.333  25.806  0.00  0.00    +0.001 C 
ATOM      4  C   UNL A   1     -29.682   0.435  27.567  0.00  0.00    +0.008 C 
ATOM      5  C   UNL A   1     -30.076   1.274  26.540  0.00  0.00    +0.001 C 
ATOM      6  C   UNL A   1     -26.831   1.605  24.735  0.00  0.00    +0.000 C 
ATOM      7  C   UNL A   1     -29.177   1.777  25.601  0.00  0.00    +0.000 C 
ENDROOT
BRANCH   1   8
ATOM      8  C   UNL A   1     -28.016  -0.814  28.878  0.00  0.00    -0.019 A 
ATOM      9  C   UNL A   1     -28.469  -0.785  29.829  0.00  0.00    -0.004 A 
ATOM     10  C   UNL A   1     -28.256  -1.927  30.890  0.00  0.00    -0.000 A 
ATOM     11  C   UNL A   1     -27.449  -2.964  30.432  0.00  0.00    -0.000 A 
ATOM     12  C   UNL A   1     -26.641  -2.804  29.351  0.00  0.00    -0.000 A 
ATOM     13  C   UNL A   1     -26.783  -1.636  28.612  0.00  0.00    -0.004 A 
ENDBRANCH   1   8
BRANCH   1  14
ATOM     14  C   UNL A   1     -27.785   1.722  28.770  0.00  0.00    -0.019 A 
ATOM     15  C   UNL A   1     -28.672   2.507  29.152  0.00  0.00    -0.004 A 
ATOM     16  C   UNL A   1     -28.220   3.598  29.951  0.00  0.00    -0.000 A 
ATOM     17  C   UNL A   1     -26.450   1.862  29.166  0.00  0.00    -0.004 A 
ATOM     18  C   UNL A   1     -25.968   2.928  29.901  0.00  0.00    -0.000 A 
ATOM     19  C   UNL A   1     -26.929   3.861  30.288  0.00  0.00    -0.000 A 
ENDBRANCH   1  14
TORSDOF 2
