MODEL 555
MODEL 1
REMARK VINA RESULT:    -7.875      0.000      0.000
REMARK INTER + INTRA:         -10.128
REMARK INTER:                  -8.795
REMARK INTRA:                  -1.333
REMARK UNBOUND:                -1.333
REMARK  Name = No_555-gen_results/8p0m/2024-11-26-14-13-15/
REMARK  2 active torsions:
REMARK  status: ('A' for Active; 'I' for Inactive)
REMARK    1  A    between atoms: C_1  and  C_3
REMARK    2  A    between atoms: C_3  and  C_11
REMARK                            x       y       z     vdW  Elec       q    Type
REMARK                         _______ _______ _______ _____ _____    ______ ____
ROOT
ATOM      1  C   UNL A   1     -24.096  -1.626  29.197  0.00  0.00    +0.038 C 
ATOM      2  C   UNL A   1     -22.711  -1.189  28.929  0.00  0.00    +0.008 C 
ATOM      3  C   UNL A   1     -22.408   0.048  28.487  0.00  0.00    +0.001 C 
ATOM      4  C   UNL A   1     -24.898  -0.906  28.060  0.00  0.00    +0.008 C 
ATOM      5  C   UNL A   1     -24.566   0.359  27.607  0.00  0.00    +0.001 C 
ATOM      6  C   UNL A   1     -20.959   0.423  28.545  0.00  0.00    +0.000 C 
ATOM      7  C   UNL A   1     -23.302   0.912  27.799  0.00  0.00    +0.000 C 
ENDROOT
BRANCH   1   8
ATOM      8  C   UNL A   1     -24.437  -3.020  29.232  0.00  0.00    -0.019 A 
ATOM      9  C   UNL A   1     -23.832  -3.661  28.655  0.00  0.00    -0.004 A 
ATOM     10  C   UNL A   1     -24.156  -5.192  28.492  0.00  0.00    -0.000 A 
ATOM     11  C   UNL A   1     -25.283  -5.597  29.201  0.00  0.00    -0.000 A 
ATOM     12  C   UNL A   1     -26.195  -4.695  29.651  0.00  0.00    -0.000 A 
ATOM     13  C   UNL A   1     -25.874  -3.348  29.538  0.00  0.00    -0.004 A 
ENDBRANCH   1   8
BRANCH   1  14
ATOM     14  C   UNL A   1     -24.333  -0.863  30.587  0.00  0.00    -0.019 A 
ATOM     15  C   UNL A   1     -25.302  -0.091  30.708  0.00  0.00    -0.004 A 
ATOM     16  C   UNL A   1     -25.545   0.381  32.031  0.00  0.00    -0.000 A 
ATOM     17  C   UNL A   1     -23.586  -1.295  31.688  0.00  0.00    -0.004 A 
ATOM     18  C   UNL A   1     -23.763  -0.826  32.976  0.00  0.00    -0.000 A 
ATOM     19  C   UNL A   1     -24.801   0.092  33.132  0.00  0.00    -0.000 A 
ENDBRANCH   1  14
TORSDOF 2
ENDMDL
ENDMDL
