MODEL 556
MODEL 1
REMARK VINA RESULT:    -5.303      0.000      0.000
REMARK INTER + INTRA:          -5.806
REMARK INTER:                  -5.613
REMARK INTRA:                  -0.193
REMARK UNBOUND:                -0.193
REMARK  Name = No_556-gen_results/8p0m/2024-11-26-14-13-15/
REMARK  1 active torsions:
REMARK  status: ('A' for Active; 'I' for Inactive)
REMARK    1  A    between atoms: C_3  and  C_7
REMARK                            x       y       z     vdW  Elec       q    Type
REMARK                         _______ _______ _______ _____ _____    ______ ____
ROOT
ATOM      1  C   UNL A   1      -8.419  -9.601  19.689  0.00  0.00    +0.004 A 
ATOM      2  C   UNL A   1      -7.754  -8.868  20.050  0.00  0.00    -0.000 A 
ATOM      3  C   UNL A   1      -8.633  -9.668  18.295  0.00  0.00    +0.071 A 
ATOM      4  C   UNL A   1      -8.012  -8.801  17.418  0.00  0.00    +0.004 A 
ATOM      5  C   UNL A   1      -7.148  -7.872  17.976  0.00  0.00    -0.000 A 
ATOM      6  C   UNL A   1      -6.942  -7.869  19.339  0.00  0.00    -0.000 A 
ENDROOT
BRANCH   3   7
ATOM      7  C   UNL A   1      -9.534 -10.676  17.646  0.00  0.00    +0.419 C 
ATOM      8  F   UNL A   1      -9.204 -11.798  17.933  0.00  0.00    -0.166 F 
ATOM      9  F   UNL A   1      -9.541 -10.605  16.271  0.00  0.00    -0.166 F 
ATOM     10  F   UNL A   1     -10.859 -10.429  17.961  0.00  0.00    -0.166 F 
ENDBRANCH   3   7
TORSDOF 1
ENDMDL
ENDMDL
