MODEL 557
MODEL 1
REMARK VINA RESULT:    -5.519      0.000      0.000
REMARK INTER + INTRA:          -6.716
REMARK INTER:                  -6.487
REMARK INTRA:                  -0.229
REMARK UNBOUND:                -0.229
REMARK  Name = No_557-gen_results/8p0m/2024-11-26-14-13-15/
REMARK  3 active torsions:
REMARK  status: ('A' for Active; 'I' for Inactive)
REMARK    1  A    between atoms: C_1  and  N_8
REMARK    2  A    between atoms: C_5  and  C_9
REMARK    3  A    between atoms: N_8  and  C_10
REMARK                            x       y       z     vdW  Elec       q    Type
REMARK                         _______ _______ _______ _____ _____    ______ ____
ROOT
ATOM      1  C   UNL A   1     -30.422 -10.305  29.383  0.00  0.00    +0.077 C 
ATOM      2  C   UNL A   1     -29.693 -10.721  30.254  0.00  0.00    -0.028 C 
ATOM      3  C   UNL A   1     -28.767 -11.632  30.154  0.00  0.00    +0.024 C 
ATOM      4  C   UNL A   1     -27.887 -12.113  31.247  0.00  0.00    +0.016 C 
ATOM      5  C   UNL A   1     -28.047 -11.479  32.512  0.00  0.00    +0.104 C 
ATOM      6  C   UNL A   1     -28.980 -10.478  32.607  0.00  0.00    +0.016 C 
ATOM      7  C   UNL A   1     -29.754 -10.058  31.579  0.00  0.00    +0.024 C 
ENDROOT
BRANCH   5   8
ATOM      8  C   UNL A   1     -27.242 -11.857  33.643  0.00  0.00    +0.364 C 
ATOM      9  O   UNL A   1     -26.746 -12.734  33.831  0.00  0.00    -0.246 OA
ATOM     10  O   UNL A   1     -27.201 -10.837  34.594  0.00  0.00    -0.246 OA
ENDBRANCH   5   8
BRANCH   1  11
ATOM     11  N   UNL A   1     -30.722 -11.115  28.430  0.00  0.00    -0.210 NA
BRANCH  11  12
ATOM     12  C   UNL A   1     -30.589 -10.832  27.164  0.00  0.00    +0.086 C 
ATOM     13  C   UNL A   1     -29.666 -11.486  26.346  0.00  0.00    +0.019 C 
ENDBRANCH  11  12
ENDBRANCH   1  11
TORSDOF 3
ENDMDL
ENDMDL
