MODEL 558
MODEL 1
REMARK VINA RESULT:    -4.998      0.000      0.000
REMARK INTER + INTRA:          -5.425
REMARK INTER:                  -5.291
REMARK INTRA:                  -0.135
REMARK UNBOUND:                -0.135
REMARK  Name = No_558-gen_results/8p0m/2024-11-26-14-13-15/
REMARK  1 active torsions:
REMARK  status: ('A' for Active; 'I' for Inactive)
REMARK    1  A    between atoms: C_2  and  C_7
REMARK                            x       y       z     vdW  Elec       q    Type
REMARK                         _______ _______ _______ _____ _____    ______ ____
ROOT
ATOM      1  C   UNL A   1     -25.772  -2.962  29.805  0.00  0.00    -0.000 A 
ATOM      2  C   UNL A   1     -24.729  -2.596  29.315  0.00  0.00    -0.000 A 
ATOM      3  C   UNL A   1     -23.838  -3.429  28.718  0.00  0.00    -0.000 A 
ATOM      4  C   UNL A   1     -24.141  -4.803  28.663  0.00  0.00    -0.000 A 
ATOM      5  C   UNL A   1     -26.190  -4.337  29.700  0.00  0.00    -0.000 A 
ATOM      6  C   UNL A   1     -25.318  -5.219  29.135  0.00  0.00    -0.000 A 
ENDROOT
BRANCH   2   7
ATOM      7  C   UNL A   1     -24.104  -1.193  29.259  0.00  0.00    -0.005 C 
ATOM      8  C   UNL A   1     -24.037  -0.434  28.178  0.00  0.00    -0.026 C 
ATOM      9  C   UNL A   1     -25.175  -0.516  27.316  0.00  0.00    +0.031 C 
ENDBRANCH   2   7
TORSDOF 1
ENDMDL
ENDMDL
