REMARK  Name = No_559-gen_results/8p0m/2024-11-26-14-13-15/
REMARK  2 active torsions:
REMARK  status: ('A' for Active; 'I' for Inactive)
REMARK    1  A    between atoms: C_4  and  O_9
REMARK    2  A    between atoms: O_9  and  C_10
REMARK                            x       y       z     vdW  Elec       q    Type
REMARK                         _______ _______ _______ _____ _____    ______ ____
ROOT
ATOM      1  C   UNL A   1     -28.016  -0.814  28.878  0.00  0.00    +0.026 A 
ATOM      2  C   UNL A   1     -28.469  -0.785  29.829  0.00  0.00    +0.059 A 
ATOM      3  C   UNL A   1     -27.136   0.236  28.535  0.00  0.00    +0.093 A 
ATOM      4  C   UNL A   1     -26.805   1.051  29.276  0.00  0.00    +0.156 A 
ATOM      5  C   UNL A   1     -28.237   0.150  30.930  0.00  0.00    +0.015 A 
ATOM      6  C   UNL A   1     -27.352   1.124  30.607  0.00  0.00    +0.039 A 
ATOM      7 CL   UNL A   1     -26.383   0.171  26.925  0.00  0.00    -0.079 Cl
ATOM      8 CL   UNL A   1     -29.589  -2.104  30.390  0.00  0.00    -0.082 Cl
ENDROOT
BRANCH   4   9
ATOM      9  O   UNL A   1     -25.893   2.118  28.961  0.00  0.00    -0.449 OA
BRANCH   9  10
ATOM     10  C   UNL A   1     -24.721   2.041  28.755  0.00  0.00    +0.184 A 
ATOM     11  C   UNL A   1     -23.791   1.531  29.641  0.00  0.00    +0.041 A 
ATOM     12  C   UNL A   1     -22.472   1.174  29.374  0.00  0.00    +0.003 A 
ATOM     13  C   UNL A   1     -22.010   1.512  28.062  0.00  0.00    +0.004 A 
ATOM     14  C   UNL A   1     -24.163   2.347  27.434  0.00  0.00    +0.230 A 
ATOM     15  C   UNL A   1     -22.812   2.114  27.146  0.00  0.00    +0.045 A 
ATOM     16  O   UNL A   1     -24.904   3.002  26.560  0.00  0.00    -0.283 OA
ENDBRANCH   9  10
ENDBRANCH   4   9
TORSDOF 2
