MODEL 559
MODEL 1
REMARK VINA RESULT:    -6.180      0.000      0.000
REMARK INTER + INTRA:          -7.200
REMARK INTER:                  -6.903
REMARK INTRA:                  -0.297
REMARK UNBOUND:                -0.297
REMARK  Name = No_559-gen_results/8p0m/2024-11-26-14-13-15/
REMARK  2 active torsions:
REMARK  status: ('A' for Active; 'I' for Inactive)
REMARK    1  A    between atoms: C_4  and  O_9
REMARK    2  A    between atoms: O_9  and  C_10
REMARK                            x       y       z     vdW  Elec       q    Type
REMARK                         _______ _______ _______ _____ _____    ______ ____
ROOT
ATOM      1  C   UNL A   1     -26.239  -2.424  30.384  0.00  0.00    +0.026 A 
ATOM      2  C   UNL A   1     -26.156  -3.373  29.933  0.00  0.00    +0.059 A 
ATOM      3  C   UNL A   1     -25.168  -1.519  30.217  0.00  0.00    +0.093 A 
ATOM      4  C   UNL A   1     -24.271  -1.721  29.526  0.00  0.00    +0.156 A 
ATOM      5  C   UNL A   1     -25.114  -3.877  29.038  0.00  0.00    +0.015 A 
ATOM      6  C   UNL A   1     -24.117  -2.981  28.843  0.00  0.00    +0.039 A 
ATOM      7 CL   UNL A   1     -25.325   0.076  30.988  0.00  0.00    -0.079 Cl
ATOM      8 CL   UNL A   1     -27.490  -4.603  30.051  0.00  0.00    -0.082 Cl
ENDROOT
BRANCH   4   9
ATOM      9  O   UNL A   1     -23.178  -0.808  29.319  0.00  0.00    -0.449 OA
BRANCH   9  10
ATOM     10  C   UNL A   1     -23.027  -0.042  28.418  0.00  0.00    +0.184 A 
ATOM     11  C   UNL A   1     -24.039   0.452  27.617  0.00  0.00    +0.041 A 
ATOM     12  C   UNL A   1     -23.974   1.528  26.736  0.00  0.00    +0.003 A 
ATOM     13  C   UNL A   1     -22.666   2.079  26.552  0.00  0.00    +0.004 A 
ATOM     14  C   UNL A   1     -21.726   0.587  28.170  0.00  0.00    +0.230 A 
ATOM     15  C   UNL A   1     -21.580   1.598  27.211  0.00  0.00    +0.045 A 
ATOM     16  O   UNL A   1     -20.649   0.081  28.741  0.00  0.00    -0.283 OA
ENDBRANCH   9  10
ENDBRANCH   4   9
TORSDOF 2
ENDMDL
ENDMDL
