MODEL 55
MODEL 1
REMARK VINA RESULT:    -4.391      0.000      0.000
REMARK INTER + INTRA:          -4.391
REMARK INTER:                  -4.391
REMARK INTRA:                   0.000
REMARK UNBOUND:                 0.000
REMARK  Name = No_55-gen_results/8p0m/2024-11-26-14-13-15/
REMARK  0 active torsions:
REMARK  status: ('A' for Active; 'I' for Inactive)
REMARK                            x       y       z     vdW  Elec       q    Type
REMARK                         _______ _______ _______ _____ _____    ______ ____
ROOT
ATOM      1  C   UNL A   1     -25.421  -2.614  29.642  0.00  0.00    +0.011 A 
ATOM      2  C   UNL A   1     -24.335  -2.884  29.184  0.00  0.00    +0.058 A 
ATOM      3  C   UNL A   1     -24.017  -4.185  28.810  0.00  0.00    +0.011 A 
ATOM      4  C   UNL A   1     -24.956  -5.261  28.999  0.00  0.00    +0.001 A 
ATOM      5  C   UNL A   1     -26.179  -4.864  29.556  0.00  0.00    +0.000 A 
ATOM      6  C   UNL A   1     -26.424  -3.622  29.908  0.00  0.00    +0.001 A 
ATOM      7 CL   UNL A   1     -23.084  -1.742  28.936  0.00  0.00    -0.082 Cl
ENDROOT
TORSDOF 0
ENDMDL
ENDMDL
