REMARK  Name = No_56-gen_results/8p0m/2024-11-26-14-13-15/
REMARK  6 active torsions:
REMARK  status: ('A' for Active; 'I' for Inactive)
REMARK    1  A    between atoms: C_3  and  C_11
REMARK    2  A    between atoms: C_5  and  C_7
REMARK    3  A    between atoms: C_11  and  C_12
REMARK    4  A    between atoms: C_12  and  C_14
REMARK    5  A    between atoms: C_13  and  C_15
REMARK    6  A    between atoms: C_15  and  O_19
REMARK                            x       y       z     vdW  Elec       q    Type
REMARK                         _______ _______ _______ _____ _____    ______ ____
ROOT
ATOM      1  C   UNL A   1     -25.187   2.348  28.110  0.00  0.00    +0.042 C 
ATOM      2  C   UNL A   1     -24.169   2.547  28.592  0.00  0.00    +0.082 C 
ENDROOT
BRANCH   1   3
ATOM      3  C   UNL A   1     -26.205   3.508  28.327  0.00  0.00    +0.246 C 
ATOM      4  N   UNL A   1     -26.124   4.246  29.352  0.00  0.00    -0.276 N 
ATOM      5  C   UNL A   1     -26.327   5.611  29.149  0.00  0.00    +0.094 C 
ATOM      6  C   UNL A   1     -26.120   3.799  30.660  0.00  0.00    +0.094 C 
ATOM      7  O   UNL A   1     -27.104   3.661  27.502  0.00  0.00    -0.270 OA
ATOM      8  C   UNL A   1     -25.639   4.585  31.580  0.00  0.00    +0.022 C 
ATOM      9  C   UNL A   1     -25.784   6.557  30.208  0.00  0.00    +0.022 C 
ATOM     10  C   UNL A   1     -25.595   6.001  31.502  0.00  0.00    +0.004 C 
ENDBRANCH   1   3
BRANCH   2  11
ATOM     11  C   UNL A   1     -22.984   1.788  28.124  0.00  0.00    +0.341 C 
ATOM     12  O   UNL A   1     -22.257   2.030  27.445  0.00  0.00    -0.245 OA
BRANCH  11  13
ATOM     13  O   UNL A   1     -22.839   0.636  28.891  0.00  0.00    -0.441 OA
ATOM     14  C   UNL A   1     -21.647   0.037  29.020  0.00  0.00    +0.256 C 
ENDBRANCH  11  13
ENDBRANCH   2  11
BRANCH   1  15
ATOM     15  C   UNL A   1     -25.671   1.426  27.125  0.00  0.00    +0.057 C 
BRANCH  15  18
ATOM     16  C   UNL A   1     -28.016  -0.814  28.878  0.00  0.00    -0.000 A 
ATOM     17  C   UNL A   1     -27.064  -0.119  28.608  0.00  0.00    -0.004 A 
ATOM     18  C   UNL A   1     -26.972   0.714  27.506  0.00  0.00    -0.018 A 
ATOM     19  C   UNL A   1     -28.105   0.774  26.642  0.00  0.00    -0.000 A 
ATOM     20  C   UNL A   1     -29.204   0.118  27.048  0.00  0.00    +0.071 A 
ATOM     21  C   UNL A   1     -29.213  -0.609  28.128  0.00  0.00    +0.004 A 
BRANCH  20  22
ATOM     22  C   UNL A   1     -30.371   0.233  26.138  0.00  0.00    +0.419 C 
ATOM     23  F   UNL A   1     -30.880   1.307  26.122  0.00  0.00    -0.166 F 
ATOM     24  F   UNL A   1     -30.003  -0.113  24.885  0.00  0.00    -0.166 F 
ATOM     25  F   UNL A   1     -31.308  -0.711  26.384  0.00  0.00    -0.166 F 
ENDBRANCH  20  22
ENDBRANCH  15  18
ENDBRANCH   1  15
TORSDOF 6
