MODEL 560
MODEL 1
REMARK VINA RESULT:    -6.212      0.000      0.000
REMARK INTER + INTRA:          -6.638
REMARK INTER:                  -6.575
REMARK INTRA:                  -0.064
REMARK UNBOUND:                -0.064
REMARK  Name = No_560-gen_results/8p0m/2024-11-26-14-13-15/
REMARK  1 active torsions:
REMARK  status: ('A' for Active; 'I' for Inactive)
REMARK    1  A    between atoms: C_5  and  C_11
REMARK                            x       y       z     vdW  Elec       q    Type
REMARK                         _______ _______ _______ _____ _____    ______ ____
ROOT
ATOM      1  C   UNL A   1     -30.787 -10.280  29.727  0.00  0.00    +0.000 A 
ATOM      2  C   UNL A   1     -29.975 -10.661  30.538  0.00  0.00    +0.000 A 
ATOM      3  C   UNL A   1     -29.101 -11.617  30.406  0.00  0.00    +0.000 A 
ATOM      4  C   UNL A   1     -28.115 -12.052  31.425  0.00  0.00    +0.007 A 
ATOM      5  C   UNL A   1     -28.100 -11.317  32.645  0.00  0.00    +0.080 A 
ATOM      6  C   UNL A   1     -28.992 -10.244  32.749  0.00  0.00    +0.007 A 
ATOM      7  C   UNL A   1     -29.865  -9.895  31.770  0.00  0.00    +0.000 A 
ATOM      8  C   UNL A   1     -30.313 -10.330  28.272  0.00  0.00    +0.000 A 
ATOM      9  C   UNL A   1     -29.672 -11.513  27.914  0.00  0.00    +0.000 A 
ATOM     10  C   UNL A   1     -28.753 -11.998  28.991  0.00  0.00    +0.000 A 
ENDROOT
BRANCH   5  11
ATOM     11  C   UNL A   1     -27.291 -11.684  33.782  0.00  0.00    +0.388 C 
ATOM     12  O   UNL A   1     -26.849 -10.829  34.584  0.00  0.00    -0.241 OA
ATOM     13  O   UNL A   1     -26.651 -12.845  33.688  0.00  0.00    -0.241 OA
ENDBRANCH   5  11
TORSDOF 1
ENDMDL
ENDMDL
