MODEL 561
MODEL 1
REMARK VINA RESULT:    -4.278      0.000      0.000
REMARK INTER + INTRA:          -4.278
REMARK INTER:                  -4.278
REMARK INTRA:                   0.000
REMARK UNBOUND:                 0.000
REMARK  Name = No_561-gen_results/8p0m/2024-11-26-14-13-15/
REMARK  0 active torsions:
REMARK  status: ('A' for Active; 'I' for Inactive)
REMARK                            x       y       z     vdW  Elec       q    Type
REMARK                         _______ _______ _______ _____ _____    ______ ____
ROOT
ATOM      1  C   UNL A   1     -24.155  -4.921  28.616  0.00  0.00    +0.000 A 
ATOM      2  C   UNL A   1     -25.050  -5.301  29.021  0.00  0.00    +0.000 A 
ATOM      3  C   UNL A   1     -24.047  -3.465  28.700  0.00  0.00    +0.000 A 
ATOM      4  C   UNL A   1     -25.024  -2.692  29.278  0.00  0.00    +0.000 A 
ATOM      5  C   UNL A   1     -26.228  -4.741  29.682  0.00  0.00    +0.000 A 
ATOM      6  C   UNL A   1     -26.133  -3.331  29.769  0.00  0.00    +0.000 A 
ENDROOT
TORSDOF 0
ENDMDL
ENDMDL
