MODEL 562
MODEL 1
REMARK VINA RESULT:    -4.252      0.000      0.000
REMARK INTER + INTRA:          -4.252
REMARK INTER:                  -4.252
REMARK INTRA:                   0.000
REMARK UNBOUND:                 0.000
REMARK  Name = No_562-gen_results/8p0m/2024-11-26-14-13-15/
REMARK  0 active torsions:
REMARK  status: ('A' for Active; 'I' for Inactive)
REMARK                            x       y       z     vdW  Elec       q    Type
REMARK                         _______ _______ _______ _____ _____    ______ ____
ROOT
ATOM      1  C   UNL A   1     -24.936  -5.347  28.939  0.00  0.00    +0.000 A 
ATOM      2  C   UNL A   1     -24.142  -4.692  28.715  0.00  0.00    +0.000 A 
ATOM      3  C   UNL A   1     -26.104  -4.761  29.616  0.00  0.00    +0.000 A 
ATOM      4  C   UNL A   1     -26.193  -3.353  29.819  0.00  0.00    +0.000 A 
ATOM      5  C   UNL A   1     -24.008  -3.210  28.766  0.00  0.00    +0.000 A 
ATOM      6  C   UNL A   1     -25.068  -2.631  29.397  0.00  0.00    +0.000 A 
ENDROOT
TORSDOF 0
ENDMDL
ENDMDL
