REMARK  Name = No_563-gen_results/8p0m/2024-11-26-14-13-15/
REMARK  6 active torsions:
REMARK  status: ('A' for Active; 'I' for Inactive)
REMARK    1  A    between atoms: C_1  and  C_2
REMARK    2  A    between atoms: N_8  and  C_9
REMARK    3  A    between atoms: N_8  and  C_10
REMARK    4  A    between atoms: C_10  and  C_14
REMARK    5  A    between atoms: C_18  and  C_34
REMARK    6  A    between atoms: C_25  and  C_29
REMARK                            x       y       z     vdW  Elec       q    Type
REMARK                         _______ _______ _______ _____ _____    ______ ____
ROOT
ATOM      1  C   UNL A   1     -27.064  -0.119  28.608  0.00  0.00    +0.032 C 
ATOM      2  C   UNL A   1     -25.792  -0.430  29.076  0.00  0.00    -0.003 C 
ATOM      3  C   UNL A   1     -24.546   0.349  28.823  0.00  0.00    +0.007 C 
ATOM      4  C   UNL A   1     -24.659   1.420  27.888  0.00  0.00    +0.069 C 
ATOM      5  C   UNL A   1     -25.947   1.681  27.379  0.00  0.00    +0.068 C 
ATOM      6  C   UNL A   1     -27.044   0.974  27.687  0.00  0.00    +0.041 C 
ATOM      7  C   UNL A   1     -23.372   1.832  27.551  0.00  0.00    +0.376 C 
ATOM      8  N   UNL A   1     -22.218   1.519  28.132  0.00  0.00    -0.058 NA
ATOM      9  N   UNL A   1     -23.249   2.675  26.403  0.00  0.00    +0.013 NA
ATOM     10  C   UNL A   1     -22.089   0.718  29.118  0.00  0.00    +0.291 C 
ATOM     11  C   UNL A   1     -23.306  -0.059  29.452  0.00  0.00    +0.222 C 
ATOM     12  C   UNL A   1     -26.045   2.828  26.414  0.00  0.00    +0.068 C 
ATOM     13  C   UNL A   1     -24.574   3.326  26.054  0.00  0.00    +0.129 C 
ATOM     14 CL   UNL A   1     -22.879  -1.026  28.695  0.00  0.00    -0.098 Cl
ENDROOT
BRANCH  11  15
ATOM     15  C   UNL A   1     -23.205  -1.061  30.488  0.00  0.00    +0.417 C 
ATOM     16  F   UNL A   1     -22.523  -0.709  31.501  0.00  0.00    -0.168 F 
ATOM     17  F   UNL A   1     -24.424  -1.466  30.881  0.00  0.00    -0.168 F 
ATOM     18  F   UNL A   1     -22.509  -2.059  29.887  0.00  0.00    -0.168 F 
ENDBRANCH  11  15
BRANCH   1  19
ATOM     19  C   UNL A   1     -28.016  -0.814  28.878  0.00  0.00    +0.246 C 
ATOM     20  N   UNL A   1     -29.180  -0.120  29.129  0.00  0.00    -0.262 N 
ATOM     21  O   UNL A   1     -27.928  -1.952  29.380  0.00  0.00    -0.270 OA
BRANCH  20  22
ATOM     22  C   UNL A   1     -29.584   0.132  30.404  0.00  0.00    +0.117 C 
ATOM     23  C   UNL A   1     -29.207   1.420  30.914  0.00  0.00    -0.024 C 
ATOM     24  C   UNL A   1     -29.074   1.521  32.124  0.00  0.00    +0.006 C 
ATOM     25  C   UNL A   1     -29.590   0.602  33.071  0.00  0.00    +0.204 C 
ATOM     26  C   UNL A   1     -30.001  -0.851  31.230  0.00  0.00    -0.004 C 
ATOM     27  C   UNL A   1     -29.962  -0.667  32.622  0.00  0.00    +0.010 C 
ATOM     28  F   UNL A   1     -29.553   0.802  34.403  0.00  0.00    -0.228 F 
BRANCH  23  29
ATOM     29  C   UNL A   1     -28.805   2.558  30.032  0.00  0.00    +0.024 C 
ATOM     30  C   UNL A   1     -29.762   3.501  29.661  0.00  0.00    +0.005 C 
ENDBRANCH  23  29
ENDBRANCH  20  22
BRANCH  20  31
ATOM     31  C   UNL A   1     -30.280  -0.575  28.236  0.00  0.00    +0.181 C 
BRANCH  31  32
ATOM     32  C   UNL A   1     -30.680   0.386  27.282  0.00  0.00    +0.262 C 
ATOM     33  O   UNL A   1     -31.649   0.814  27.510  0.00  0.00    -0.272 OA
ATOM     34  N   UNL A   1     -29.952   0.485  26.128  0.00  0.00    -0.202 NA
ATOM     35  C   UNL A   1     -30.347   1.425  25.086  0.00  0.00    +0.139 C 
ENDBRANCH  31  32
ENDBRANCH  20  31
ENDBRANCH   1  19
TORSDOF 6
