MODEL 563
MODEL 1
REMARK VINA RESULT:    -7.070      0.000      0.000
REMARK INTER + INTRA:         -12.006
REMARK INTER:                  -9.550
REMARK INTRA:                  -2.456
REMARK UNBOUND:                -2.456
REMARK  Name = No_563-gen_results/8p0m/2024-11-26-14-13-15/
REMARK  6 active torsions:
REMARK  status: ('A' for Active; 'I' for Inactive)
REMARK    1  A    between atoms: C_1  and  C_2
REMARK    2  A    between atoms: N_8  and  C_9
REMARK    3  A    between atoms: N_8  and  C_10
REMARK    4  A    between atoms: C_10  and  C_14
REMARK    5  A    between atoms: C_18  and  C_34
REMARK    6  A    between atoms: C_25  and  C_29
REMARK                            x       y       z     vdW  Elec       q    Type
REMARK                         _______ _______ _______ _____ _____    ______ ____
ROOT
ATOM      1  C   UNL A   1     -26.608   1.070  29.758  0.00  0.00    +0.032 C 
ATOM      2  C   UNL A   1     -26.083   1.025  28.471  0.00  0.00    -0.003 C 
ATOM      3  C   UNL A   1     -25.458   2.162  27.735  0.00  0.00    +0.007 C 
ATOM      4  C   UNL A   1     -25.554   3.439  28.362  0.00  0.00    +0.069 C 
ATOM      5  C   UNL A   1     -26.144   3.472  29.642  0.00  0.00    +0.068 C 
ATOM      6  C   UNL A   1     -26.642   2.401  30.277  0.00  0.00    +0.041 C 
ATOM      7  C   UNL A   1     -25.200   4.405  27.424  0.00  0.00    +0.376 C 
ATOM      8  N   UNL A   1     -24.625   4.241  26.236  0.00  0.00    -0.058 NA
ATOM      9  N   UNL A   1     -25.525   5.759  27.744  0.00  0.00    +0.013 NA
ATOM     10  C   UNL A   1     -24.325   3.113  25.718  0.00  0.00    +0.291 C 
ATOM     11  C   UNL A   1     -24.880   1.936  26.426  0.00  0.00    +0.222 C 
ATOM     12  C   UNL A   1     -26.212   4.824  30.292  0.00  0.00    +0.068 C 
ATOM     13  C   UNL A   1     -25.772   5.929  29.231  0.00  0.00    +0.129 C 
ATOM     14 CL   UNL A   1     -25.906   1.956  25.627  0.00  0.00    -0.098 Cl
ENDROOT
BRANCH  11  15
ATOM     15  C   UNL A   1     -24.671   0.633  25.838  0.00  0.00    +0.417 C 
ATOM     16  F   UNL A   1     -25.725  -0.063  25.702  0.00  0.00    -0.168 F 
ATOM     17  F   UNL A   1     -24.042   0.738  24.655  0.00  0.00    -0.168 F 
ATOM     18  F   UNL A   1     -23.908  -0.005  26.761  0.00  0.00    -0.168 F 
ENDBRANCH  11  15
BRANCH   1  19
ATOM     19  C   UNL A   1     -27.087   0.085  30.272  0.00  0.00    +0.246 C 
ATOM     20  N   UNL A   1     -26.226  -0.610  31.093  0.00  0.00    -0.262 N 
ATOM     21  O   UNL A   1     -28.037  -0.561  29.787  0.00  0.00    -0.270 OA
BRANCH  20  22
ATOM     22  C   UNL A   1     -25.577  -1.721  30.648  0.00  0.00    +0.117 C 
ATOM     23  C   UNL A   1     -24.194  -1.522  30.322  0.00  0.00    -0.024 C 
ATOM     24  C   UNL A   1     -23.708  -2.267  29.484  0.00  0.00    +0.006 C 
ATOM     25  C   UNL A   1     -24.274  -3.501  29.077  0.00  0.00    +0.204 C 
ATOM     26  C   UNL A   1     -26.243  -2.818  30.230  0.00  0.00    -0.004 C 
ATOM     27  C   UNL A   1     -25.620  -3.734  29.366  0.00  0.00    +0.010 C 
ATOM     28  F   UNL A   1     -23.656  -4.371  28.256  0.00  0.00    -0.228 F 
BRANCH  23  29
ATOM     29  C   UNL A   1     -23.400  -0.358  30.819  0.00  0.00    +0.024 C 
ATOM     30  C   UNL A   1     -22.755   0.468  29.900  0.00  0.00    +0.005 C 
ENDBRANCH  23  29
ENDBRANCH  20  22
BRANCH  20  31
ATOM     31  C   UNL A   1     -26.793  -0.761  32.461  0.00  0.00    +0.181 C 
BRANCH  31  32
ATOM     32  C   UNL A   1     -26.362   0.227  33.373  0.00  0.00    +0.262 C 
ATOM     33  O   UNL A   1     -25.377   0.017  33.772  0.00  0.00    -0.272 OA
ATOM     34  N   UNL A   1     -27.278   1.149  33.799  0.00  0.00    -0.202 NA
ATOM     35  C   UNL A   1     -26.904   2.163  34.778  0.00  0.00    +0.139 C 
ENDBRANCH  31  32
ENDBRANCH  20  31
ENDBRANCH   1  19
TORSDOF 6
ENDMDL
ENDMDL
