REMARK  Name = No_564-gen_results/8p0m/2024-11-26-14-13-15/
REMARK  1 active torsions:
REMARK  status: ('A' for Active; 'I' for Inactive)
REMARK    1  A    between atoms: C_5  and  N_8
REMARK                            x       y       z     vdW  Elec       q    Type
REMARK                         _______ _______ _______ _____ _____    ______ ____
ROOT
ATOM      1  C   UNL A   1     -28.016  -0.814  28.878  0.00  0.00    +0.013 A 
ATOM      2  C   UNL A   1     -28.469  -0.785  29.829  0.00  0.00    +0.020 A 
ATOM      3  C   UNL A   1     -28.196   0.348  28.055  0.00  0.00    +0.058 A 
ATOM      4  C   UNL A   1     -29.019   1.350  28.378  0.00  0.00    +0.013 A 
ATOM      5  C   UNL A   1     -29.411   0.180  30.378  0.00  0.00    +0.081 A 
ATOM      6  C   UNL A   1     -29.606   1.250  29.619  0.00  0.00    +0.020 A 
ATOM      7 CL   UNL A   1     -27.347   0.376  26.515  0.00  0.00    -0.082 Cl
ENDROOT
BRANCH   5   8
ATOM      8  N   UNL A   1     -29.975  -0.028  31.675  0.00  0.00    -0.248 NA
ATOM      9  C   UNL A   1     -30.216   0.947  32.419  0.00  0.00    +0.073 C 
ATOM     10  C   UNL A   1     -30.458   2.163  31.721  0.00  0.00    +0.053 C 
ENDBRANCH   5   8
TORSDOF 1
