MODEL 564
MODEL 1
REMARK VINA RESULT:    -4.336      0.000      0.000
REMARK INTER + INTRA:          -4.436
REMARK INTER:                  -4.590
REMARK INTRA:                   0.154
REMARK UNBOUND:                 0.154
REMARK  Name = No_564-gen_results/8p0m/2024-11-26-14-13-15/
REMARK  1 active torsions:
REMARK  status: ('A' for Active; 'I' for Inactive)
REMARK    1  A    between atoms: C_5  and  N_8
REMARK                            x       y       z     vdW  Elec       q    Type
REMARK                         _______ _______ _______ _____ _____    ______ ____
ROOT
ATOM      1  C   UNL A   1     -25.894  -2.234  30.444  0.00  0.00    +0.013 A 
ATOM      2  C   UNL A   1     -25.007  -1.670  30.376  0.00  0.00    +0.020 A 
ATOM      3  C   UNL A   1     -25.889  -3.506  29.778  0.00  0.00    +0.058 A 
ATOM      4  C   UNL A   1     -24.897  -3.905  28.976  0.00  0.00    +0.013 A 
ATOM      5  C   UNL A   1     -23.826  -1.895  29.554  0.00  0.00    +0.081 A 
ATOM      6  C   UNL A   1     -23.815  -3.057  28.914  0.00  0.00    +0.020 A 
ATOM      7 CL   UNL A   1     -27.311  -4.520  29.981  0.00  0.00    -0.082 Cl
ENDROOT
BRANCH   5   8
ATOM      8  N   UNL A   1     -22.762  -0.940  29.552  0.00  0.00    -0.248 NA
ATOM      9  C   UNL A   1     -22.627  -0.151  28.592  0.00  0.00    +0.073 C 
ATOM     10  C   UNL A   1     -23.836   0.124  27.894  0.00  0.00    +0.053 C 
ENDBRANCH   5   8
TORSDOF 1
ENDMDL
ENDMDL
