MODEL 565
MODEL 1
REMARK VINA RESULT:    -5.321      0.000      0.000
REMARK INTER + INTRA:          -5.321
REMARK INTER:                  -5.321
REMARK INTRA:                   0.000
REMARK UNBOUND:                 0.000
REMARK  Name = No_565-gen_results/8p0m/2024-11-26-14-13-15/
REMARK  0 active torsions:
REMARK  status: ('A' for Active; 'I' for Inactive)
REMARK                            x       y       z     vdW  Elec       q    Type
REMARK                         _______ _______ _______ _____ _____    ______ ____
ROOT
ATOM      1  C   UNL A   1      -9.733 -10.336  18.158  0.00  0.00    +0.030 C 
ATOM      2  C   UNL A   1     -10.023 -10.310  17.146  0.00  0.00    +0.125 C 
ATOM      3  C   UNL A   1      -8.321 -10.307  18.414  0.00  0.00    +0.033 C 
ATOM      4  C   UNL A   1      -7.802 -10.130  19.786  0.00  0.00    +0.005 C 
ATOM      5  C   UNL A   1      -8.565  -9.401  20.717  0.00  0.00    +0.001 C 
ATOM      6  C   UNL A   1      -9.880  -9.025  20.377  0.00  0.00    +0.005 C 
ATOM      7  C   UNL A   1     -10.396  -9.337  19.173  0.00  0.00    +0.033 C 
ATOM      8  O   UNL A   1     -11.354 -10.525  16.771  0.00  0.00    -0.232 OA
ENDROOT
TORSDOF 0
ENDMDL
ENDMDL
