REMARK  Name = No_566-gen_results/8p0m/2024-11-26-14-13-15/
REMARK  11 active torsions:
REMARK  status: ('A' for Active; 'I' for Inactive)
REMARK    1  A    between atoms: C_3  and  C_7
REMARK    2  A    between atoms: C_6  and  C_13
REMARK    3  A    between atoms: C_8  and  C_21
REMARK    4  A    between atoms: N_14  and  CA_16
REMARK    5  A    between atoms: CA_16  and  C_18
REMARK    6  A    between atoms: C_23  and  C_26
REMARK    7  A    between atoms: C_26  and  C_28
REMARK    8  A    between atoms: C_28  and  C_29
REMARK    9  A    between atoms: C_29  and  C_30
REMARK   10  A    between atoms: C_30  and  C_31
REMARK   11  A    between atoms: C_32  and  C_33
REMARK                            x       y       z     vdW  Elec       q    Type
REMARK                         _______ _______ _______ _____ _____    ______ ____
ROOT
ATOM      1  C   UNK     1     -24.549   0.410  28.734  0.00  0.00    +0.001 A 
ATOM      2  C   UNK     1     -24.093   1.378  29.576  0.00  0.00    +0.018 A 
ATOM      3  C   UNK     1     -22.975   2.144  29.239  0.00  0.00    +0.002 A 
ATOM      4  C   UNK     1     -22.257   1.910  28.022  0.00  0.00    +0.000 A 
ATOM      5  C   UNK     1     -23.798   0.273  27.552  0.00  0.00    +0.000 A 
ATOM      6  C   UNK     1     -22.711   1.001  27.229  0.00  0.00    +0.000 A 
ENDROOT
BRANCH   1   9
ATOM      7  C   UNK     1     -28.016  -0.814  28.878  0.00  0.00    +0.005 A 
ATOM      8  C   UNK     1     -27.064  -0.119  28.608  0.00  0.00    +0.000 A 
ATOM      9  C   UNK     1     -25.765  -0.390  29.036  0.00  0.00    +0.000 A 
ATOM     10  C   UNK     1     -25.530  -1.530  29.901  0.00  0.00    +0.000 A 
ATOM     11  C   UNK     1     -26.689  -2.289  30.181  0.00  0.00    +0.005 A 
ATOM     12  C   UNK     1     -27.873  -1.951  29.737  0.00  0.00    +0.055 A 
BRANCH  12  13
ATOM     13  C   UNK     1     -29.029  -2.793  30.165  0.00  0.00    +0.265 C 
ATOM     14  N   ALA A   1     -30.194  -2.322  30.181  0.00  0.00    -0.192 NA
ATOM     15  O   UNK     1     -28.812  -3.980  30.576  0.00  0.00    -0.268 OA
BRANCH  14  16
ATOM     16  CA  ALA A   1     -31.377  -3.118  30.553  0.00  0.00    +0.198 C 
ATOM     17  CB  ALA A   1     -31.501  -3.987  31.153  0.00  0.00    +0.036 C 
BRANCH  16  18
ATOM     18  C   ALA A   1     -32.301  -2.947  29.347  0.00  0.00    +0.384 C 
ATOM     19  O   ALA A   1     -32.380  -1.912  28.685  0.00  0.00    -0.244 OA
ATOM     20  OXT ALA A   1     -33.140  -3.897  29.064  0.00  0.00    -0.244 OA
ENDBRANCH  16  18
ENDBRANCH  14  16
ENDBRANCH  12  13
ENDBRANCH   1   9
BRANCH   2  21
ATOM     21  C   UNK     1     -24.738   1.633  30.902  0.00  0.00    +0.081 A 
ATOM     22  N   UNK     1     -24.862   0.809  31.833  0.00  0.00    -0.250 NA
ATOM     23  C   UNK     1     -25.645   1.062  32.965  0.00  0.00    +0.059 A 
ATOM     24  C   UNK     1     -25.293   2.954  31.073  0.00  0.00    +0.019 A 
ATOM     25  C   UNK     1     -25.950   3.310  32.194  0.00  0.00    +0.003 A 
ATOM     26  C   UNK     1     -26.127   2.338  33.183  0.00  0.00    +0.015 A 
BRANCH  23  27
ATOM     27  C   UNK     1     -25.816   0.021  33.976  0.00  0.00    +0.046 C 
BRANCH  27  28
ATOM     28  C   UNK     1     -26.947  -0.790  33.662  0.00  0.00    +0.007 C 
BRANCH  28  29
ATOM     29  C   UNK     1     -27.959  -0.859  34.722  0.00  0.00    +0.005 C 
BRANCH  29  30
ATOM     30  C   UNK     1     -28.343   0.152  35.016  0.00  0.00    +0.026 C 
BRANCH  30  31
ATOM     31  C   UNK     1     -29.250   0.913  34.206  0.00  0.00    -0.026 C 
ATOM     32  C   UNK     1     -30.423   0.899  34.465  0.00  0.00    -0.005 C 
BRANCH  32  33
ATOM     33  C   UNK     1     -31.412   1.534  33.525  0.00  0.00    -0.005 C 
ATOM     34  C   UNK     1     -30.900   2.080  32.356  0.00  0.00    -0.026 C 
ATOM     35  C   UNK     1     -29.571   2.070  32.078  0.00  0.00    +0.031 C 
ENDBRANCH  32  33
ENDBRANCH  30  31
ENDBRANCH  29  30
ENDBRANCH  28  29
ENDBRANCH  27  28
ENDBRANCH  23  27
ENDBRANCH   2  21
TORSDOF 11
