MODEL 566
MODEL 1
REMARK VINA RESULT:    -7.658      0.000      0.000
REMARK INTER + INTRA:         -14.820
REMARK INTER:                 -12.583
REMARK INTRA:                  -2.238
REMARK UNBOUND:                -2.238
REMARK  Name = No_566-gen_results/8p0m/2024-11-26-14-13-15/
REMARK  11 active torsions:
REMARK  status: ('A' for Active; 'I' for Inactive)
REMARK    1  A    between atoms: C_3  and  C_7
REMARK    2  A    between atoms: C_6  and  C_13
REMARK    3  A    between atoms: C_8  and  C_21
REMARK    4  A    between atoms: N_14  and  CA_16
REMARK    5  A    between atoms: CA_16  and  C_18
REMARK    6  A    between atoms: C_23  and  C_26
REMARK    7  A    between atoms: C_26  and  C_28
REMARK    8  A    between atoms: C_28  and  C_29
REMARK    9  A    between atoms: C_29  and  C_30
REMARK   10  A    between atoms: C_30  and  C_31
REMARK   11  A    between atoms: C_32  and  C_33
REMARK                            x       y       z     vdW  Elec       q    Type
REMARK                         _______ _______ _______ _____ _____    ______ ____
ROOT
ATOM      1  C   UNK     1     -32.564 -15.004   9.866  0.00  0.00    +0.001 A 
ATOM      2  C   UNK     1     -32.757 -13.765  10.398  0.00  0.00    +0.018 A 
ATOM      3  C   UNK     1     -34.044 -13.315  10.701  0.00  0.00    +0.002 A 
ATOM      4  C   UNK     1     -35.194 -14.124  10.429  0.00  0.00    +0.000 A 
ATOM      5  C   UNK     1     -33.748 -15.735   9.661  0.00  0.00    +0.000 A 
ATOM      6  C   UNK     1     -34.993 -15.300   9.940  0.00  0.00    +0.000 A 
ENDROOT
BRANCH   1   9
ATOM      7  C   UNK     1     -29.099 -16.192  10.210  0.00  0.00    +0.005 A 
ATOM      8  C   UNK     1     -30.184 -15.746  10.502  0.00  0.00    +0.000 A 
ATOM      9  C   UNK     1     -31.206 -15.536   9.578  0.00  0.00    +0.000 A 
ATOM     10  C   UNK     1     -30.956 -15.806   8.175  0.00  0.00    +0.000 A 
ATOM     11  C   UNK     1     -29.665 -16.315   7.908  0.00  0.00    +0.005 A 
ATOM     12  C   UNK     1     -28.765 -16.474   8.846  0.00  0.00    +0.055 A 
BRANCH  12  13
ATOM     13  C   UNK     1     -27.415 -16.949   8.423  0.00  0.00    +0.265 C 
ATOM     14  N   ALA A   1     -27.294 -17.839   7.544  0.00  0.00    -0.192 NA
ATOM     15  O   UNK     1     -26.383 -16.486   9.012  0.00  0.00    -0.268 OA
BRANCH  14  16
ATOM     16  CA  ALA A   1     -25.987 -18.315   7.058  0.00  0.00    +0.198 C 
ATOM     17  CB  ALA A   1     -25.463 -18.174   6.144  0.00  0.00    +0.036 C 
BRANCH  16  18
ATOM     18  C   ALA A   1     -25.821 -19.656   7.775  0.00  0.00    +0.384 C 
ATOM     19  O   ALA A   1     -26.573 -20.617   7.615  0.00  0.00    -0.244 OA
ATOM     20  OXT ALA A   1     -24.909 -19.763   8.694  0.00  0.00    -0.244 OA
ENDBRANCH  16  18
ENDBRANCH  14  16
ENDBRANCH  12  13
ENDBRANCH   1   9
BRANCH   2  21
ATOM     21  C   UNK     1     -31.616 -12.828  10.640  0.00  0.00    +0.081 A 
ATOM     22  N   UNK     1     -30.976 -12.204   9.767  0.00  0.00    -0.250 NA
ATOM     23  C   UNK     1     -29.802 -11.498  10.053  0.00  0.00    +0.059 A 
ATOM     24  C   UNK     1     -31.220 -12.684  12.020  0.00  0.00    +0.019 A 
ATOM     25  C   UNK     1     -30.175 -11.915  12.383  0.00  0.00    +0.003 A 
ATOM     26  C   UNK     1     -29.442 -11.289  11.370  0.00  0.00    +0.015 A 
BRANCH  23  27
ATOM     27  C   UNK     1     -29.055 -10.863   8.969  0.00  0.00    +0.046 C 
BRANCH  27  28
ATOM     28  C   UNK     1     -27.685 -10.711   9.338  0.00  0.00    +0.007 C 
BRANCH  28  29
ATOM     29  C   UNK     1     -27.075  -9.449   8.904  0.00  0.00    +0.005 C 
BRANCH  29  30
ATOM     30  C   UNK     1     -27.240  -8.618   9.637  0.00  0.00    +0.026 C 
BRANCH  30  31
ATOM     31  C   UNK     1     -27.821  -7.357   9.276  0.00  0.00    -0.026 C 
ATOM     32  C   UNK     1     -28.967  -7.135   9.559  0.00  0.00    -0.005 C 
BRANCH  32  33
ATOM     33  C   UNK     1     -29.651  -5.903   9.031  0.00  0.00    -0.005 C 
ATOM     34  C   UNK     1     -30.793  -5.487   9.702  0.00  0.00    -0.026 C 
ATOM     35  C   UNK     1     -31.290  -6.166  10.768  0.00  0.00    +0.031 C 
ENDBRANCH  32  33
ENDBRANCH  30  31
ENDBRANCH  29  30
ENDBRANCH  28  29
ENDBRANCH  27  28
ENDBRANCH  23  27
ENDBRANCH   2  21
TORSDOF 11
ENDMDL
ENDMDL
