REMARK  Name = No_567-gen_results/8p0m/2024-11-26-14-13-15/
REMARK  3 active torsions:
REMARK  status: ('A' for Active; 'I' for Inactive)
REMARK    1  A    between atoms: C_2  and  C_7
REMARK    2  A    between atoms: C_6  and  C_10
REMARK    3  A    between atoms: N_11  and  C_13
REMARK                            x       y       z     vdW  Elec       q    Type
REMARK                         _______ _______ _______ _____ _____    ______ ____
ROOT
ATOM      1  C   UNL A   1     -29.048  -2.786  30.218  0.00  0.00    +0.269 C 
ATOM      2  N   UNL A   1     -30.183  -2.311  30.255  0.00  0.00    -0.175 NA
ATOM      3  O   UNL A   1     -28.860  -3.996  30.579  0.00  0.00    -0.268 OA
ENDROOT
BRANCH   2   4
ATOM      4  C   UNL A   1     -31.425  -3.024  30.631  0.00  0.00    +0.073 A 
ATOM      5  C   UNL A   1     -32.438  -2.763  29.994  0.00  0.00    +0.017 A 
ATOM      6  C   UNL A   1     -33.020  -3.653  29.272  0.00  0.00    +0.001 A 
ATOM      7  C   UNL A   1     -32.741  -5.098  29.496  0.00  0.00    -0.004 A 
ATOM      8  C   UNL A   1     -31.628  -5.357  30.333  0.00  0.00    -0.021 A 
ATOM      9  C   UNL A   1     -31.233  -6.667  30.648  0.00  0.00    +0.031 C 
ATOM     10  C   UNL A   1     -30.934  -4.249  30.882  0.00  0.00    +0.012 A 
ENDBRANCH   2   4
BRANCH   1  16
ATOM     11  C   UNL A   1     -28.016  -0.814  28.878  0.00  0.00    +0.011 A 
ATOM     12  C   UNL A   1     -27.064  -0.119  28.608  0.00  0.00    +0.080 A 
ATOM     13  C   UNL A   1     -25.792  -0.430  29.076  0.00  0.00    +0.007 A 
ATOM     14  C   UNL A   1     -25.576  -1.565  29.936  0.00  0.00    +0.000 A 
ATOM     15  C   UNL A   1     -26.735  -2.300  30.217  0.00  0.00    +0.005 A 
ATOM     16  C   UNL A   1     -27.918  -1.954  29.763  0.00  0.00    +0.056 A 
BRANCH  12  17
ATOM     17  C   UNL A   1     -27.106   1.102  27.759  0.00  0.00    +0.388 C 
ATOM     18  O   UNL A   1     -27.031   2.066  28.148  0.00  0.00    -0.241 OA
ATOM     19  O   UNL A   1     -26.930   0.715  26.470  0.00  0.00    -0.241 OA
ENDBRANCH  12  17
ENDBRANCH   1  16
TORSDOF 3
