MODEL 567
MODEL 1
REMARK VINA RESULT:    -7.150      0.000      0.000
REMARK INTER + INTRA:          -8.890
REMARK INTER:                  -8.404
REMARK INTRA:                  -0.485
REMARK UNBOUND:                -0.485
REMARK  Name = No_567-gen_results/8p0m/2024-11-26-14-13-15/
REMARK  3 active torsions:
REMARK  status: ('A' for Active; 'I' for Inactive)
REMARK    1  A    between atoms: C_2  and  C_7
REMARK    2  A    between atoms: C_6  and  C_10
REMARK    3  A    between atoms: N_11  and  C_13
REMARK                            x       y       z     vdW  Elec       q    Type
REMARK                         _______ _______ _______ _____ _____    ______ ____
ROOT
ATOM      1  C   UNL A   1     -23.694  -0.456  29.358  0.00  0.00    +0.269 C 
ATOM      2  N   UNL A   1     -24.593  -1.272  29.159  0.00  0.00    -0.175 NA
ATOM      3  O   UNL A   1     -23.071  -0.465  30.472  0.00  0.00    -0.268 OA
ENDROOT
BRANCH   2   4
ATOM      4  C   UNL A   1     -25.022  -2.352  30.076  0.00  0.00    +0.073 A 
ATOM      5  C   UNL A   1     -26.158  -2.287  30.529  0.00  0.00    +0.017 A 
ATOM      6  C   UNL A   1     -27.040  -3.179  30.250  0.00  0.00    +0.001 A 
ATOM      7  C   UNL A   1     -26.621  -4.506  29.722  0.00  0.00    -0.004 A 
ATOM      8  C   UNL A   1     -25.266  -4.573  29.314  0.00  0.00    -0.021 A 
ATOM      9  C   UNL A   1     -24.711  -5.754  28.796  0.00  0.00    +0.031 C 
ATOM     10  C   UNL A   1     -24.463  -3.416  29.476  0.00  0.00    +0.012 A 
ENDBRANCH   2   4
BRANCH   1  16
ATOM     11  C   UNL A   1     -24.295   1.261  27.504  0.00  0.00    +0.011 A 
ATOM     12  C   UNL A   1     -23.952   2.116  26.720  0.00  0.00    +0.080 A 
ATOM     13  C   UNL A   1     -22.607   2.385  26.494  0.00  0.00    +0.007 A 
ATOM     14  C   UNL A   1     -21.579   1.685  27.221  0.00  0.00    +0.000 A 
ATOM     15  C   UNL A   1     -22.064   0.731  28.124  0.00  0.00    +0.005 A 
ATOM     16  C   UNL A   1     -23.348   0.526  28.313  0.00  0.00    +0.056 A 
BRANCH  12  17
ATOM     17  C   UNL A   1     -24.874   2.953  25.905  0.00  0.00    +0.388 C 
ATOM     18  O   UNL A   1     -25.897   2.766  25.835  0.00  0.00    -0.241 OA
ATOM     19  O   UNL A   1     -24.219   4.099  25.588  0.00  0.00    -0.241 OA
ENDBRANCH  12  17
ENDBRANCH   1  16
TORSDOF 3
ENDMDL
ENDMDL
