MODEL 568
MODEL 1
REMARK VINA RESULT:    -6.486      0.000      0.000
REMARK INTER + INTRA:          -7.217
REMARK INTER:                  -6.865
REMARK INTRA:                  -0.352
REMARK UNBOUND:                -0.352
REMARK  Name = No_568-gen_results/8p0m/2024-11-26-14-13-15/
REMARK  1 active torsions:
REMARK  status: ('A' for Active; 'I' for Inactive)
REMARK    1  A    between atoms: C_4  and  C_7
REMARK                            x       y       z     vdW  Elec       q    Type
REMARK                         _______ _______ _______ _____ _____    ______ ____
ROOT
ATOM      1  C   UNL A   1     -26.282  -4.487  29.709  0.00  0.00    +0.000 A 
ATOM      2  C   UNL A   1     -25.579  -5.192  29.366  0.00  0.00    +0.000 A 
ATOM      3  C   UNL A   1     -25.843  -3.041  29.633  0.00  0.00    +0.000 A 
ATOM      4  C   UNL A   1     -24.625  -2.722  28.996  0.00  0.00    +0.000 A 
ATOM      5  C   UNL A   1     -24.288  -5.127  28.645  0.00  0.00    +0.000 A 
ATOM      6  C   UNL A   1     -23.855  -3.812  28.549  0.00  0.00    +0.000 A 
ENDROOT
BRANCH   4   7
ATOM      7  C   UNL A   1     -24.153  -1.382  28.911  0.00  0.00    +0.000 A 
ATOM      8  C   UNL A   1     -24.719  -0.609  27.855  0.00  0.00    +0.000 A 
ATOM      9  C   UNL A   1     -23.979   0.472  27.334  0.00  0.00    +0.000 A 
ATOM     10  C   UNL A   1     -22.719   0.788  27.899  0.00  0.00    +0.000 A 
ATOM     11  C   UNL A   1     -22.851  -1.035  29.393  0.00  0.00    +0.000 A 
ATOM     12  C   UNL A   1     -22.154   0.034  28.811  0.00  0.00    +0.000 A 
ENDBRANCH   4   7
TORSDOF 1
ENDMDL
ENDMDL
