REMARK  Name = No_569-gen_results/8p0m/2024-11-26-14-13-15/
REMARK  6 active torsions:
REMARK  status: ('A' for Active; 'I' for Inactive)
REMARK    1  A    between atoms: C_6  and  C_7
REMARK    2  A    between atoms: N_8  and  C_10
REMARK    3  A    between atoms: C_29  and  C_30
REMARK    4  A    between atoms: C_30  and  N_31
REMARK    5  A    between atoms: N_31  and  C_32
REMARK    6  A    between atoms: C_33  and  C_34
REMARK                            x       y       z     vdW  Elec       q    Type
REMARK                         _______ _______ _______ _____ _____    ______ ____
ROOT
ATOM      1  C   UNL A   1     -28.016  -0.814  28.878  0.00  0.00    +0.004 A 
ATOM      2  C   UNL A   1     -27.064  -0.119  28.608  0.00  0.00    -0.004 A 
ATOM      3  C   UNL A   1     -25.765  -0.390  29.036  0.00  0.00    -0.022 A 
ATOM      4  C   UNL A   1     -25.530  -1.530  29.901  0.00  0.00    -0.004 A 
ATOM      5  C   UNL A   1     -26.689  -2.289  30.181  0.00  0.00    +0.004 A 
ATOM      6  C   UNL A   1     -27.873  -1.951  29.737  0.00  0.00    +0.055 A 
ATOM      7  C   UNL A   1     -24.542   0.409  28.676  0.00  0.00    +0.033 C 
ATOM      8  C   UNL A   1     -24.541   1.224  27.606  0.00  0.00    +0.087 C 
ATOM      9  C   UNL A   1     -25.089   1.495  26.759  0.00  0.00    +0.036 C 
ATOM     10  C   UNL A   1     -26.382   0.861  26.518  0.00  0.00    -0.022 A 
ATOM     11  C   UNL A   1     -27.171   0.344  27.425  0.00  0.00    -0.004 A 
ATOM     12  C   UNL A   1     -23.361   0.233  29.595  0.00  0.00    +0.028 C 
ATOM     13  C   UNL A   1     -22.054   0.308  28.878  0.00  0.00    +0.116 C 
ATOM     14  C   UNL A   1     -22.931   1.632  27.446  0.00  0.00    +0.241 C 
ATOM     15  N   UNL A   1     -21.886   1.246  28.106  0.00  0.00    -0.205 NA
ATOM     16  O   UNL A   1     -22.752   2.408  26.320  0.00  0.00    -0.273 OA
ATOM     17  C   UNL A   1     -26.846   0.645  25.058  0.00  0.00    -0.004 A 
ATOM     18  C   UNL A   1     -28.104   0.791  24.682  0.00  0.00    -0.003 A 
ATOM     19  C   UNL A   1     -28.592   0.366  26.872  0.00  0.00    -0.003 A 
ATOM     20  C   UNL A   1     -29.004   0.300  25.597  0.00  0.00    -0.001 A 
ENDROOT
BRANCH   6  21
ATOM     21  C   UNL A   1     -29.002  -2.814  30.179  0.00  0.00    +0.269 C 
ATOM     22  N   UNL A   1     -28.827  -4.075  30.477  0.00  0.00    -0.175 NA
ATOM     23  O   UNL A   1     -30.162  -2.344  30.253  0.00  0.00    -0.268 OA
BRANCH  22  24
ATOM     24  C   UNL A   1     -29.873  -5.025  30.817  0.00  0.00    +0.074 A 
ATOM     25  C   UNL A   1     -29.738  -5.638  31.988  0.00  0.00    +0.017 A 
ATOM     26  C   UNL A   1     -30.489  -6.856  32.175  0.00  0.00    +0.001 A 
ATOM     27  C   UNL A   1     -31.418  -7.256  31.199  0.00  0.00    +0.000 A 
ATOM     28  C   UNL A   1     -31.489  -6.507  30.009  0.00  0.00    +0.001 A 
ATOM     29  C   UNL A   1     -30.586  -5.421  29.788  0.00  0.00    +0.017 A 
ENDBRANCH  22  24
ENDBRANCH   6  21
BRANCH  20  30
ATOM     30  C   UNL A   1     -30.316   0.323  25.090  0.00  0.00    +0.139 C 
BRANCH  30  31
ATOM     31  N   UNL A   1     -31.247  -0.221  25.780  0.00  0.00    -0.232 NA
BRANCH  31  32
ATOM     32  C   UNL A   1     -32.143  -1.038  25.521  0.00  0.00    +0.081 C 
ATOM     33  C   UNL A   1     -32.969  -1.711  26.508  0.00  0.00    +0.017 C 
BRANCH  33  34
ATOM     34  C   UNL A   1     -33.243  -2.956  26.507  0.00  0.00    +0.001 C 
ATOM     35  C   UNL A   1     -33.092  -3.674  25.277  0.00  0.00    +0.000 C 
ENDBRANCH  33  34
ENDBRANCH  31  32
ENDBRANCH  30  31
ENDBRANCH  20  30
TORSDOF 6
