MODEL 56
MODEL 1
REMARK VINA RESULT:    -5.981      0.000      0.000
REMARK INTER + INTRA:          -9.817
REMARK INTER:                  -8.078
REMARK INTRA:                  -1.738
REMARK UNBOUND:                -1.738
REMARK  Name = No_56-gen_results/8p0m/2024-11-26-14-13-15/
REMARK  6 active torsions:
REMARK  status: ('A' for Active; 'I' for Inactive)
REMARK    1  A    between atoms: C_3  and  C_11
REMARK    2  A    between atoms: C_5  and  C_7
REMARK    3  A    between atoms: C_11  and  C_12
REMARK    4  A    between atoms: C_12  and  C_14
REMARK    5  A    between atoms: C_13  and  C_15
REMARK    6  A    between atoms: C_15  and  O_19
REMARK                            x       y       z     vdW  Elec       q    Type
REMARK                         _______ _______ _______ _____ _____    ______ ____
ROOT
ATOM      1  C   UNL A   1     -25.603   2.122  27.449  0.00  0.00    +0.042 C 
ATOM      2  C   UNL A   1     -26.708   2.025  27.170  0.00  0.00    +0.082 C 
ENDROOT
BRANCH   1   3
ATOM      3  C   UNL A   1     -25.381   2.618  28.909  0.00  0.00    +0.246 C 
ATOM      4  N   UNL A   1     -25.467   1.809  29.879  0.00  0.00    -0.276 N 
ATOM      5  C   UNL A   1     -24.508   1.942  30.883  0.00  0.00    +0.094 C 
ATOM      6  C   UNL A   1     -26.558   1.006  30.154  0.00  0.00    +0.094 C 
ATOM      7  O   UNL A   1     -25.158   3.813  29.095  0.00  0.00    -0.270 OA
ATOM      8  C   UNL A   1     -26.380  -0.041  30.908  0.00  0.00    +0.022 C 
ATOM      9  C   UNL A   1     -24.280   0.741  31.786  0.00  0.00    +0.022 C 
ATOM     10  C   UNL A   1     -25.358  -0.180  31.882  0.00  0.00    +0.004 C 
ENDBRANCH   1   3
BRANCH   2  11
ATOM     11  C   UNL A   1     -27.094   1.171  26.020  0.00  0.00    +0.341 C 
ATOM     12  O   UNL A   1     -27.345   0.180  25.975  0.00  0.00    -0.245 OA
BRANCH  11  13
ATOM     13  O   UNL A   1     -27.253   1.964  24.887  0.00  0.00    -0.441 OA
ATOM     14  C   UNL A   1     -27.992   1.546  23.850  0.00  0.00    +0.256 C 
ENDBRANCH  11  13
ENDBRANCH   2  11
BRANCH   1  15
ATOM     15  C   UNL A   1     -24.377   1.638  26.885  0.00  0.00    +0.057 C 
BRANCH  15  18
ATOM     16  C   UNL A   1     -21.634   0.055  28.772  0.00  0.00    -0.000 A 
ATOM     17  C   UNL A   1     -22.326   0.862  28.196  0.00  0.00    -0.004 A 
ATOM     18  C   UNL A   1     -23.623   0.638  27.766  0.00  0.00    -0.018 A 
ATOM     19  C   UNL A   1     -24.191  -0.638  28.055  0.00  0.00    -0.000 A 
ATOM     20  C   UNL A   1     -23.462  -1.457  28.830  0.00  0.00    +0.071 A 
ATOM     21  C   UNL A   1     -22.263  -1.143  29.228  0.00  0.00    +0.004 A 
BRANCH  20  22
ATOM     22  C   UNL A   1     -24.102  -2.761  29.135  0.00  0.00    +0.419 C 
ATOM     23  F   UNL A   1     -24.209  -2.999  30.294  0.00  0.00    -0.166 F 
ATOM     24  F   UNL A   1     -25.317  -2.816  28.546  0.00  0.00    -0.166 F 
ATOM     25  F   UNL A   1     -23.485  -3.792  28.514  0.00  0.00    -0.166 F 
ENDBRANCH  20  22
ENDBRANCH  15  18
ENDBRANCH   1  15
TORSDOF 6
ENDMDL
ENDMDL
