REMARK  Name = No_570-gen_results/8p0m/2024-11-26-14-13-15/
REMARK  8 active torsions:
REMARK  status: ('A' for Active; 'I' for Inactive)
REMARK    1  A    between atoms: C_6  and  O_7
REMARK    2  A    between atoms: O_7  and  C_9
REMARK    3  A    between atoms: C_9  and  C_10
REMARK    4  A    between atoms: C_10  and  C_11
REMARK    5  A    between atoms: C_11  and  C_12
REMARK    6  A    between atoms: C_12  and  C_13
REMARK    7  A    between atoms: C_14  and  C_15
REMARK    8  A    between atoms: C_16  and  C_17
REMARK                            x       y       z     vdW  Elec       q    Type
REMARK                         _______ _______ _______ _____ _____    ______ ____
ROOT
ATOM      1  C   UNL A   1     -28.779  -3.968  30.651  0.00  0.00    +0.205 C 
ENDROOT
BRANCH   1   2
ATOM      2  O   UNL A   1     -28.930  -2.730  30.115  0.00  0.00    -0.475 OA
BRANCH   2   8
ATOM      3  C   UNL A   1     -28.016  -0.814  28.878  0.00  0.00    +0.039 A 
ATOM      4  C   UNL A   1     -27.064  -0.119  28.608  0.00  0.00    +0.033 A 
ATOM      5  C   UNL A   1     -25.765  -0.390  29.036  0.00  0.00    +0.140 A 
ATOM      6  C   UNL A   1     -25.530  -1.530  29.901  0.00  0.00    +0.033 A 
ATOM      7  C   UNL A   1     -26.689  -2.289  30.181  0.00  0.00    +0.039 A 
ATOM      8  C   UNL A   1     -27.873  -1.951  29.737  0.00  0.00    +0.139 A 
ATOM      9  F   UNL A   1     -24.689   0.363  28.785  0.00  0.00    -0.204 F 
ENDBRANCH   2   8
ENDBRANCH   1   2
BRANCH   1  10
ATOM     10  C   UNL A   1     -29.829  -4.271  31.611  0.00  0.00    +0.048 C 
BRANCH  10  11
ATOM     11  C   UNL A   1     -31.045  -4.199  31.094  0.00  0.00    +0.009 C 
BRANCH  11  12
ATOM     12  C   UNL A   1     -31.360  -3.349  30.121  0.00  0.00    +0.026 C 
BRANCH  12  13
ATOM     13  C   UNL A   1     -32.382  -3.322  29.275  0.00  0.00    -0.026 C 
ATOM     14  C   UNL A   1     -32.440  -2.427  28.224  0.00  0.00    -0.005 C 
BRANCH  14  15
ATOM     15  C   UNL A   1     -33.144  -2.640  27.076  0.00  0.00    -0.000 C 
ATOM     16  C   UNL A   1     -32.939  -1.819  25.904  0.00  0.00    -0.000 C 
BRANCH  16  17
ATOM     17  C   UNL A   1     -32.031  -0.761  25.968  0.00  0.00    -0.000 C 
ATOM     18  C   UNL A   1     -31.318  -0.531  27.130  0.00  0.00    -0.000 C 
ENDBRANCH  16  17
ENDBRANCH  14  15
ENDBRANCH  12  13
ENDBRANCH  11  12
ENDBRANCH  10  11
ENDBRANCH   1  10
TORSDOF 8
