MODEL 570
MODEL 1
REMARK VINA RESULT:    -5.931      0.000      0.000
REMARK INTER + INTRA:          -9.417
REMARK INTER:                  -8.705
REMARK INTRA:                  -0.712
REMARK UNBOUND:                -0.712
REMARK  Name = No_570-gen_results/8p0m/2024-11-26-14-13-15/
REMARK  8 active torsions:
REMARK  status: ('A' for Active; 'I' for Inactive)
REMARK    1  A    between atoms: C_6  and  O_7
REMARK    2  A    between atoms: O_7  and  C_9
REMARK    3  A    between atoms: C_9  and  C_10
REMARK    4  A    between atoms: C_10  and  C_11
REMARK    5  A    between atoms: C_11  and  C_12
REMARK    6  A    between atoms: C_12  and  C_13
REMARK    7  A    between atoms: C_14  and  C_15
REMARK    8  A    between atoms: C_16  and  C_17
REMARK                            x       y       z     vdW  Elec       q    Type
REMARK                         _______ _______ _______ _____ _____    ______ ____
ROOT
ATOM      1  C   UNL A   1     -22.565  -0.049  29.368  0.00  0.00    +0.205 C 
ENDROOT
BRANCH   1   2
ATOM      2  O   UNL A   1     -22.597  -1.406  29.380  0.00  0.00    -0.475 OA
BRANCH   2   8
ATOM      3  C   UNL A   1     -23.914  -3.419  28.878  0.00  0.00    +0.039 A 
ATOM      4  C   UNL A   1     -24.943  -4.040  29.016  0.00  0.00    +0.033 A 
ATOM      5  C   UNL A   1     -26.065  -3.539  29.674  0.00  0.00    +0.140 A 
ATOM      6  C   UNL A   1     -25.997  -2.225  30.284  0.00  0.00    +0.033 A 
ATOM      7  C   UNL A   1     -24.763  -1.563  30.091  0.00  0.00    +0.039 A 
ATOM      8  C   UNL A   1     -23.760  -2.120  29.461  0.00  0.00    +0.139 A 
ATOM      9  F   UNL A   1     -27.211  -4.199  29.874  0.00  0.00    -0.204 F 
ENDBRANCH   2   8
ENDBRANCH   1   2
BRANCH   1  10
ATOM     10  C   UNL A   1     -21.792   0.461  28.246  0.00  0.00    +0.048 C 
BRANCH  10  11
ATOM     11  C   UNL A   1     -22.215   1.638  27.814  0.00  0.00    +0.009 C 
BRANCH  11  12
ATOM     12  C   UNL A   1     -23.134   1.763  26.861  0.00  0.00    +0.026 C 
BRANCH  12  13
ATOM     13  C   UNL A   1     -24.222   1.052  26.591  0.00  0.00    -0.026 C 
ATOM     14  C   UNL A   1     -24.691   0.891  25.302  0.00  0.00    -0.005 C 
BRANCH  14  15
ATOM     15  C   UNL A   1     -25.448  -0.166  24.890  0.00  0.00    -0.000 C 
ATOM     16  C   UNL A   1     -26.824   0.008  24.480  0.00  0.00    -0.000 C 
BRANCH  16  17
ATOM     17  C   UNL A   1     -27.397   1.279  24.550  0.00  0.00    -0.000 C 
ATOM     18  C   UNL A   1     -28.389   1.640  23.658  0.00  0.00    -0.000 C 
ENDBRANCH  16  17
ENDBRANCH  14  15
ENDBRANCH  12  13
ENDBRANCH  11  12
ENDBRANCH  10  11
ENDBRANCH   1  10
TORSDOF 8
ENDMDL
ENDMDL
