REMARK  Name = No_571-gen_results/8p0m/2024-11-26-14-13-15/
REMARK  2 active torsions:
REMARK  status: ('A' for Active; 'I' for Inactive)
REMARK    1  A    between atoms: C_2  and  C_4
REMARK    2  A    between atoms: C_5  and  C_6
REMARK                            x       y       z     vdW  Elec       q    Type
REMARK                         _______ _______ _______ _____ _____    ______ ____
ROOT
ATOM      1  C   UNL A   1     -28.084  -1.614  31.099  0.00  0.00    +0.001 C 
ATOM      2  C   UNL A   1     -26.981  -2.453  30.739  0.00  0.00    +0.012 C 
ENDROOT
BRANCH   1   4
ATOM      3  C   UNL A   1     -28.016  -0.814  28.878  0.00  0.00    +0.167 C 
ATOM      4  C   UNL A   1     -28.469  -0.785  29.829  0.00  0.00    +0.032 C 
ATOM      5  F   UNL A   1     -27.014  -1.618  28.684  0.00  0.00    -0.202 F 
ENDBRANCH   1   4
BRANCH   2   6
ATOM      6  C   UNL A   1     -26.408  -2.435  29.524  0.00  0.00    +0.220 C 
ATOM      7  F   UNL A   1     -25.437  -3.212  29.201  0.00  0.00    -0.229 F 
ENDBRANCH   2   6
TORSDOF 2
