MODEL 571
MODEL 1
REMARK VINA RESULT:    -4.325      0.000      0.000
REMARK INTER + INTRA:          -4.965
REMARK INTER:                  -4.831
REMARK INTRA:                  -0.134
REMARK UNBOUND:                -0.134
REMARK  Name = No_571-gen_results/8p0m/2024-11-26-14-13-15/
REMARK  2 active torsions:
REMARK  status: ('A' for Active; 'I' for Inactive)
REMARK    1  A    between atoms: C_2  and  C_4
REMARK    2  A    between atoms: C_5  and  C_6
REMARK                            x       y       z     vdW  Elec       q    Type
REMARK                         _______ _______ _______ _____ _____    ______ ____
ROOT
ATOM      1  C   UNL A   1      -9.879  -9.414  19.152  0.00  0.00    +0.001 C 
ATOM      2  C   UNL A   1      -9.028  -9.258  20.293  0.00  0.00    +0.012 C 
ENDROOT
BRANCH   1   4
ATOM      3  C   UNL A   1      -9.377 -10.494  17.112  0.00  0.00    +0.167 C 
ATOM      4  C   UNL A   1      -9.041 -10.136  18.045  0.00  0.00    +0.032 C 
ATOM      5  F   UNL A   1     -10.628 -10.342  16.795  0.00  0.00    -0.202 F 
ENDBRANCH   1   4
BRANCH   2   6
ATOM      6  C   UNL A   1      -7.742  -9.646  20.311  0.00  0.00    +0.220 C 
ATOM      7  F   UNL A   1      -7.219 -10.278  21.300  0.00  0.00    -0.229 F 
ENDBRANCH   2   6
TORSDOF 2
ENDMDL
ENDMDL
