REMARK  Name = No_572-gen_results/8p0m/2024-11-26-14-13-15/
REMARK  3 active torsions:
REMARK  status: ('A' for Active; 'I' for Inactive)
REMARK    1  A    between atoms: C_2  and  C_3
REMARK    2  A    between atoms: N_5  and  C_7
REMARK    3  A    between atoms: C_9  and  C_10
REMARK                            x       y       z     vdW  Elec       q    Type
REMARK                         _______ _______ _______ _____ _____    ______ ____
ROOT
ATOM      1  C   UNL A   1     -24.849   1.307  27.114  0.00  0.00    +0.088 A 
ATOM      2  C   UNL A   1     -25.065   1.550  25.904  0.00  0.00    +0.019 A 
ATOM      3  C   UNL A   1     -23.544   1.582  27.654  0.00  0.00    +0.097 A 
ATOM      4  C   UNL A   1     -23.914   1.820  25.024  0.00  0.00    +0.002 A 
ATOM      5  C   UNL A   1     -22.710   2.184  25.500  0.00  0.00    +0.000 A 
ATOM      6  C   UNL A   1     -22.482   2.062  26.793  0.00  0.00    +0.008 A 
ENDROOT
BRANCH   3   7
ATOM      7  C   UNL A   1     -23.167   1.432  29.055  0.00  0.00    +0.389 C 
ATOM      8  O   UNL A   1     -22.486   0.470  29.459  0.00  0.00    -0.240 OA
ATOM      9  O   UNL A   1     -24.066   1.992  30.030  0.00  0.00    -0.240 OA
ENDBRANCH   3   7
BRANCH   1  11
ATOM     10  C   UNL A   1     -26.380  -0.087  27.939  0.00  0.00    +0.158 C 
ATOM     11  N   UNL A   1     -25.952   0.831  27.917  0.00  0.00    -0.239 NA
BRANCH  10  13
ATOM     12  O   UNL A   1     -28.123  -1.335  28.487  0.00  0.00    -0.267 OA
ATOM     13  C   UNL A   1     -27.481  -0.404  28.709  0.00  0.00    +0.284 C 
ATOM     14  N   UNL A   1     -27.423   0.175  30.055  0.00  0.00    -0.198 NA
ATOM     15  C   UNL A   1     -28.325  -0.097  31.021  0.00  0.00    +0.139 C 
ENDBRANCH  10  13
ENDBRANCH   1  11
TORSDOF 3
