MODEL 572
MODEL 1
REMARK VINA RESULT:    -5.786      0.000      0.000
REMARK INTER + INTRA:          -7.169
REMARK INTER:                  -6.801
REMARK INTRA:                  -0.368
REMARK UNBOUND:                -0.368
REMARK  Name = No_572-gen_results/8p0m/2024-11-26-14-13-15/
REMARK  3 active torsions:
REMARK  status: ('A' for Active; 'I' for Inactive)
REMARK    1  A    between atoms: C_2  and  C_3
REMARK    2  A    between atoms: N_5  and  C_7
REMARK    3  A    between atoms: C_9  and  C_10
REMARK                            x       y       z     vdW  Elec       q    Type
REMARK                         _______ _______ _______ _____ _____    ______ ____
ROOT
ATOM      1  C   UNL A   1     -24.043  -0.220  27.789  0.00  0.00    +0.088 A 
ATOM      2  C   UNL A   1     -24.761   0.424  26.990  0.00  0.00    +0.019 A 
ATOM      3  C   UNL A   1     -22.789   0.348  28.207  0.00  0.00    +0.097 A 
ATOM      4  C   UNL A   1     -24.173   1.578  26.288  0.00  0.00    +0.002 A 
ATOM      5  C   UNL A   1     -23.059   2.196  26.720  0.00  0.00    +0.000 A 
ATOM      6  C   UNL A   1     -22.337   1.609  27.654  0.00  0.00    +0.008 A 
ENDROOT
BRANCH   3   7
ATOM      7  C   UNL A   1     -21.888  -0.240  29.191  0.00  0.00    +0.389 C 
ATOM      8  O   UNL A   1     -21.045  -1.105  28.885  0.00  0.00    -0.240 OA
ATOM      9  O   UNL A   1     -22.369  -0.313  30.546  0.00  0.00    -0.240 OA
ENDBRANCH   3   7
BRANCH   1  11
ATOM     10  C   UNL A   1     -25.362  -1.640  28.889  0.00  0.00    +0.158 C 
ATOM     11  N   UNL A   1     -24.554  -1.471  28.302  0.00  0.00    -0.239 NA
BRANCH  10  13
ATOM     12  O   UNL A   1     -26.796  -3.123  29.690  0.00  0.00    -0.267 OA
ATOM     13  C   UNL A   1     -25.714  -2.885  29.373  0.00  0.00    +0.284 C 
ATOM     14  N   UNL A   1     -24.797  -3.945  28.943  0.00  0.00    -0.198 NA
ATOM     15  C   UNL A   1     -25.006  -5.255  29.191  0.00  0.00    +0.139 C 
ENDBRANCH  10  13
ENDBRANCH   1  11
TORSDOF 3
ENDMDL
ENDMDL
