REMARK  Name = No_573-gen_results/8p0m/2024-11-26-14-13-15/
REMARK  0 active torsions:
REMARK  status: ('A' for Active; 'I' for Inactive)
REMARK                            x       y       z     vdW  Elec       q    Type
REMARK                         _______ _______ _______ _____ _____    ______ ____
ROOT
ATOM      1  C   UNL A   1     -28.016  -0.814  28.878  0.00  0.00    +0.000 A 
ATOM      2  C   UNL A   1     -27.064  -0.119  28.608  0.00  0.00    +0.000 A 
ATOM      3  C   UNL A   1     -27.001   0.691  27.491  0.00  0.00    +0.000 A 
ATOM      4  C   UNL A   1     -25.855   1.482  27.083  0.00  0.00    +0.000 A 
ATOM      5  C   UNL A   1     -25.823   2.330  25.994  0.00  0.00    +0.000 A 
ATOM      6  C   UNL A   1     -27.987  -1.633  30.104  0.00  0.00    +0.000 A 
ATOM      7  C   UNL A   1     -26.777  -1.833  30.747  0.00  0.00    +0.000 A 
ATOM      8  C   UNL A   1     -25.630  -1.216  30.306  0.00  0.00    +0.000 A 
ATOM      9  C   UNL A   1     -25.732  -0.348  29.164  0.00  0.00    +0.000 A 
ATOM     10  C   UNL A   1     -24.657   3.123  25.825  0.00  0.00    +0.000 A 
ATOM     11  C   UNL A   1     -23.502   2.895  26.571  0.00  0.00    +0.000 A 
ATOM     12  C   UNL A   1     -23.510   1.949  27.547  0.00  0.00    +0.000 A 
ATOM     13  C   UNL A   1     -24.649   1.233  27.842  0.00  0.00    +0.000 A 
ATOM     14  C   UNL A   1     -24.573   0.350  28.756  0.00  0.00    +0.000 A 
ENDROOT
TORSDOF 0
