MODEL 574
MODEL 1
REMARK VINA RESULT:    -6.565      0.000      0.000
REMARK INTER + INTRA:          -7.750
REMARK INTER:                  -7.332
REMARK INTRA:                  -0.417
REMARK UNBOUND:                -0.417
REMARK  Name = No_574-gen_results/8p0m/2024-11-26-14-13-15/
REMARK  2 active torsions:
REMARK  status: ('A' for Active; 'I' for Inactive)
REMARK    1  A    between atoms: C_3  and  C_4
REMARK    2  A    between atoms: C_6  and  C_13
REMARK                            x       y       z     vdW  Elec       q    Type
REMARK                         _______ _______ _______ _____ _____    ______ ____
ROOT
ATOM      1  C   UNL A   1     -29.424 -10.108  32.427  0.00  0.00    +0.007 A 
ATOM      2  C   UNL A   1     -29.809 -10.107  31.281  0.00  0.00    +0.000 A 
ATOM      3  C   UNL A   1     -29.365 -11.062  30.373  0.00  0.00    +0.000 A 
ATOM      4  C   UNL A   1     -28.331 -11.005  32.837  0.00  0.00    +0.080 A 
ATOM      5  C   UNL A   1     -27.890 -12.021  32.025  0.00  0.00    +0.007 A 
ATOM      6  C   UNL A   1     -28.355 -12.084  30.700  0.00  0.00    +0.000 A 
ENDROOT
BRANCH   3   7
ATOM      7  C   UNL A   1     -29.756 -11.160  28.937  0.00  0.00    +0.000 A 
ATOM      8  C   UNL A   1     -30.625 -10.246  28.245  0.00  0.00    +0.000 A 
ATOM      9  C   UNL A   1     -30.837 -10.412  26.893  0.00  0.00    +0.000 A 
ATOM     10  C   UNL A   1     -30.171 -11.254  26.055  0.00  0.00    +0.000 A 
ATOM     11  C   UNL A   1     -29.049 -12.060  28.045  0.00  0.00    +0.000 A 
ATOM     12  C   UNL A   1     -29.288 -12.091  26.664  0.00  0.00    +0.000 A 
ENDBRANCH   3   7
BRANCH   4  13
ATOM     13  C   UNL A   1     -27.766 -10.987  34.217  0.00  0.00    +0.388 C 
ATOM     14  O   UNL A   1     -28.096 -10.153  35.019  0.00  0.00    -0.241 OA
ATOM     15  O   UNL A   1     -27.243 -12.116  34.657  0.00  0.00    -0.241 OA
ENDBRANCH   4  13
TORSDOF 2
ENDMDL
ENDMDL
