REMARK  Name = No_575-gen_results/8p0m/2024-11-26-14-13-15/
REMARK  5 active torsions:
REMARK  status: ('A' for Active; 'I' for Inactive)
REMARK    1  A    between atoms: C_6  and  C_8
REMARK    2  A    between atoms: C_9  and  C_23
REMARK    3  A    between atoms: C_13  and  N_14
REMARK    4  A    between atoms: C_19  and  C_20
REMARK    5  A    between atoms: C_23  and  C_24
REMARK                            x       y       z     vdW  Elec       q    Type
REMARK                         _______ _______ _______ _____ _____    ______ ____
ROOT
ATOM      1  C   UNL A   1     -30.029   1.691  30.875  0.00  0.00    -0.004 A 
ATOM      2  C   UNL A   1     -31.086   1.948  30.694  0.00  0.00    -0.017 A 
ATOM      3  C   UNL A   1     -32.016   2.598  31.596  0.00  0.00    +0.011 A 
ATOM      4  C   UNL A   1     -29.458   2.021  32.278  0.00  0.00    +0.001 A 
ATOM      5  C   UNL A   1     -30.289   2.658  33.194  0.00  0.00    +0.015 A 
ATOM      6  C   UNL A   1     -31.559   2.942  32.843  0.00  0.00    +0.048 A 
ENDROOT
BRANCH   1  12
ATOM      7  C   UNL A   1     -28.016  -0.814  28.878  0.00  0.00    +0.011 A 
ATOM      8  C   UNL A   1     -27.064  -0.119  28.608  0.00  0.00    +0.058 A 
ATOM      9  C   UNL A   1     -26.876   1.133  28.913  0.00  0.00    +0.011 A 
ATOM     10  C   UNL A   1     -27.901   1.807  29.644  0.00  0.00    +0.001 A 
ATOM     11  C   UNL A   1     -29.046  -0.232  29.718  0.00  0.00    +0.001 A 
ATOM     12  C   UNL A   1     -28.940   1.052  30.060  0.00  0.00    -0.000 A 
ATOM     13 CL   UNL A   1     -25.721  -0.823  27.689  0.00  0.00    -0.082 Cl
ENDBRANCH   1  12
BRANCH   6  14
ATOM     14  N   UNL A   1     -32.412   3.571  33.732  0.00  0.00    -0.307 N 
ATOM     15  C   UNL A   1     -31.956   4.132  34.823  0.00  0.00    +0.091 C 
ATOM     16  C   UNL A   1     -33.811   3.604  33.450  0.00  0.00    +0.091 C 
ATOM     17  C   UNL A   1     -32.624   4.598  35.720  0.00  0.00    +0.033 C 
ATOM     18  C   UNL A   1     -34.616   4.154  34.502  0.00  0.00    +0.033 C 
ATOM     19  C   UNL A   1     -34.025   4.706  35.609  0.00  0.00    +0.107 C 
BRANCH  19  20
ATOM     20  C   UNL A   1     -34.920   5.277  36.639  0.00  0.00    +0.364 C 
ATOM     21  O   UNL A   1     -34.496   5.917  37.568  0.00  0.00    -0.246 OA
ATOM     22  O   UNL A   1     -36.193   5.252  36.350  0.00  0.00    -0.246 OA
ENDBRANCH  19  20
ENDBRANCH   6  14
BRANCH   2  23
ATOM     23  C   UNL A   1     -31.715   1.615  29.342  0.00  0.00    +0.053 C 
BRANCH  23  24
ATOM     24  C   UNL A   1     -31.872   2.789  28.551  0.00  0.00    -0.018 A 
ATOM     25  C   UNL A   1     -32.400   2.587  27.232  0.00  0.00    -0.004 A 
ATOM     26  C   UNL A   1     -32.507   3.652  26.425  0.00  0.00    -0.000 A 
ATOM     27  C   UNL A   1     -32.149   5.004  26.869  0.00  0.00    -0.000 A 
ATOM     28  C   UNL A   1     -31.618   5.151  28.111  0.00  0.00    -0.000 A 
ATOM     29  C   UNL A   1     -31.493   4.125  28.936  0.00  0.00    -0.004 A 
ENDBRANCH  23  24
ENDBRANCH   2  23
TORSDOF 5
