REMARK  Name = No_576-gen_results/8p0m/2024-11-26-14-13-15/
REMARK  10 active torsions:
REMARK  status: ('A' for Active; 'I' for Inactive)
REMARK    1  A    between atoms: C_3  and  C_7
REMARK    2  A    between atoms: C_5  and  C_16
REMARK    3  A    between atoms: C_9  and  C_13
REMARK    4  A    between atoms: C_24  and  O_26
REMARK    5  A    between atoms: O_26  and  C_27
REMARK    6  A    between atoms: C_27  and  C_29
REMARK    7  A    between atoms: C_29  and  C_30
REMARK    8  A    between atoms: C_30  and  N_31
REMARK    9  A    between atoms: N_31  and  C_32
REMARK   10  A    between atoms: N_31  and  C_33
REMARK                            x       y       z     vdW  Elec       q    Type
REMARK                         _______ _______ _______ _____ _____    ______ ____
ROOT
ATOM      1  C   UNL A   1     -30.410   0.222  26.181  0.00  0.00    +0.255 C 
ATOM      2  N   UNL A   1     -30.354   0.192  24.999  0.00  0.00    -0.227 N 
ATOM      3  O   UNL A   1     -31.556   0.178  26.735  0.00  0.00    -0.270 OA
ATOM      4  C   UNL A   1     -29.090   0.201  24.190  0.00  0.00    +0.251 C 
ATOM      5  C   UNL A   1     -31.496   0.261  24.084  0.00  0.00    +0.070 C 
ATOM      6  C   UNL A   1     -31.686   1.299  23.269  0.00  0.00    +0.019 C 
ATOM      7  C   UNL A   1     -30.844   2.330  23.441  0.00  0.00    +0.034 C 
ATOM      8  C   UNL A   1     -29.422   2.022  23.568  0.00  0.00    +0.121 C 
ATOM      9  C   UNL A   1     -28.371   1.579  23.830  0.00  0.00    +0.121 C 
ATOM     10  F   UNL A   1     -29.284  -0.582  23.080  0.00  0.00    -0.214 F 
ENDROOT
BRANCH   1  15
ATOM     11  C   UNL A   1     -28.016  -0.814  28.878  0.00  0.00    +0.058 A 
ATOM     12  C   UNL A   1     -27.064  -0.119  28.608  0.00  0.00    +0.011 A 
ATOM     13  C   UNL A   1     -26.972   0.714  27.506  0.00  0.00    +0.001 A 
ATOM     14  C   UNL A   1     -28.105   0.774  26.642  0.00  0.00    +0.005 A 
ATOM     15  C   UNL A   1     -29.204   0.118  27.048  0.00  0.00    +0.055 A 
ATOM     16  C   UNL A   1     -29.213  -0.609  28.128  0.00  0.00    +0.016 A 
ATOM     17 CL   UNL A   1     -28.066  -1.781  30.317  0.00  0.00    -0.082 Cl
BRANCH  13  18
ATOM     18  C   UNL A   1     -25.711   1.452  27.138  0.00  0.00    +0.000 A 
ATOM     19  C   UNL A   1     -24.605   0.925  27.690  0.00  0.00    +0.005 A 
ATOM     20  C   UNL A   1     -23.309   1.602  27.492  0.00  0.00    +0.057 A 
ATOM     21  C   UNL A   1     -23.217   2.496  26.439  0.00  0.00    +0.005 A 
ATOM     22  C   UNL A   1     -25.294   2.163  26.017  0.00  0.00    +0.000 A 
ATOM     23  C   UNL A   1     -24.246   2.867  25.747  0.00  0.00    +0.000 A 
BRANCH  20  24
ATOM     24  C   UNL A   1     -22.121   1.134  28.299  0.00  0.00    +0.284 C 
ATOM     25  N   UNL A   1     -21.017   1.714  28.158  0.00  0.00    -0.084 NA
ATOM     26  O   UNL A   1     -22.266   0.284  29.209  0.00  0.00    -0.267 OA
ENDBRANCH  20  24
ENDBRANCH  13  18
ENDBRANCH   1  15
BRANCH   8  27
ATOM     27  O   UNL A   1     -29.041   3.144  23.607  0.00  0.00    -0.479 OA
BRANCH  27  28
ATOM     28  C   UNL A   1     -28.282   3.674  24.650  0.00  0.00    +0.207 C 
BRANCH  28  29
ATOM     29  C   UNL A   1     -28.845   4.979  25.224  0.00  0.00    +0.069 C 
BRANCH  29  30
ATOM     30  C   UNL A   1     -30.168   4.795  25.705  0.00  0.00    +0.100 C 
BRANCH  30  31
ATOM     31  N   UNL A   1     -30.380   4.660  27.066  0.00  0.00    -0.285 N 
BRANCH  31  32
ATOM     32  C   UNL A   1     -31.332   5.266  27.674  0.00  0.00    +0.065 C 
ATOM     33  C   UNL A   1     -31.800   4.832  29.001  0.00  0.00    +0.017 C 
ENDBRANCH  31  32
BRANCH  31  34
ATOM     34  C   UNL A   1     -29.658   3.640  27.750  0.00  0.00    +0.065 C 
ATOM     35  C   UNL A   1     -30.171   3.233  29.060  0.00  0.00    +0.017 C 
ENDBRANCH  31  34
ENDBRANCH  30  31
ENDBRANCH  29  30
ENDBRANCH  28  29
ENDBRANCH  27  28
ENDBRANCH   8  27
TORSDOF 10
