MODEL 576
MODEL 1
REMARK VINA RESULT:    -6.872      0.000      0.000
REMARK INTER + INTRA:         -12.834
REMARK INTER:                 -10.889
REMARK INTRA:                  -1.945
REMARK UNBOUND:                -1.945
REMARK  Name = No_576-gen_results/8p0m/2024-11-26-14-13-15/
REMARK  10 active torsions:
REMARK  status: ('A' for Active; 'I' for Inactive)
REMARK    1  A    between atoms: C_3  and  C_7
REMARK    2  A    between atoms: C_5  and  C_16
REMARK    3  A    between atoms: C_9  and  C_13
REMARK    4  A    between atoms: C_24  and  O_26
REMARK    5  A    between atoms: O_26  and  C_27
REMARK    6  A    between atoms: C_27  and  C_29
REMARK    7  A    between atoms: C_29  and  C_30
REMARK    8  A    between atoms: C_30  and  N_31
REMARK    9  A    between atoms: N_31  and  C_32
REMARK   10  A    between atoms: N_31  and  C_33
REMARK                            x       y       z     vdW  Elec       q    Type
REMARK                         _______ _______ _______ _____ _____    ______ ____
ROOT
ATOM      1  C   UNL A   1     -24.900   3.482  25.972  0.00  0.00    +0.255 C 
ATOM      2  N   UNL A   1     -24.275   2.492  25.797  0.00  0.00    -0.227 N 
ATOM      3  O   UNL A   1     -24.320   4.603  25.803  0.00  0.00    -0.270 OA
ATOM      4  C   UNL A   1     -24.811   1.096  25.919  0.00  0.00    +0.251 C 
ATOM      5  C   UNL A   1     -22.834   2.421  25.546  0.00  0.00    +0.070 C 
ATOM      6  C   UNL A   1     -21.992   1.867  26.419  0.00  0.00    +0.019 C 
ATOM      7  C   UNL A   1     -22.532   1.508  27.594  0.00  0.00    +0.034 C 
ATOM      8  C   UNL A   1     -23.796   0.778  27.557  0.00  0.00    +0.121 C 
ATOM      9  C   UNL A   1     -24.874   0.376  27.341  0.00  0.00    +0.121 C 
ATOM     10  F   UNL A   1     -24.193   0.314  24.975  0.00  0.00    -0.214 F 
ENDROOT
BRANCH   1  15
ATOM     11  C   UNL A   1     -28.302   4.053  27.447  0.00  0.00    +0.058 A 
ATOM     12  C   UNL A   1     -28.997   3.515  26.617  0.00  0.00    +0.011 A 
ATOM     13  C   UNL A   1     -28.542   2.967  25.430  0.00  0.00    +0.001 A 
ATOM     14  C   UNL A   1     -27.137   3.020  25.188  0.00  0.00    +0.005 A 
ATOM     15  C   UNL A   1     -26.373   3.477  26.193  0.00  0.00    +0.055 A 
ATOM     16  C   UNL A   1     -26.888   3.933  27.298  0.00  0.00    +0.016 A 
ATOM     17 CL   UNL A   1     -28.955   4.656  28.937  0.00  0.00    -0.082 Cl
BRANCH  13  18
ATOM     18  C   UNL A   1     -29.464   2.434  24.364  0.00  0.00    +0.000 A 
ATOM     19  C   UNL A   1     -29.708   1.118  24.481  0.00  0.00    +0.005 A 
ATOM     20  C   UNL A   1     -30.519   0.442  23.450  0.00  0.00    +0.057 A 
ATOM     21  C   UNL A   1     -31.317   1.241  22.649  0.00  0.00    +0.005 A 
ATOM     22  C   UNL A   1     -30.524   2.971  23.640  0.00  0.00    +0.000 A 
ATOM     23  C   UNL A   1     -31.250   2.533  22.667  0.00  0.00    +0.000 A 
BRANCH  20  24
ATOM     24  C   UNL A   1     -30.595  -1.067  23.468  0.00  0.00    +0.284 C 
ATOM     25  N   UNL A   1     -29.533  -1.733  23.533  0.00  0.00    -0.084 NA
ATOM     26  O   UNL A   1     -31.701  -1.647  23.572  0.00  0.00    -0.267 OA
ENDBRANCH  20  24
ENDBRANCH  13  18
ENDBRANCH   1  15
BRANCH   8  27
ATOM     27  O   UNL A   1     -23.876   0.581  28.723  0.00  0.00    -0.479 OA
BRANCH  27  28
ATOM     28  C   UNL A   1     -22.780   0.329  29.548  0.00  0.00    +0.207 C 
BRANCH  28  29
ATOM     29  C   UNL A   1     -23.161  -0.171  30.946  0.00  0.00    +0.069 C 
BRANCH  29  30
ATOM     30  C   UNL A   1     -23.610  -1.517  30.901  0.00  0.00    +0.100 C 
BRANCH  30  31
ATOM     31  N   UNL A   1     -24.926  -1.780  30.563  0.00  0.00    -0.285 N 
BRANCH  31  32
ATOM     32  C   UNL A   1     -25.251  -2.725  29.759  0.00  0.00    +0.065 C 
ATOM     33  C   UNL A   1     -24.253  -3.388  28.904  0.00  0.00    +0.017 C 
ENDBRANCH  31  32
BRANCH  31  34
ATOM     34  C   UNL A   1     -25.945  -1.125  31.313  0.00  0.00    +0.065 C 
ATOM     35  C   UNL A   1     -26.910  -0.324  30.557  0.00  0.00    +0.017 C 
ENDBRANCH  31  34
ENDBRANCH  30  31
ENDBRANCH  29  30
ENDBRANCH  28  29
ENDBRANCH  27  28
ENDBRANCH   8  27
TORSDOF 10
ENDMDL
ENDMDL
