REMARK  Name = No_577-gen_results/8p0m/2024-11-26-14-13-15/
REMARK  1 active torsions:
REMARK  status: ('A' for Active; 'I' for Inactive)
REMARK    1  A    between atoms: C_5  and  C_8
REMARK                            x       y       z     vdW  Elec       q    Type
REMARK                         _______ _______ _______ _____ _____    ______ ____
ROOT
ATOM      1  C   UNL A   1     -28.016  -0.814  28.878  0.00  0.00    +0.001 A 
ATOM      2  C   UNL A   1     -27.064  -0.119  28.608  0.00  0.00    +0.011 A 
ATOM      3  C   UNL A   1     -26.972   0.714  27.506  0.00  0.00    +0.057 A 
ATOM      4  C   UNL A   1     -28.105   0.774  26.642  0.00  0.00    +0.010 A 
ATOM      5  C   UNL A   1     -29.204   0.118  27.048  0.00  0.00    +0.008 A 
ATOM      6  C   UNL A   1     -29.207  -0.597  28.183  0.00  0.00    -0.002 A 
ATOM      7 CL   UNL A   1     -25.538   1.562  27.064  0.00  0.00    -0.082 Cl
ENDROOT
BRANCH   5   8
ATOM      8  C   UNL A   1     -30.493   0.138  26.365  0.00  0.00    +0.153 C 
ATOM      9  C   UNL A   1     -30.552   0.021  25.049  0.00  0.00    +0.040 C 
ATOM     10  F   UNL A   1     -31.323  -0.836  26.894  0.00  0.00    -0.235 F 
ATOM     11  C   UNL A   1     -31.230   1.486  26.728  0.00  0.00    +0.040 C 
ENDBRANCH   5   8
TORSDOF 1
