MODEL 577
MODEL 1
REMARK VINA RESULT:    -5.457      0.000      0.000
REMARK INTER + INTRA:          -5.965
REMARK INTER:                  -5.776
REMARK INTRA:                  -0.189
REMARK UNBOUND:                -0.189
REMARK  Name = No_577-gen_results/8p0m/2024-11-26-14-13-15/
REMARK  1 active torsions:
REMARK  status: ('A' for Active; 'I' for Inactive)
REMARK    1  A    between atoms: C_5  and  C_8
REMARK                            x       y       z     vdW  Elec       q    Type
REMARK                         _______ _______ _______ _____ _____    ______ ____
ROOT
ATOM      1  C   UNL A   1     -24.519  -4.885  28.944  0.00  0.00    +0.001 A 
ATOM      2  C   UNL A   1     -25.674  -4.922  29.299  0.00  0.00    +0.011 A 
ATOM      3  C   UNL A   1     -26.366  -3.870  29.874  0.00  0.00    +0.057 A 
ATOM      4  C   UNL A   1     -25.662  -2.640  30.030  0.00  0.00    +0.010 A 
ATOM      5  C   UNL A   1     -24.436  -2.577  29.486  0.00  0.00    +0.008 A 
ATOM      6  C   UNL A   1     -23.891  -3.640  28.876  0.00  0.00    -0.002 A 
ATOM      7 CL   UNL A   1     -27.959  -4.009  30.517  0.00  0.00    -0.082 Cl
ENDROOT
BRANCH   5   8
ATOM      8  C   UNL A   1     -23.597  -1.384  29.446  0.00  0.00    +0.153 C 
ATOM      9  C   UNL A   1     -23.365  -0.694  30.550  0.00  0.00    +0.040 C 
ATOM     10  F   UNL A   1     -22.364  -1.693  28.897  0.00  0.00    -0.235 F 
ATOM     11  C   UNL A   1     -24.218  -0.371  28.407  0.00  0.00    +0.040 C 
ENDBRANCH   5   8
TORSDOF 1
ENDMDL
ENDMDL
