REMARK  Name = No_578-gen_results/8p0m/2024-11-26-14-13-15/
REMARK  4 active torsions:
REMARK  status: ('A' for Active; 'I' for Inactive)
REMARK    1  A    between atoms: C_1  and  C_2
REMARK    2  A    between atoms: C_5  and  C_13
REMARK    3  A    between atoms: C_12  and  O_16
REMARK    4  A    between atoms: O_16  and  C_18
REMARK                            x       y       z     vdW  Elec       q    Type
REMARK                         _______ _______ _______ _____ _____    ______ ____
ROOT
ATOM      1  C   UNL A   1     -28.016  -0.814  28.878  0.00  0.00    +0.022 A 
ATOM      2  C   UNL A   1     -29.245  -0.050  29.206  0.00  0.00    +0.041 A 
ATOM      3  C   UNL A   1     -30.389  -0.776  29.661  0.00  0.00    +0.196 A 
ATOM      4  C   UNL A   1     -30.197  -2.066  30.111  0.00  0.00    +0.045 A 
ATOM      5  C   UNL A   1     -28.973  -2.708  30.158  0.00  0.00    +0.040 A 
ATOM      6  C   UNL A   1     -27.871  -2.051  29.665  0.00  0.00    +0.135 A 
ATOM      7  O   UNL A   1     -31.565  -0.198  29.716  0.00  0.00    -0.287 OA
ENDROOT
BRANCH   1   8
ATOM      8  C   UNL A   1     -27.064  -0.119  28.608  0.00  0.00    +0.083 C 
ATOM      9  C   UNL A   1     -26.972   0.714  27.506  0.00  0.00    +0.155 C 
ATOM     10  C   UNL A   1     -25.820   1.491  27.116  0.00  0.00    +0.074 C 
ATOM     11  C   UNL A   1     -24.656   1.424  27.918  0.00  0.00    +0.087 C 
ATOM     12  C   UNL A   1     -24.711   0.542  29.051  0.00  0.00    +0.010 C 
ATOM     13  C   UNL A   1     -25.804  -0.206  29.388  0.00  0.00    +0.012 C 
ATOM     14  O   UNL A   1     -28.002   0.818  26.711  0.00  0.00    -0.296 OA
BRANCH  11  15
ATOM     15  C   UNL A   1     -23.454   2.175  27.617  0.00  0.00    +0.261 C 
ATOM     16  N   UNL A   1     -23.410   3.075  26.774  0.00  0.00    -0.088 NA
ATOM     17  O   UNL A   1     -22.314   1.819  28.150  0.00  0.00    -0.272 OA
ENDBRANCH  11  15
ENDBRANCH   1   8
BRANCH   6  18
ATOM     18  O   UNL A   1     -26.680  -2.649  29.738  0.00  0.00    -0.476 OA
BRANCH  18  19
ATOM     19  C   UNL A   1     -26.216  -3.494  28.905  0.00  0.00    +0.205 C 
ATOM     20  C   UNL A   1     -24.715  -3.399  28.877  0.00  0.00    +0.051 C 
ENDBRANCH  18  19
ENDBRANCH   6  18
TORSDOF 4
