MODEL 578
MODEL 1
REMARK VINA RESULT:    -6.033      0.000      0.000
REMARK INTER + INTRA:          -8.416
REMARK INTER:                  -7.444
REMARK INTRA:                  -0.972
REMARK UNBOUND:                -0.972
REMARK  Name = No_578-gen_results/8p0m/2024-11-26-14-13-15/
REMARK  4 active torsions:
REMARK  status: ('A' for Active; 'I' for Inactive)
REMARK    1  A    between atoms: C_1  and  C_2
REMARK    2  A    between atoms: C_5  and  C_13
REMARK    3  A    between atoms: C_12  and  O_16
REMARK    4  A    between atoms: O_16  and  C_18
REMARK                            x       y       z     vdW  Elec       q    Type
REMARK                         _______ _______ _______ _____ _____    ______ ____
ROOT
ATOM      1  C   UNL A   1     -28.728 -12.351  30.806  0.00  0.00    +0.022 A 
ATOM      2  C   UNL A   1     -28.908 -11.580  29.550  0.00  0.00    +0.041 A 
ATOM      3  C   UNL A   1     -29.348 -12.282  28.386  0.00  0.00    +0.196 A 
ATOM      4  C   UNL A   1     -29.920 -13.525  28.560  0.00  0.00    +0.045 A 
ATOM      5  C   UNL A   1     -30.102 -14.142  29.784  0.00  0.00    +0.040 A 
ATOM      6  C   UNL A   1     -29.627 -13.513  30.910  0.00  0.00    +0.135 A 
ATOM      7  O   UNL A   1     -29.276 -11.719  27.203  0.00  0.00    -0.287 OA
ENDROOT
BRANCH   1   8
ATOM      8  C   UNL A   1     -28.462 -11.667  31.767  0.00  0.00    +0.083 C 
ATOM      9  C   UNL A   1     -27.444 -11.922  32.670  0.00  0.00    +0.155 C 
ATOM     10  C   UNL A   1     -27.155 -11.171  33.868  0.00  0.00    +0.074 C 
ATOM     11  C   UNL A   1     -27.967 -10.054  34.177  0.00  0.00    +0.087 C 
ATOM     12  C   UNL A   1     -29.053  -9.784  33.275  0.00  0.00    +0.010 C 
ATOM     13  C   UNL A   1     -29.325 -10.525  32.160  0.00  0.00    +0.012 C 
ATOM     14  O   UNL A   1     -26.660 -12.944  32.458  0.00  0.00    -0.296 OA
BRANCH  11  15
ATOM     15  C   UNL A   1     -27.751  -9.230  35.349  0.00  0.00    +0.261 C 
ATOM     16  N   UNL A   1     -26.752  -8.522  35.505  0.00  0.00    -0.088 NA
ATOM     17  O   UNL A   1     -28.567  -9.319  36.367  0.00  0.00    -0.272 OA
ENDBRANCH  11  15
ENDBRANCH   1   8
BRANCH   6  18
ATOM     18  O   UNL A   1     -29.830 -14.084  32.099  0.00  0.00    -0.476 OA
BRANCH  18  19
ATOM     19  C   UNL A   1     -30.917 -14.063  32.763  0.00  0.00    +0.205 C 
ATOM     20  C   UNL A   1     -30.654 -13.519  34.140  0.00  0.00    +0.051 C 
ENDBRANCH  18  19
ENDBRANCH   6  18
TORSDOF 4
ENDMDL
ENDMDL
