REMARK  Name = No_579-gen_results/8p0m/2024-11-26-14-13-15/
REMARK  3 active torsions:
REMARK  status: ('A' for Active; 'I' for Inactive)
REMARK    1  A    between atoms: C_2  and  C_8
REMARK    2  A    between atoms: N_10  and  C_12
REMARK    3  A    between atoms: C_12  and  C_13
REMARK                            x       y       z     vdW  Elec       q    Type
REMARK                         _______ _______ _______ _____ _____    ______ ____
ROOT
ATOM      1  C   UNL A   1     -30.102  -0.835  29.856  0.00  0.00    +0.249 C 
ATOM      2  O   UNL A   1     -30.754  -1.603  29.969  0.00  0.00    -0.270 OA
ATOM      3  N   UNL A   1     -30.589   0.493  29.586  0.00  0.00    -0.270 N 
ATOM      4  C   UNL A   1     -31.969   0.690  29.435  0.00  0.00    +0.116 C 
ENDROOT
BRANCH   1   6
ATOM      5  C   UNL A   1     -28.016  -0.814  28.878  0.00  0.00    +0.005 A 
ATOM      6  C   UNL A   1     -28.469  -0.785  29.829  0.00  0.00    +0.054 A 
ATOM      7  C   UNL A   1     -26.504  -0.778  28.877  0.00  0.00    +0.007 A 
ATOM      8  C   UNL A   1     -25.810  -0.853  30.103  0.00  0.00    +0.035 A 
ATOM      9  C   UNL A   1     -27.991  -0.892  31.226  0.00  0.00    +0.005 A 
ATOM     10  C   UNL A   1     -26.604  -0.868  31.265  0.00  0.00    +0.007 A 
ATOM     11 BR   UNL A   1     -23.986  -0.798  30.172  0.00  0.00    -0.049 Br
ENDBRANCH   1   6
BRANCH   3  12
ATOM     12  C   UNL A   1     -29.734   1.692  29.428  0.00  0.00    +0.120 C 
BRANCH  12  13
ATOM     13  C   UNL A   1     -29.848   2.568  30.524  0.00  0.00    -0.009 C 
ATOM     14  C   UNL A   1     -30.557   2.840  31.243  0.00  0.00    -0.029 C 
ATOM     15  C   UNL A   1     -30.480   3.849  32.293  0.00  0.00    +0.030 C 
ENDBRANCH  12  13
ENDBRANCH   3  12
TORSDOF 3
