MODEL 579
MODEL 1
REMARK VINA RESULT:    -5.618      0.000      0.000
REMARK INTER + INTRA:          -6.729
REMARK INTER:                  -6.603
REMARK INTRA:                  -0.126
REMARK UNBOUND:                -0.126
REMARK  Name = No_579-gen_results/8p0m/2024-11-26-14-13-15/
REMARK  3 active torsions:
REMARK  status: ('A' for Active; 'I' for Inactive)
REMARK    1  A    between atoms: C_2  and  C_8
REMARK    2  A    between atoms: N_10  and  C_12
REMARK    3  A    between atoms: C_12  and  C_13
REMARK                            x       y       z     vdW  Elec       q    Type
REMARK                         _______ _______ _______ _____ _____    ______ ____
ROOT
ATOM      1  C   UNL A   1     -22.283  -0.868  28.920  0.00  0.00    +0.249 C 
ATOM      2  O   UNL A   1     -21.313  -1.104  29.094  0.00  0.00    -0.270 OA
ATOM      3  N   UNL A   1     -22.618   0.362  28.250  0.00  0.00    -0.270 N 
ATOM      4  C   UNL A   1     -21.586   1.240  27.890  0.00  0.00    +0.116 C 
ENDROOT
BRANCH   1   6
ATOM      5  C   UNL A   1     -24.178  -1.208  30.186  0.00  0.00    +0.005 A 
ATOM      6  C   UNL A   1     -23.679  -1.603  29.346  0.00  0.00    +0.054 A 
ATOM      7  C   UNL A   1     -25.461  -1.911  30.569  0.00  0.00    +0.007 A 
ATOM      8  C   UNL A   1     -25.828  -3.096  29.897  0.00  0.00    +0.035 A 
ATOM      9  C   UNL A   1     -23.823  -2.816  28.510  0.00  0.00    +0.005 A 
ATOM     10  C   UNL A   1     -24.990  -3.492  28.837  0.00  0.00    +0.007 A 
ATOM     11 BR   UNL A   1     -27.372  -3.983  30.299  0.00  0.00    -0.049 Br
ENDBRANCH   1   6
BRANCH   3  12
ATOM     12  C   UNL A   1     -23.995   0.798  27.921  0.00  0.00    +0.120 C 
BRANCH  12  13
ATOM     13  C   UNL A   1     -24.339   0.494  26.590  0.00  0.00    -0.009 C 
ATOM     14  C   UNL A   1     -25.195   0.277  26.029  0.00  0.00    -0.029 C 
ATOM     15  C   UNL A   1     -25.321  -0.075  24.620  0.00  0.00    +0.030 C 
ENDBRANCH  12  13
ENDBRANCH   3  12
TORSDOF 3
ENDMDL
ENDMDL
