MODEL 57
MODEL 1
REMARK VINA RESULT:    -5.416      0.000      0.000
REMARK INTER + INTRA:          -5.416
REMARK INTER:                  -5.416
REMARK INTRA:                   0.000
REMARK UNBOUND:                 0.000
REMARK  Name = No_57-gen_results/8p0m/2024-11-26-14-13-15/
REMARK  0 active torsions:
REMARK  status: ('A' for Active; 'I' for Inactive)
REMARK                            x       y       z     vdW  Elec       q    Type
REMARK                         _______ _______ _______ _____ _____    ______ ____
ROOT
ATOM      1  C   UNL A   1     -26.530  -3.900  29.921  0.00  0.00    +0.000 A 
ATOM      2  C   UNL A   1     -26.182  -4.831  29.569  0.00  0.00    +0.000 A 
ATOM      3  C   UNL A   1     -25.558  -2.817  29.770  0.00  0.00    +0.000 A 
ATOM      4  C   UNL A   1     -24.324  -3.018  29.203  0.00  0.00    +0.000 A 
ATOM      5  C   UNL A   1     -24.960  -5.327  28.936  0.00  0.00    +0.000 A 
ATOM      6  C   UNL A   1     -24.013  -4.286  28.786  0.00  0.00    +0.000 A 
ATOM      7  C   UNL A   1     -25.889  -1.414  30.166  0.00  0.00    +0.000 A 
ATOM      8  C   UNL A   1     -24.902  -0.444  29.870  0.00  0.00    +0.000 A 
ATOM      9  C   UNL A   1     -23.669  -0.738  29.371  0.00  0.00    +0.000 A 
ATOM     10  C   UNL A   1     -23.361  -2.010  28.964  0.00  0.00    +0.000 A 
ENDROOT
TORSDOF 0
ENDMDL
ENDMDL
