MODEL 580
MODEL 1
REMARK VINA RESULT:    -5.046      0.000      0.000
REMARK INTER + INTRA:          -5.046
REMARK INTER:                  -5.046
REMARK INTRA:                   0.000
REMARK UNBOUND:                 0.000
REMARK  Name = No_580-gen_results/8p0m/2024-11-26-14-13-15/
REMARK  0 active torsions:
REMARK  status: ('A' for Active; 'I' for Inactive)
REMARK                            x       y       z     vdW  Elec       q    Type
REMARK                         _______ _______ _______ _____ _____    ______ ____
ROOT
ATOM      1  C   UNL A   1     -26.433  -3.471  29.847  0.00  0.00    +0.099 A 
ATOM      2  C   UNL A   1     -25.556  -2.659  29.663  0.00  0.00    +0.019 A 
ATOM      3  C   UNL A   1     -25.730  -1.297  29.812  0.00  0.00    +0.002 A 
ATOM      4  C   UNL A   1     -24.733  -0.281  29.530  0.00  0.00    +0.011 A 
ATOM      5  C   UNL A   1     -23.460  -0.686  29.072  0.00  0.00    +0.058 A 
ATOM      6  C   UNL A   1     -23.270  -2.104  28.899  0.00  0.00    +0.011 A 
ATOM      7  C   UNL A   1     -24.242  -3.047  29.137  0.00  0.00    +0.004 A 
ATOM      8  N   UNL A   1     -26.116  -4.872  29.669  0.00  0.00    -0.242 NA
ATOM      9 CL   UNL A   1     -22.233   0.396  28.751  0.00  0.00    -0.082 Cl
ATOM     10  C   UNL A   1     -25.024  -5.280  28.965  0.00  0.00    +0.099 A 
ATOM     11  C   UNL A   1     -24.000  -4.370  28.767  0.00  0.00    +0.021 A 
ENDROOT
TORSDOF 0
ENDMDL
ENDMDL
