REMARK  Name = No_581-gen_results/8p0m/2024-11-26-14-13-15/
REMARK  2 active torsions:
REMARK  status: ('A' for Active; 'I' for Inactive)
REMARK    1  A    between atoms: N_14  and  C_15
REMARK    2  A    between atoms: C_18  and  C_23
REMARK                            x       y       z     vdW  Elec       q    Type
REMARK                         _______ _______ _______ _____ _____    ______ ____
ROOT
ATOM      1  O   UNL A   1     -28.123  -1.335  28.487  0.00  0.00    -0.273 OA
ATOM      2  C   UNL A   1     -27.064  -0.824  28.869  0.00  0.00    +0.246 C 
ATOM      3  N   UNL A   1     -26.445  -0.010  28.827  0.00  0.00    -0.179 NA
ATOM      4  C   UNL A   1     -26.146  -2.074  29.669  0.00  0.00    +0.092 C 
ATOM      5  C   UNL A   1     -25.130   0.423  29.228  0.00  0.00    +0.073 A 
ATOM      6  C   UNL A   1     -24.446   1.698  28.933  0.00  0.00    +0.065 A 
ATOM      7  C   UNL A   1     -24.294  -0.514  29.936  0.00  0.00    -0.006 A 
ATOM      8  C   UNL A   1     -24.934  -1.773  30.132  0.00  0.00    +0.037 C 
ATOM      9  C   UNL A   1     -23.116   1.711  28.631  0.00  0.00    -0.017 A 
ATOM     10  C   UNL A   1     -22.292   0.677  29.271  0.00  0.00    -0.004 A 
ATOM     11  C   UNL A   1     -22.889  -0.558  29.689  0.00  0.00    -0.003 A 
ATOM     12  C   UNL A   1     -25.101   2.816  29.181  0.00  0.00    +0.254 C 
ATOM     13  O   UNL A   1     -25.458   3.293  30.242  0.00  0.00    -0.270 OA
ATOM     14  N   UNL A   1     -25.203   3.730  28.092  0.00  0.00    -0.255 N 
ATOM     15  C   UNL A   1     -24.792   3.375  26.744  0.00  0.00    +0.099 C 
ATOM     16  C   UNL A   1     -24.390   2.132  26.470  0.00  0.00    +0.029 C 
ATOM     17  C   UNL A   1     -23.399   1.587  27.343  0.00  0.00    +0.029 C 
ENDROOT
BRANCH  14  18
ATOM     18  C   UNL A   1     -25.812   5.090  28.192  0.00  0.00    +0.054 A 
ATOM     19  C   UNL A   1     -26.184   5.615  27.350  0.00  0.00    +0.015 A 
ATOM     20  C   UNL A   1     -26.725   6.957  27.593  0.00  0.00    +0.001 A 
ATOM     21  C   UNL A   1     -26.829   7.502  28.841  0.00  0.00    +0.000 A 
ATOM     22  C   UNL A   1     -26.398   6.681  29.911  0.00  0.00    +0.001 A 
ATOM     23  C   UNL A   1     -25.839   5.547  29.636  0.00  0.00    +0.015 A 
ENDBRANCH  14  18
BRANCH  16  24
ATOM     24  C   UNL A   1     -24.807   1.565  25.512  0.00  0.00    +0.024 C 
ATOM     25  C   UNL A   1     -24.406   0.140  25.265  0.00  0.00    -0.031 C 
ATOM     26  C   UNL A   1     -25.386  -0.536  24.408  0.00  0.00    -0.031 C 
ATOM     27  C   UNL A   1     -26.649   0.233  24.293  0.00  0.00    +0.026 C 
ATOM     28  C   UNL A   1     -26.237   1.516  25.200  0.00  0.00    +0.009 C 
ENDBRANCH  16  24
TORSDOF 2
