MODEL 581
MODEL 1
REMARK VINA RESULT:    -8.436      0.000      0.000
REMARK INTER + INTRA:         -10.684
REMARK INTER:                  -9.423
REMARK INTRA:                  -1.261
REMARK UNBOUND:                -1.261
REMARK  Name = No_581-gen_results/8p0m/2024-11-26-14-13-15/
REMARK  2 active torsions:
REMARK  status: ('A' for Active; 'I' for Inactive)
REMARK    1  A    between atoms: N_14  and  C_15
REMARK    2  A    between atoms: C_18  and  C_23
REMARK                            x       y       z     vdW  Elec       q    Type
REMARK                         _______ _______ _______ _____ _____    ______ ____
ROOT
ATOM      1  O   UNL A   1     -28.512   2.775  29.221  0.00  0.00    -0.273 OA
ATOM      2  C   UNL A   1     -27.506   2.503  28.555  0.00  0.00    +0.246 C 
ATOM      3  N   UNL A   1     -26.711   1.871  28.428  0.00  0.00    -0.179 NA
ATOM      4  C   UNL A   1     -27.203   3.860  27.499  0.00  0.00    +0.092 C 
ATOM      5  C   UNL A   1     -25.494   1.736  27.668  0.00  0.00    +0.073 A 
ATOM      6  C   UNL A   1     -24.449   0.697  27.772  0.00  0.00    +0.065 A 
ATOM      7  C   UNL A   1     -25.161   2.778  26.730  0.00  0.00    -0.006 A 
ATOM      8  C   UNL A   1     -26.133   3.821  26.708  0.00  0.00    +0.037 C 
ATOM      9  C   UNL A   1     -23.132   1.035  27.672  0.00  0.00    -0.017 A 
ATOM     10  C   UNL A   1     -22.815   2.175  26.801  0.00  0.00    -0.004 A 
ATOM     11  C   UNL A   1     -23.804   3.185  26.554  0.00  0.00    -0.003 A 
ATOM     12  C   UNL A   1     -24.835  -0.564  27.746  0.00  0.00    +0.254 C 
ATOM     13  O   UNL A   1     -25.337  -1.209  26.844  0.00  0.00    -0.270 OA
ATOM     14  N   UNL A   1     -24.390  -1.371  28.833  0.00  0.00    -0.255 N 
ATOM     15  C   UNL A   1     -23.726  -0.805  29.996  0.00  0.00    +0.099 C 
ATOM     16  C   UNL A   1     -23.600   0.518  30.118  0.00  0.00    +0.029 C 
ATOM     17  C   UNL A   1     -23.068   1.205  28.984  0.00  0.00    +0.029 C 
ENDROOT
BRANCH  14  18
ATOM     18  C   UNL A   1     -24.628  -2.842  28.939  0.00  0.00    +0.054 A 
ATOM     19  C   UNL A   1     -23.913  -3.562  28.637  0.00  0.00    +0.015 A 
ATOM     20  C   UNL A   1     -24.297  -4.972  28.768  0.00  0.00    +0.001 A 
ATOM     21  C   UNL A   1     -25.481  -5.372  29.320  0.00  0.00    +0.000 A 
ATOM     22  C   UNL A   1     -26.325  -4.336  29.787  0.00  0.00    +0.001 A 
ATOM     23  C   UNL A   1     -25.985  -3.109  29.559  0.00  0.00    +0.015 A 
ENDBRANCH  14  18
BRANCH  16  24
ATOM     24  C   UNL A   1     -23.866   1.053  31.146  0.00  0.00    +0.024 C 
ATOM     25  C   UNL A   1     -24.284   2.494  31.142  0.00  0.00    -0.031 C 
ATOM     26  C   UNL A   1     -25.063   2.814  32.343  0.00  0.00    -0.031 C 
ATOM     27  C   UNL A   1     -25.513   1.594  33.056  0.00  0.00    +0.026 C 
ATOM     28  C   UNL A   1     -24.827   0.481  32.092  0.00  0.00    +0.009 C 
ENDBRANCH  16  24
TORSDOF 2
ENDMDL
ENDMDL
