REMARK  Name = No_582-gen_results/8p0m/2024-11-26-14-13-15/
REMARK  2 active torsions:
REMARK  status: ('A' for Active; 'I' for Inactive)
REMARK    1  A    between atoms: C_3  and  C_11
REMARK    2  A    between atoms: C_6  and  N_14
REMARK                            x       y       z     vdW  Elec       q    Type
REMARK                         _______ _______ _______ _____ _____    ______ ____
ROOT
ATOM      1  C   UNL A   1     -28.016  -0.814  28.878  0.00  0.00    -0.004 A 
ATOM      2  C   UNL A   1     -27.064  -0.119  28.608  0.00  0.00    -0.015 A 
ATOM      3  C   UNL A   1     -26.972   0.714  27.506  0.00  0.00    +0.125 C 
ATOM      4  C   UNL A   1     -25.820   1.491  27.116  0.00  0.00    +0.017 C 
ATOM      5  C   UNL A   1     -24.858   1.342  27.601  0.00  0.00    +0.021 C 
ATOM      6  C   UNL A   1     -24.622   0.529  28.814  0.00  0.00    +0.080 C 
ATOM      7  C   UNL A   1     -25.734  -0.181  29.191  0.00  0.00    -0.011 A 
ATOM      8  C   UNL A   1     -27.984  -1.397  30.284  0.00  0.00    -0.000 A 
ATOM      9  C   UNL A   1     -26.757  -1.789  30.829  0.00  0.00    -0.000 A 
ATOM     10  C   UNL A   1     -25.645  -1.042  30.422  0.00  0.00    -0.003 A 
ENDROOT
BRANCH   3  11
ATOM     11  C   UNL A   1     -28.220   0.844  26.628  0.00  0.00    +0.368 C 
ATOM     12  O   UNL A   1     -28.200   0.982  25.446  0.00  0.00    -0.245 OA
ATOM     13  O   UNL A   1     -29.344   0.715  27.202  0.00  0.00    -0.245 OA
ENDBRANCH   3  11
BRANCH   6  14
ATOM     14  N   UNL A   1     -23.420   0.436  29.493  0.00  0.00    -0.268 NA
ATOM     15  C   UNL A   1     -22.172   0.387  28.790  0.00  0.00    +0.090 C 
ATOM     16  C   UNL A   1     -23.321   0.628  30.871  0.00  0.00    +0.090 C 
ENDBRANCH   6  14
TORSDOF 2
