MODEL 582
MODEL 1
REMARK VINA RESULT:    -6.081      0.000      0.000
REMARK INTER + INTRA:          -6.889
REMARK INTER:                  -6.792
REMARK INTRA:                  -0.096
REMARK UNBOUND:                -0.096
REMARK  Name = No_582-gen_results/8p0m/2024-11-26-14-13-15/
REMARK  2 active torsions:
REMARK  status: ('A' for Active; 'I' for Inactive)
REMARK    1  A    between atoms: C_3  and  C_11
REMARK    2  A    between atoms: C_6  and  N_14
REMARK                            x       y       z     vdW  Elec       q    Type
REMARK                         _______ _______ _______ _____ _____    ______ ____
ROOT
ATOM      1  C   UNL A   1     -26.417  -4.498  29.564  0.00  0.00    -0.004 A 
ATOM      2  C   UNL A   1     -26.166  -3.364  29.899  0.00  0.00    -0.015 A 
ATOM      3  C   UNL A   1     -27.057  -2.497  30.508  0.00  0.00    +0.125 C 
ATOM      4  C   UNL A   1     -26.810  -1.116  30.845  0.00  0.00    +0.017 C 
ATOM      5  C   UNL A   1     -25.921  -0.605  30.484  0.00  0.00    +0.021 C 
ATOM      6  C   UNL A   1     -24.772  -1.249  29.810  0.00  0.00    +0.080 C 
ATOM      7  C   UNL A   1     -25.009  -2.570  29.523  0.00  0.00    -0.011 A 
ATOM      8  C   UNL A   1     -25.194  -5.325  29.195  0.00  0.00    -0.000 A 
ATOM      9  C   UNL A   1     -24.129  -4.705  28.533  0.00  0.00    -0.000 A 
ATOM     10  C   UNL A   1     -23.917  -3.359  28.851  0.00  0.00    -0.003 A 
ENDROOT
BRANCH   3  11
ATOM     11  C   UNL A   1     -28.430  -3.063  30.884  0.00  0.00    +0.368 C 
ATOM     12  O   UNL A   1     -28.671  -3.618  31.909  0.00  0.00    -0.245 OA
ATOM     13  O   UNL A   1     -29.382  -2.849  30.074  0.00  0.00    -0.245 OA
ENDBRANCH   3  11
BRANCH   6  14
ATOM     14  N   UNL A   1     -23.594  -0.615  29.456  0.00  0.00    -0.268 NA
ATOM     15  C   UNL A   1     -23.480   0.103  28.221  0.00  0.00    +0.090 C 
ATOM     16  C   UNL A   1     -22.546  -0.423  30.357  0.00  0.00    +0.090 C 
ENDBRANCH   6  14
TORSDOF 2
ENDMDL
ENDMDL
