MODEL 583
MODEL 1
REMARK VINA RESULT:    -4.395      0.000      0.000
REMARK INTER + INTRA:          -4.395
REMARK INTER:                  -4.395
REMARK INTRA:                   0.000
REMARK UNBOUND:                 0.000
REMARK  Name = No_583-gen_results/8p0m/2024-11-26-14-13-15/
REMARK  0 active torsions:
REMARK  status: ('A' for Active; 'I' for Inactive)
REMARK                            x       y       z     vdW  Elec       q    Type
REMARK                         _______ _______ _______ _____ _____    ______ ____
ROOT
ATOM      1  C   UNL A   1     -25.412  -2.584  29.652  0.00  0.00    +0.011 A 
ATOM      2  C   UNL A   1     -24.331  -2.866  29.189  0.00  0.00    +0.058 A 
ATOM      3  C   UNL A   1     -24.027  -4.171  28.816  0.00  0.00    +0.011 A 
ATOM      4  C   UNL A   1     -24.975  -5.237  29.013  0.00  0.00    +0.001 A 
ATOM      5  C   UNL A   1     -26.191  -4.827  29.576  0.00  0.00    +0.000 A 
ATOM      6  C   UNL A   1     -26.422  -3.583  29.927  0.00  0.00    +0.001 A 
ATOM      7 CL   UNL A   1     -23.070  -1.736  28.932  0.00  0.00    -0.082 Cl
ENDROOT
TORSDOF 0
ENDMDL
ENDMDL
