REMARK  Name = No_584-gen_results/8p0m/2024-11-26-14-13-15/
REMARK  1 active torsions:
REMARK  status: ('A' for Active; 'I' for Inactive)
REMARK    1  A    between atoms: C_6  and  C_12
REMARK                            x       y       z     vdW  Elec       q    Type
REMARK                         _______ _______ _______ _____ _____    ______ ____
ROOT
ATOM      1  C   UNL A   1     -28.016  -0.814  28.878  0.00  0.00    +0.002 A 
ATOM      2  C   UNL A   1     -27.064  -0.119  28.608  0.00  0.00    +0.028 A 
ATOM      3  C   UNL A   1     -26.972   0.714  27.506  0.00  0.00    +0.140 A 
ATOM      4  C   UNL A   1     -25.821   1.491  27.116  0.00  0.00    +0.030 A 
ATOM      5  C   UNL A   1     -24.656   1.424  27.918  0.00  0.00    +0.007 A 
ATOM      6  C   UNL A   1     -24.711   0.542  29.051  0.00  0.00    +0.059 A 
ATOM      7  C   UNL A   1     -25.804  -0.206  29.388  0.00  0.00    +0.007 A 
ATOM      8  C   UNL A   1     -28.067  -1.538  30.191  0.00  0.00    +0.000 A 
ATOM      9  C   UNL A   1     -26.838  -1.768  30.877  0.00  0.00    +0.000 A 
ATOM     10  C   UNL A   1     -25.741  -1.030  30.554  0.00  0.00    +0.000 A 
ATOM     11  F   UNL A   1     -27.967   0.801  26.643  0.00  0.00    -0.204 F 
ENDROOT
BRANCH   6  12
ATOM     12  C   UNL A   1     -23.392   0.491  29.833  0.00  0.00    +0.297 C 
ATOM     13  N   UNL A   1     -22.218   0.531  29.237  0.00  0.00    -0.102 NA
ATOM     14  O   UNL A   1     -23.462   0.422  31.116  0.00  0.00    -0.264 OA
ENDBRANCH   6  12
TORSDOF 1
