REMARK  Name = No_585-gen_results/8p0m/2024-11-26-14-13-15/
REMARK  2 active torsions:
REMARK  status: ('A' for Active; 'I' for Inactive)
REMARK    1  A    between atoms: C_2  and  N_7
REMARK    2  A    between atoms: C_8  and  C_9
REMARK                            x       y       z     vdW  Elec       q    Type
REMARK                         _______ _______ _______ _____ _____    ______ ____
ROOT
ATOM      1  N   UNL A   1     -27.106   1.034  27.819  0.00  0.00    -0.218 NA
ATOM      2  C   UNL A   1     -26.261   1.329  26.904  0.00  0.00    +0.222 C 
ATOM      3  F   UNL A   1     -25.258   0.602  26.780  0.00  0.00    -0.183 F 
ENDROOT
BRANCH   1   5
ATOM      4  C   UNL A   1     -28.016  -0.814  28.878  0.00  0.00    +0.019 A 
ATOM      5  C   UNL A   1     -27.064  -0.119  28.608  0.00  0.00    +0.084 A 
ATOM      6  C   UNL A   1     -25.792  -0.430  29.076  0.00  0.00    +0.019 A 
ATOM      7  C   UNL A   1     -25.576  -1.565  29.936  0.00  0.00    +0.002 A 
ATOM      8  C   UNL A   1     -26.735  -2.300  30.217  0.00  0.00    +0.000 A 
ATOM      9  C   UNL A   1     -27.918  -1.954  29.763  0.00  0.00    +0.002 A 
ENDBRANCH   1   5
BRANCH   2  10
ATOM     10  C   UNL A   1     -26.317   2.469  26.123  0.00  0.00    +0.046 A 
ATOM     11  C   UNL A   1     -25.255   3.151  25.586  0.00  0.00    +0.004 A 
ATOM     12  C   UNL A   1     -27.578   2.993  25.653  0.00  0.00    +0.004 A 
ATOM     13  C   UNL A   1     -24.975   4.507  25.907  0.00  0.00    +0.000 A 
ATOM     14  C   UNL A   1     -26.108   5.303  26.271  0.00  0.00    +0.000 A 
ATOM     15  C   UNL A   1     -27.424   4.579  26.140  0.00  0.00    +0.000 A 
ENDBRANCH   2  10
TORSDOF 2
