MODEL 585
MODEL 1
REMARK VINA RESULT:    -6.844      0.000      0.000
REMARK INTER + INTRA:          -8.153
REMARK INTER:                  -7.644
REMARK INTRA:                  -0.509
REMARK UNBOUND:                -0.509
REMARK  Name = No_585-gen_results/8p0m/2024-11-26-14-13-15/
REMARK  2 active torsions:
REMARK  status: ('A' for Active; 'I' for Inactive)
REMARK    1  A    between atoms: C_2  and  N_7
REMARK    2  A    between atoms: C_8  and  C_9
REMARK                            x       y       z     vdW  Elec       q    Type
REMARK                         _______ _______ _______ _____ _____    ______ ____
ROOT
ATOM      1  N   UNL A   1     -24.282  -1.321  28.754  0.00  0.00    -0.218 NA
ATOM      2  C   UNL A   1     -24.609  -0.566  27.773  0.00  0.00    +0.222 C 
ATOM      3  F   UNL A   1     -25.351  -1.042  26.894  0.00  0.00    -0.183 F 
ENDROOT
BRANCH   1   5
ATOM      4  C   UNL A   1     -25.875  -2.832  29.491  0.00  0.00    +0.019 A 
ATOM      5  C   UNL A   1     -24.799  -2.597  28.991  0.00  0.00    +0.084 A 
ATOM      6  C   UNL A   1     -23.956  -3.626  28.587  0.00  0.00    +0.019 A 
ATOM      7  C   UNL A   1     -24.317  -5.005  28.793  0.00  0.00    +0.002 A 
ATOM      8  C   UNL A   1     -25.568  -5.185  29.399  0.00  0.00    +0.000 A 
ATOM      9  C   UNL A   1     -26.320  -4.178  29.778  0.00  0.00    +0.002 A 
ENDBRANCH   1   5
BRANCH   2  10
ATOM     10  C   UNL A   1     -24.097   0.699  27.552  0.00  0.00    +0.046 A 
ATOM     11  C   UNL A   1     -24.521   1.607  26.616  0.00  0.00    +0.004 A 
ATOM     12  C   UNL A   1     -23.107   1.270  28.436  0.00  0.00    +0.004 A 
ATOM     13  C   UNL A   1     -23.674   2.095  25.584  0.00  0.00    +0.000 A 
ATOM     14  C   UNL A   1     -22.277   2.126  25.895  0.00  0.00    +0.000 A 
ATOM     15  C   UNL A   1     -21.963   1.734  27.316  0.00  0.00    +0.000 A 
ENDBRANCH   2  10
TORSDOF 2
ENDMDL
ENDMDL
