REMARK  Name = No_586-gen_results/8p0m/2024-11-26-14-13-15/
REMARK  6 active torsions:
REMARK  status: ('A' for Active; 'I' for Inactive)
REMARK    1  A    between atoms: C_8  and  C_16
REMARK    2  A    between atoms: C_16  and  O_17
REMARK    3  A    between atoms: O_17  and  C_19
REMARK    4  A    between atoms: C_19  and  C_20
REMARK    5  A    between atoms: C_26  and  N_28
REMARK    6  A    between atoms: N_28  and  C_29
REMARK                            x       y       z     vdW  Elec       q    Type
REMARK                         _______ _______ _______ _____ _____    ______ ____
ROOT
ATOM      1  O   UNL A   1     -25.293   3.819  30.889  0.00  0.00    -0.435 OA
ENDROOT
BRANCH   1   2
ATOM      2  C   UNL A   1     -24.962   2.704  30.802  0.00  0.00    +0.342 C 
ATOM      3  O   UNL A   1     -24.088   2.009  31.632  0.00  0.00    -0.245 OA
BRANCH   2  11
ATOM      4  C   UNL A   1     -28.016  -0.814  28.878  0.00  0.00    +0.000 A 
ATOM      5  C   UNL A   1     -28.469  -0.785  29.829  0.00  0.00    +0.000 A 
ATOM      6  C   UNL A   1     -27.087   0.290  28.638  0.00  0.00    +0.001 A 
ATOM      7  C   UNL A   1     -26.252   0.411  27.422  0.00  0.00    +0.011 A 
ATOM      8  C   UNL A   1     -29.431  -1.931  30.271  0.00  0.00    +0.000 A 
ATOM      9  C   UNL A   1     -25.146   1.240  27.356  0.00  0.00    +0.058 A 
ATOM     10  C   UNL A   1     -24.781   1.984  28.503  0.00  0.00    +0.018 A 
ATOM     11  C   UNL A   1     -25.474   1.847  29.636  0.00  0.00    +0.076 A 
ATOM     12  C   UNL A   1     -26.503   1.002  29.769  0.00  0.00    +0.006 A 
ATOM     13  C   UNL A   1     -30.209  -1.927  31.383  0.00  0.00    +0.000 A 
ATOM     14  C   UNL A   1     -29.997  -0.876  32.319  0.00  0.00    +0.000 A 
ATOM     15  C   UNL A   1     -29.156   0.122  32.075  0.00  0.00    +0.000 A 
ATOM     16  C   UNL A   1     -28.467   0.198  30.956  0.00  0.00    +0.000 A 
ATOM     17  C   UNL A   1     -27.361   1.078  30.735  0.00  0.00    +0.000 A 
ATOM     18 CL   UNL A   1     -24.238   1.377  25.897  0.00  0.00    -0.082 Cl
ENDBRANCH   2  11
ENDBRANCH   1   2
BRANCH   1  19
ATOM     19  C   UNL A   1     -25.136   4.520  32.152  0.00  0.00    +0.293 C 
BRANCH  19  20
ATOM     20  C   UNL A   1     -24.672   5.864  31.965  0.00  0.00    +0.270 C 
ATOM     21  O   UNL A   1     -25.065   6.396  30.927  0.00  0.00    -0.271 OA
ATOM     22  N   UNL A   1     -23.543   6.334  32.651  0.00  0.00    -0.276 N 
ATOM     23  C   UNL A   1     -22.973   5.754  33.790  0.00  0.00    +0.095 C 
ATOM     24  C   UNL A   1     -23.659   7.833  32.771  0.00  0.00    +0.095 C 
ATOM     25  C   UNL A   1     -22.416   8.363  32.816  0.00  0.00    +0.043 C 
ATOM     26  C   UNL A   1     -21.726   8.114  34.153  0.00  0.00    +0.096 C 
ATOM     27  C   UNL A   1     -21.666   6.501  34.255  0.00  0.00    +0.043 C 
BRANCH  26  28
ATOM     28  N   UNL A   1     -20.402   8.622  34.347  0.00  0.00    -0.240 NA
BRANCH  28  29
ATOM     29  C   UNL A   1     -20.197   9.861  34.679  0.00  0.00    +0.061 A 
ATOM     30  C   UNL A   1     -21.199  10.775  34.896  0.00  0.00    +0.016 A 
ATOM     31  C   UNL A   1     -20.899  12.106  35.258  0.00  0.00    +0.001 A 
ATOM     32  C   UNL A   1     -19.038  10.537  33.919  0.00  0.00    -0.007 A 
ATOM     33  C   UNL A   1     -17.891   9.774  33.690  0.00  0.00    +0.032 C 
ATOM     34  C   UNL A   1     -19.861  12.697  34.475  0.00  0.00    -0.000 A 
ATOM     35  C   UNL A   1     -18.656  11.899  34.488  0.00  0.00    -0.003 A 
ENDBRANCH  28  29
ENDBRANCH  26  28
ENDBRANCH  19  20
ENDBRANCH   1  19
TORSDOF 6
