MODEL 586
MODEL 1
REMARK VINA RESULT:    -7.779      0.000      0.000
REMARK INTER + INTRA:         -12.105
REMARK INTER:                 -10.507
REMARK INTRA:                  -1.598
REMARK UNBOUND:                -1.598
REMARK  Name = No_586-gen_results/8p0m/2024-11-26-14-13-15/
REMARK  6 active torsions:
REMARK  status: ('A' for Active; 'I' for Inactive)
REMARK    1  A    between atoms: C_8  and  C_16
REMARK    2  A    between atoms: C_16  and  O_17
REMARK    3  A    between atoms: O_17  and  C_19
REMARK    4  A    between atoms: C_19  and  C_20
REMARK    5  A    between atoms: C_26  and  N_28
REMARK    6  A    between atoms: N_28  and  C_29
REMARK                            x       y       z     vdW  Elec       q    Type
REMARK                         _______ _______ _______ _____ _____    ______ ____
ROOT
ATOM      1  O   UNL A   1     -22.794  -0.492  29.461  0.00  0.00    -0.435 OA
ENDROOT
BRANCH   1   2
ATOM      2  C   UNL A   1     -23.248  -1.055  30.376  0.00  0.00    +0.342 C 
ATOM      3  O   UNL A   1     -22.847  -0.977  31.706  0.00  0.00    -0.245 OA
BRANCH   2  11
ATOM      4  C   UNL A   1     -28.026  -2.525  31.014  0.00  0.00    +0.000 A 
ATOM      5  C   UNL A   1     -28.144  -1.576  31.457  0.00  0.00    +0.000 A 
ATOM      6  C   UNL A   1     -26.766  -2.680  30.289  0.00  0.00    +0.001 A 
ATOM      7  C   UNL A   1     -26.324  -3.950  29.671  0.00  0.00    +0.011 A 
ATOM      8  C   UNL A   1     -29.402  -1.273  32.330  0.00  0.00    +0.000 A 
ATOM      9  C   UNL A   1     -25.011  -4.184  29.304  0.00  0.00    +0.058 A 
ATOM     10  C   UNL A   1     -24.044  -3.180  29.549  0.00  0.00    +0.018 A 
ATOM     11  C   UNL A   1     -24.397  -2.049  30.165  0.00  0.00    +0.076 A 
ATOM     12  C   UNL A   1     -25.638  -1.811  30.606  0.00  0.00    +0.006 A 
ATOM     13  C   UNL A   1     -29.760  -0.053  32.805  0.00  0.00    +0.000 A 
ATOM     14  C   UNL A   1     -28.820   1.004  32.652  0.00  0.00    +0.000 A 
ATOM     15  C   UNL A   1     -27.686   0.844  31.980  0.00  0.00    +0.000 A 
ATOM     16  C   UNL A   1     -27.363  -0.302  31.417  0.00  0.00    +0.000 A 
ATOM     17  C   UNL A   1     -26.064  -0.629  30.917  0.00  0.00    +0.000 A 
ATOM     18 CL   UNL A   1     -24.562  -5.665  28.544  0.00  0.00    -0.082 Cl
ENDBRANCH   2  11
ENDBRANCH   1   2
BRANCH   1  19
ATOM     19  C   UNL A   1     -23.284   0.832  29.115  0.00  0.00    +0.293 C 
BRANCH  19  20
ATOM     20  C   UNL A   1     -23.325   1.034  27.696  0.00  0.00    +0.270 C 
ATOM     21  O   UNL A   1     -22.354   1.639  27.242  0.00  0.00    -0.271 OA
ATOM     22  N   UNL A   1     -24.538   0.960  26.996  0.00  0.00    -0.276 N 
ATOM     23  C   UNL A   1     -25.718   0.366  27.459  0.00  0.00    +0.095 C 
ATOM     24  C   UNL A   1     -24.232   0.584  25.568  0.00  0.00    +0.095 C 
ATOM     25  C   UNL A   1     -25.190   1.103  24.767  0.00  0.00    +0.043 C 
ATOM     26  C   UNL A   1     -26.513   0.355  24.885  0.00  0.00    +0.096 C 
ATOM     27  C   UNL A   1     -26.911   0.530  26.443  0.00  0.00    +0.043 C 
BRANCH  26  28
ATOM     28  N   UNL A   1     -27.621   0.792  24.091  0.00  0.00    -0.240 NA
BRANCH  28  29
ATOM     29  C   UNL A   1     -28.769   0.187  24.144  0.00  0.00    +0.061 A 
ATOM     30  C   UNL A   1     -28.970  -1.117  23.762  0.00  0.00    +0.016 A 
ATOM     31  C   UNL A   1     -30.248  -1.709  23.852  0.00  0.00    +0.001 A 
ATOM     32  C   UNL A   1     -29.962   1.049  23.683  0.00  0.00    -0.007 A 
ATOM     33  C   UNL A   1     -29.967   2.392  24.065  0.00  0.00    +0.032 C 
ATOM     34  C   UNL A   1     -31.302  -0.886  23.350  0.00  0.00    -0.000 A 
ATOM     35  C   UNL A   1     -31.316   0.415  23.980  0.00  0.00    -0.003 A 
ENDBRANCH  28  29
ENDBRANCH  26  28
ENDBRANCH  19  20
ENDBRANCH   1  19
TORSDOF 6
ENDMDL
ENDMDL
