REMARK  Name = No_587-gen_results/8p0m/2024-11-26-14-13-15/
REMARK  8 active torsions:
REMARK  status: ('A' for Active; 'I' for Inactive)
REMARK    1  A    between atoms: C_3  and  O_13
REMARK    2  A    between atoms: C_5  and  C_8
REMARK    3  A    between atoms: C_7  and  C_21
REMARK    4  A    between atoms: C_8  and  C_9
REMARK    5  A    between atoms: O_13  and  C_14
REMARK    6  A    between atoms: C_21  and  O_23
REMARK    7  A    between atoms: O_23  and  C_25
REMARK    8  A    between atoms: C_25  and  C_26
REMARK                            x       y       z     vdW  Elec       q    Type
REMARK                         _______ _______ _______ _____ _____    ______ ____
ROOT
ATOM      1 CL   UNL A   1     -28.149  -0.820  28.908  0.00  0.00    -0.079 Cl
ATOM      2  C   UNL A   1     -27.834   0.496  29.060  0.00  0.00    +0.098 A 
ATOM      3  C   UNL A   1     -27.514   1.238  28.049  0.00  0.00    +0.156 A 
ATOM      4  C   UNL A   1     -27.055   2.625  28.133  0.00  0.00    +0.034 A 
ATOM      5  C   UNL A   1     -26.944   3.184  29.430  0.00  0.00    -0.010 A 
ATOM      6  C   UNL A   1     -27.221   2.358  30.512  0.00  0.00    +0.004 A 
ATOM      7  C   UNL A   1     -27.599   1.059  30.370  0.00  0.00    +0.089 A 
ENDROOT
BRANCH   7   8
ATOM      8  C   UNL A   1     -27.893   0.269  31.587  0.00  0.00    +0.343 C 
ATOM      9  O   UNL A   1     -27.787   0.478  32.559  0.00  0.00    -0.245 OA
BRANCH   8  10
ATOM     10  O   UNL A   1     -28.561  -0.940  31.218  0.00  0.00    -0.433 OA
BRANCH  10  11
ATOM     11  C   UNL A   1     -28.530  -1.877  31.664  0.00  0.00    +0.322 C 
BRANCH  11  12
ATOM     12  C   UNL A   1     -28.816  -3.081  30.806  0.00  0.00    +0.409 C 
ATOM     13  O   UNL A   1     -28.196  -4.119  31.018  0.00  0.00    -0.241 OA
ATOM     14  O   UNL A   1     -29.738  -3.095  29.949  0.00  0.00    -0.241 OA
ENDBRANCH  11  12
ENDBRANCH  10  11
ENDBRANCH   8  10
ENDBRANCH   7   8
BRANCH   5  15
ATOM     15  C   UNL A   1     -26.478   4.561  29.589  0.00  0.00    +0.130 C 
BRANCH  15  16
ATOM     16  C   UNL A   1     -25.821   4.888  30.675  0.00  0.00    +0.402 C 
ATOM     17  F   UNL A   1     -25.478   6.164  30.780  0.00  0.00    -0.170 F 
ATOM     18  F   UNL A   1     -26.514   4.625  31.861  0.00  0.00    -0.170 F 
ATOM     19  F   UNL A   1     -24.671   4.159  30.818  0.00  0.00    -0.170 F 
ENDBRANCH  15  16
ENDBRANCH   5  15
BRANCH   3  20
ATOM     20  O   UNL A   1     -27.639   0.790  26.796  0.00  0.00    -0.449 OA
BRANCH  20  21
ATOM     21  C   UNL A   1     -28.659   0.963  26.051  0.00  0.00    +0.186 A 
ATOM     22  C   UNL A   1     -28.517   0.452  24.741  0.00  0.00    +0.232 A 
ATOM     23  C   UNL A   1     -29.795   1.569  26.364  0.00  0.00    +0.073 A 
ATOM     24  C   UNL A   1     -30.849   1.747  25.502  0.00  0.00    +0.171 A 
ATOM     25  C   UNL A   1     -29.597   0.539  23.824  0.00  0.00    +0.077 A 
ATOM     26  C   UNL A   1     -30.694   1.236  24.186  0.00  0.00    +0.171 A 
ATOM     27  F   UNL A   1     -31.682   1.356  23.337  0.00  0.00    -0.202 F 
ATOM     28  O   UNL A   1     -27.397  -0.185  24.384  0.00  0.00    -0.283 OA
ATOM     29  F   UNL A   1     -31.972   2.401  25.760  0.00  0.00    -0.202 F 
ENDBRANCH  20  21
ENDBRANCH   3  20
TORSDOF 8
