MODEL 587
MODEL 1
REMARK VINA RESULT:    -6.440      0.000      0.000
REMARK INTER + INTRA:         -10.841
REMARK INTER:                  -9.451
REMARK INTRA:                  -1.390
REMARK UNBOUND:                -1.390
REMARK  Name = No_587-gen_results/8p0m/2024-11-26-14-13-15/
REMARK  8 active torsions:
REMARK  status: ('A' for Active; 'I' for Inactive)
REMARK    1  A    between atoms: C_3  and  O_13
REMARK    2  A    between atoms: C_5  and  C_8
REMARK    3  A    between atoms: C_7  and  C_21
REMARK    4  A    between atoms: C_8  and  C_9
REMARK    5  A    between atoms: O_13  and  C_14
REMARK    6  A    between atoms: C_21  and  O_23
REMARK    7  A    between atoms: O_23  and  C_25
REMARK    8  A    between atoms: C_25  and  C_26
REMARK                            x       y       z     vdW  Elec       q    Type
REMARK                         _______ _______ _______ _____ _____    ______ ____
ROOT
ATOM      1 CL   UNL A   1     -27.797  -0.374  28.726  0.00  0.00    -0.079 Cl
ATOM      2  C   UNL A   1     -26.811   0.111  27.922  0.00  0.00    +0.098 A 
ATOM      3  C   UNL A   1     -27.077   0.861  26.901  0.00  0.00    +0.156 A 
ATOM      4  C   UNL A   1     -26.095   1.332  25.923  0.00  0.00    +0.034 A 
ATOM      5  C   UNL A   1     -24.754   0.917  26.112  0.00  0.00    -0.010 A 
ATOM      6  C   UNL A   1     -24.491   0.055  27.169  0.00  0.00    +0.004 A 
ATOM      7  C   UNL A   1     -25.458  -0.386  28.019  0.00  0.00    +0.089 A 
ENDROOT
BRANCH   7   8
ATOM      8  C   UNL A   1     -25.070  -1.286  29.128  0.00  0.00    +0.343 C 
ATOM      9  O   UNL A   1     -25.042  -1.150  30.118  0.00  0.00    -0.245 OA
BRANCH   8  10
ATOM     10  O   UNL A   1     -24.830  -2.598  28.613  0.00  0.00    -0.433 OA
BRANCH  10  11
ATOM     11  C   UNL A   1     -24.438  -3.435  29.087  0.00  0.00    +0.322 C 
BRANCH  11  12
ATOM     12  C   UNL A   1     -25.341  -4.622  29.291  0.00  0.00    +0.409 C 
ATOM     13  O   UNL A   1     -24.871  -5.750  29.174  0.00  0.00    -0.241 OA
ATOM     14  O   UNL A   1     -26.533  -4.505  29.678  0.00  0.00    -0.241 OA
ENDBRANCH  11  12
ENDBRANCH  10  11
ENDBRANCH   8  10
ENDBRANCH   7   8
BRANCH   5  15
ATOM     15  C   UNL A   1     -23.723   1.340  25.165  0.00  0.00    +0.130 C 
BRANCH  15  16
ATOM     16  C   UNL A   1     -22.995   2.392  25.446  0.00  0.00    +0.402 C 
ATOM     17  F   UNL A   1     -23.661   3.522  25.634  0.00  0.00    -0.170 F 
ATOM     18  F   UNL A   1     -22.223   2.258  26.605  0.00  0.00    -0.170 F 
ATOM     19  F   UNL A   1     -22.060   2.643  24.477  0.00  0.00    -0.170 F 
ENDBRANCH  15  16
ENDBRANCH   5  15
BRANCH   3  20
ATOM     20  O   UNL A   1     -28.311   1.326  26.688  0.00  0.00    -0.449 OA
BRANCH  20  21
ATOM     21  C   UNL A   1     -28.975   1.184  25.609  0.00  0.00    +0.186 A 
ATOM     22  C   UNL A   1     -29.408   2.397  25.026  0.00  0.00    +0.232 A 
ATOM     23  C   UNL A   1     -29.306   0.051  25.007  0.00  0.00    +0.073 A 
ATOM     24  C   UNL A   1     -30.050  -0.035  23.856  0.00  0.00    +0.171 A 
ATOM     25  C   UNL A   1     -30.118   2.381  23.798  0.00  0.00    +0.077 A 
ATOM     26  C   UNL A   1     -30.486   1.189  23.282  0.00  0.00    +0.171 A 
ATOM     27  F   UNL A   1     -31.174   1.160  22.170  0.00  0.00    -0.202 F 
ATOM     28  O   UNL A   1     -29.082   3.567  25.586  0.00  0.00    -0.283 OA
ATOM     29  F   UNL A   1     -30.452  -1.149  23.262  0.00  0.00    -0.202 F 
ENDBRANCH  20  21
ENDBRANCH   3  20
TORSDOF 8
ENDMDL
ENDMDL
