MODEL 588
MODEL 1
REMARK VINA RESULT:    -7.212      0.000      0.000
REMARK INTER + INTRA:         -11.492
REMARK INTER:                  -9.742
REMARK INTRA:                  -1.750
REMARK UNBOUND:                -1.750
REMARK  Name = No_588-gen_results/8p0m/2024-11-26-14-13-15/
REMARK  6 active torsions:
REMARK  status: ('A' for Active; 'I' for Inactive)
REMARK    1  A    between atoms: C_2  and  C_3
REMARK    2  A    between atoms: C_3  and  C_5
REMARK    3  A    between atoms: C_3  and  C_21
REMARK    4  A    between atoms: N_4  and  C_11
REMARK    5  A    between atoms: N_4  and  C_20
REMARK    6  A    between atoms: C_13  and  C_17
REMARK                            x       y       z     vdW  Elec       q    Type
REMARK                         _______ _______ _______ _____ _____    ______ ____
ROOT
ATOM      1  O   UNL A   1     -25.700   2.667  27.589  0.00  0.00    -0.274 OA
ATOM      2  C   UNL A   1     -25.485   1.677  28.139  0.00  0.00    +0.241 C 
ATOM      3  N   UNL A   1     -26.288   0.474  27.947  0.00  0.00    -0.237 N 
ENDROOT
BRANCH   3   4
ATOM      4  C   UNL A   1     -26.222  -0.733  28.702  0.00  0.00    +0.058 A 
ATOM      5  C   UNL A   1     -25.539  -1.618  28.462  0.00  0.00    +0.019 A 
ATOM      6  C   UNL A   1     -25.538  -2.878  29.245  0.00  0.00    +0.051 A 
ATOM      7  C   UNL A   1     -26.509  -2.983  30.259  0.00  0.00    +0.004 A 
ATOM      8  C   UNL A   1     -27.396  -1.912  30.492  0.00  0.00    +0.001 A 
ATOM      9  C   UNL A   1     -27.310  -0.759  29.710  0.00  0.00    +0.015 A 
BRANCH   6  10
ATOM     10  C   UNL A   1     -24.677  -4.022  28.980  0.00  0.00    +0.254 C 
ATOM     11 CL   UNL A   1     -25.168  -5.466  29.109  0.00  0.00    -0.038 Cl
ATOM     12  O   UNL A   1     -23.439  -3.786  28.512  0.00  0.00    -0.274 OA
ENDBRANCH   6  10
ENDBRANCH   3   4
BRANCH   3  13
ATOM     13  C   UNL A   1     -26.931   0.438  26.618  0.00  0.00    +0.058 A 
ATOM     14  C   UNL A   1     -25.919   0.111  25.637  0.00  0.00    +0.015 A 
ATOM     15  C   UNL A   1     -26.359  -0.014  24.462  0.00  0.00    +0.001 A 
ATOM     16  C   UNL A   1     -27.739   0.085  24.142  0.00  0.00    +0.000 A 
ATOM     17  C   UNL A   1     -28.663   0.333  25.133  0.00  0.00    +0.001 A 
ATOM     18  C   UNL A   1     -28.219   0.533  26.435  0.00  0.00    +0.015 A 
ENDBRANCH   3  13
BRANCH   2  19
ATOM     19  C   UNL A   1     -24.606   1.618  29.201  0.00  0.00    +0.121 C 
BRANCH  19  20
ATOM     20  C   UNL A   1     -23.296   1.191  28.949  0.00  0.00    -0.010 A 
ATOM     21  C   UNL A   1     -22.685   0.169  29.450  0.00  0.00    -0.004 A 
ATOM     22  C   UNL A   1     -21.374  -0.272  29.125  0.00  0.00    -0.000 A 
ATOM     23  C   UNL A   1     -20.738   0.424  28.119  0.00  0.00    -0.000 A 
ATOM     24  C   UNL A   1     -21.276   1.544  27.459  0.00  0.00    -0.000 A 
ATOM     25  C   UNL A   1     -22.582   1.930  27.889  0.00  0.00    -0.004 A 
ENDBRANCH  19  20
BRANCH  19  26
ATOM     26  C   UNL A   1     -24.962   2.220  30.449  0.00  0.00    -0.013 C 
ATOM     27  C   UNL A   1     -24.899   1.403  31.575  0.00  0.00    -0.004 C 
ENDBRANCH  19  26
ENDBRANCH   2  19
TORSDOF 6
ENDMDL
ENDMDL
