REMARK  Name = No_589-gen_results/8p0m/2024-11-26-14-13-15/
REMARK  8 active torsions:
REMARK  status: ('A' for Active; 'I' for Inactive)
REMARK    1  A    between atoms: C_1  and  C_2
REMARK    2  A    between atoms: C_1  and  N_8
REMARK    3  A    between atoms: C_5  and  C_13
REMARK    4  A    between atoms: N_8  and  C_9
REMARK    5  A    between atoms: C_9  and  C_10
REMARK    6  A    between atoms: C_10  and  C_11
REMARK    7  A    between atoms: C_10  and  O_18
REMARK    8  A    between atoms: O_18  and  C_19
REMARK                            x       y       z     vdW  Elec       q    Type
REMARK                         _______ _______ _______ _____ _____    ______ ____
ROOT
ATOM      1  C   UNL A   1     -28.016  -0.814  28.878  0.00  0.00    +0.115 C 
ENDROOT
BRANCH   1   2
ATOM      2  C   UNL A   1     -27.064  -0.119  28.608  0.00  0.00    -0.005 A 
ATOM      3  C   UNL A   1     -26.929   1.171  29.008  0.00  0.00    -0.003 A 
ATOM      4  C   UNL A   1     -25.770   2.034  28.688  0.00  0.00    +0.004 A 
ATOM      5  C   UNL A   1     -24.714   1.443  27.919  0.00  0.00    +0.071 A 
ATOM      6  C   UNL A   1     -24.859   0.078  27.584  0.00  0.00    +0.004 A 
ATOM      7  C   UNL A   1     -25.965  -0.661  27.916  0.00  0.00    -0.003 A 
BRANCH   5   8
ATOM      8  C   UNL A   1     -23.538   2.166  27.564  0.00  0.00    +0.419 C 
ATOM      9  F   UNL A   1     -22.677   1.639  27.162  0.00  0.00    -0.166 F 
ATOM     10  F   UNL A   1     -23.090   2.894  28.676  0.00  0.00    -0.166 F 
ATOM     11  F   UNL A   1     -23.940   3.212  26.728  0.00  0.00    -0.166 F 
ENDBRANCH   5   8
ENDBRANCH   1   2
BRANCH   1  12
ATOM     12  N   UNL A   1     -28.700  -0.644  30.077  0.00  0.00    -0.209 NA
BRANCH  12  13
ATOM     13  C   UNL A   1     -29.803  -1.365  30.506  0.00  0.00    +0.144 C 
BRANCH  13  14
ATOM     14  C   UNL A   1     -30.375  -2.179  29.745  0.00  0.00    +0.286 C 
BRANCH  14  15
ATOM     15  C   UNL A   1     -30.458  -3.517  30.221  0.00  0.00    +0.406 C 
ATOM     16  O   UNL A   1     -31.029  -4.415  29.431  0.00  0.00    -0.242 OA
ATOM     17  O   UNL A   1     -29.532  -4.048  31.063  0.00  0.00    -0.242 OA
ENDBRANCH  14  15
BRANCH  14  18
ATOM     18  O   UNL A   1     -31.670  -1.782  29.500  0.00  0.00    -0.454 OA
BRANCH  18  19
ATOM     19  C   UNL A   1     -31.800  -0.642  28.745  0.00  0.00    +0.259 C 
ATOM     20  C   UNL A   1     -32.082  -0.831  27.475  0.00  0.00    +0.175 C 
ATOM     21  O   UNL A   1     -32.540  -1.815  27.106  0.00  0.00    -0.228 OA
ENDBRANCH  18  19
ENDBRANCH  14  18
ENDBRANCH  13  14
ENDBRANCH  12  13
ENDBRANCH   1  12
TORSDOF 8
