MODEL 589
MODEL 1
REMARK VINA RESULT:    -6.057      0.000      0.000
REMARK INTER + INTRA:          -9.632
REMARK INTER:                  -8.890
REMARK INTRA:                  -0.742
REMARK UNBOUND:                -0.742
REMARK  Name = No_589-gen_results/8p0m/2024-11-26-14-13-15/
REMARK  8 active torsions:
REMARK  status: ('A' for Active; 'I' for Inactive)
REMARK    1  A    between atoms: C_1  and  C_2
REMARK    2  A    between atoms: C_1  and  N_8
REMARK    3  A    between atoms: C_5  and  C_13
REMARK    4  A    between atoms: N_8  and  C_9
REMARK    5  A    between atoms: C_9  and  C_10
REMARK    6  A    between atoms: C_10  and  C_11
REMARK    7  A    between atoms: C_10  and  O_18
REMARK    8  A    between atoms: O_18  and  C_19
REMARK                            x       y       z     vdW  Elec       q    Type
REMARK                         _______ _______ _______ _____ _____    ______ ____
ROOT
ATOM      1  C   UNL A   1     -30.226  -9.633  31.584  0.00  0.00    +0.115 C 
ENDROOT
BRANCH   1   2
ATOM      2  C   UNL A   1     -30.145 -10.137  30.488  0.00  0.00    -0.005 A 
ATOM      3  C   UNL A   1     -30.896  -9.760  29.422  0.00  0.00    -0.003 A 
ATOM      4  C   UNL A   1     -30.808 -10.365  28.074  0.00  0.00    +0.004 A 
ATOM      5  C   UNL A   1     -29.840 -11.408  27.893  0.00  0.00    +0.071 A 
ATOM      6  C   UNL A   1     -29.029 -11.721  29.007  0.00  0.00    +0.004 A 
ATOM      7  C   UNL A   1     -29.168 -11.116  30.229  0.00  0.00    -0.003 A 
BRANCH   5   8
ATOM      8  C   UNL A   1     -29.648 -12.054  26.638  0.00  0.00    +0.419 C 
ATOM      9  F   UNL A   1     -30.451 -12.640  26.200  0.00  0.00    -0.166 F 
ATOM     10  F   UNL A   1     -28.527 -12.894  26.718  0.00  0.00    -0.166 F 
ATOM     11  F   UNL A   1     -29.170 -11.086  25.750  0.00  0.00    -0.166 F 
ENDBRANCH   5   8
ENDBRANCH   1   2
BRANCH   1  12
ATOM     12  N   UNL A   1     -29.121  -9.590  32.427  0.00  0.00    -0.209 NA
BRANCH  12  13
ATOM     13  C   UNL A   1     -29.031 -10.139  33.696  0.00  0.00    +0.144 C 
BRANCH  13  14
ATOM     14  C   UNL A   1     -28.662 -11.325  33.859  0.00  0.00    +0.286 C 
BRANCH  14  15
ATOM     15  C   UNL A   1     -27.258 -11.527  33.963  0.00  0.00    +0.406 C 
ATOM     16  O   UNL A   1     -26.579 -10.718  34.765  0.00  0.00    -0.242 OA
ATOM     17  O   UNL A   1     -26.687 -12.753  33.822  0.00  0.00    -0.242 OA
ENDBRANCH  14  15
BRANCH  14  18
ATOM     18  O   UNL A   1     -29.207 -11.847  35.010  0.00  0.00    -0.454 OA
BRANCH  18  19
ATOM     19  C   UNL A   1     -30.091 -12.881  34.823  0.00  0.00    +0.259 C 
ATOM     20  C   UNL A   1     -30.114 -13.788  35.774  0.00  0.00    +0.175 C 
ATOM     21  O   UNL A   1     -29.717 -13.559  36.825  0.00  0.00    -0.228 OA
ENDBRANCH  18  19
ENDBRANCH  14  18
ENDBRANCH  13  14
ENDBRANCH  12  13
ENDBRANCH   1  12
TORSDOF 8
ENDMDL
ENDMDL
