MODEL 58
MODEL 1
REMARK VINA RESULT:    -4.864      0.000      0.000
REMARK INTER + INTRA:          -5.190
REMARK INTER:                  -5.148
REMARK INTRA:                  -0.042
REMARK UNBOUND:                -0.042
REMARK  Name = No_58-gen_results/8p0m/2024-11-26-14-13-15/
REMARK  1 active torsions:
REMARK  status: ('A' for Active; 'I' for Inactive)
REMARK    1  A    between atoms: C_1  and  C_8
REMARK                            x       y       z     vdW  Elec       q    Type
REMARK                         _______ _______ _______ _____ _____    ______ ____
ROOT
ATOM      1  C   UNL A   1     -23.371  -1.893  28.931  0.00  0.00    -0.014 C 
ATOM      2  C   UNL A   1     -24.171  -2.770  29.162  0.00  0.00    -0.047 C 
ATOM      3  C   UNL A   1     -23.996  -4.109  28.858  0.00  0.00    +0.022 C 
ATOM      4  C   UNL A   1     -24.965  -5.162  29.048  0.00  0.00    +0.004 C 
ATOM      5  C   UNL A   1     -26.224  -4.831  29.601  0.00  0.00    +0.001 C 
ATOM      6  C   UNL A   1     -26.467  -3.474  29.938  0.00  0.00    +0.004 C 
ATOM      7  C   UNL A   1     -25.500  -2.549  29.694  0.00  0.00    +0.022 C 
ENDROOT
BRANCH   1   8
ATOM      8  C   UNL A   1     -23.613  -0.507  29.458  0.00  0.00    +0.135 C 
ATOM      9  N   UNL A   1     -22.654   0.204  30.026  0.00  0.00    -0.126 NA
ENDBRANCH   1   8
TORSDOF 1
ENDMDL
ENDMDL
