REMARK  Name = No_59-gen_results/8p0m/2024-11-26-14-13-15/
REMARK  7 active torsions:
REMARK  status: ('A' for Active; 'I' for Inactive)
REMARK    1  A    between atoms: C_3  and  C_8
REMARK    2  A    between atoms: C_6  and  O_7
REMARK    3  A    between atoms: O_7  and  C_14
REMARK    4  A    between atoms: C_14  and  C_15
REMARK    5  A    between atoms: N_17  and  C_18
REMARK    6  A    between atoms: C_19  and  C_20
REMARK    7  A    between atoms: C_21  and  C_22
REMARK                            x       y       z     vdW  Elec       q    Type
REMARK                         _______ _______ _______ _____ _____    ______ ____
ROOT
ATOM      1  C   UNL A   1     -28.016  -0.814  28.878  0.00  0.00    +0.037 A 
ATOM      2  C   UNL A   1     -27.064  -0.119  28.608  0.00  0.00    +0.003 A 
ATOM      3  C   UNL A   1     -25.792  -0.430  29.076  0.00  0.00    +0.000 A 
ATOM      4  C   UNL A   1     -25.576  -1.565  29.936  0.00  0.00    +0.003 A 
ATOM      5  C   UNL A   1     -26.735  -2.300  30.217  0.00  0.00    +0.037 A 
ATOM      6  C   UNL A   1     -27.918  -1.954  29.763  0.00  0.00    +0.139 A 
ENDROOT
BRANCH   3   7
ATOM      7  C   UNL A   1     -24.529   0.349  28.800  0.00  0.00    +0.000 A 
ATOM      8  C   UNL A   1     -23.344   0.006  29.166  0.00  0.00    +0.000 A 
ATOM      9  C   UNL A   1     -22.178   0.781  28.778  0.00  0.00    +0.000 A 
ATOM     10  C   UNL A   1     -22.322   1.750  27.773  0.00  0.00    +0.000 A 
ATOM     11  C   UNL A   1     -24.610   1.356  27.748  0.00  0.00    +0.000 A 
ATOM     12  C   UNL A   1     -23.515   2.034  27.307  0.00  0.00    +0.000 A 
ENDBRANCH   3   7
BRANCH   6  13
ATOM     13  O   UNL A   1     -29.000  -2.701  30.115  0.00  0.00    -0.466 OA
BRANCH  13  14
ATOM     14  C   UNL A   1     -28.877  -3.964  30.608  0.00  0.00    +0.291 C 
BRANCH  14  15
ATOM     15  C   UNL A   1     -30.123  -4.675  30.770  0.00  0.00    +0.290 C 
ATOM     16  O   UNL A   1     -30.000  -5.688  31.423  0.00  0.00    -0.269 OA
ATOM     17  N   UNL A   1     -31.191  -4.386  30.130  0.00  0.00    -0.175 NA
BRANCH  17  18
ATOM     18  C   UNL A   1     -32.366  -5.185  30.168  0.00  0.00    +0.089 C 
ATOM     19  C   UNL A   1     -33.124  -4.946  29.172  0.00  0.00    +0.018 C 
BRANCH  19  20
ATOM     20  C   UNL A   1     -33.934  -5.458  28.599  0.00  0.00    +0.001 C 
ATOM     21  C   UNL A   1     -34.733  -5.079  27.345  0.00  0.00    +0.000 C 
BRANCH  21  22
ATOM     22  C   UNL A   1     -34.344  -3.849  26.773  0.00  0.00    +0.000 C 
ATOM     23  C   UNL A   1     -33.296  -3.145  27.271  0.00  0.00    +0.000 C 
ENDBRANCH  21  22
ENDBRANCH  19  20
ENDBRANCH  17  18
ENDBRANCH  14  15
ENDBRANCH  13  14
ENDBRANCH   6  13
TORSDOF 7
