REMARK  Name = No_590-gen_results/8p0m/2024-11-26-14-13-15/
REMARK  3 active torsions:
REMARK  status: ('A' for Active; 'I' for Inactive)
REMARK    1  A    between atoms: C_3  and  C_8
REMARK    2  A    between atoms: N_18  and  C_19
REMARK    3  A    between atoms: C_19  and  C_20
REMARK                            x       y       z     vdW  Elec       q    Type
REMARK                         _______ _______ _______ _____ _____    ______ ____
ROOT
ATOM      1  C   UNL A   1     -24.522   0.405  28.721  0.00  0.00    +0.046 A 
ATOM      2  C   UNL A   1     -24.519   1.280  27.714  0.00  0.00    +0.227 A 
ATOM      3  C   UNL A   1     -23.309   1.975  27.389  0.00  0.00    +0.182 A 
ATOM      4  C   UNL A   1     -22.114   1.746  28.001  0.00  0.00    +0.041 A 
ATOM      5  C   UNL A   1     -23.268   0.137  29.369  0.00  0.00    +0.004 A 
ATOM      6  C   UNL A   1     -22.083   0.818  29.013  0.00  0.00    +0.003 A 
ATOM      7  O   UNL A   1     -23.381   2.901  26.360  0.00  0.00    -0.459 OA
ATOM      8  C   UNL A   1     -24.270   2.451  25.390  0.00  0.00    +0.326 C 
ATOM      9  N   UNL A   1     -25.453   1.446  26.851  0.00  0.00    -0.034 NA
ATOM     10  C   UNL A   1     -25.384   2.048  25.674  0.00  0.00    +0.382 C 
ATOM     11  N   UNL A   1     -26.433   2.022  24.854  0.00  0.00    -0.027 NA
ENDROOT
BRANCH   1  14
ATOM     12  C   UNL A   1     -28.016  -0.814  28.878  0.00  0.00    +0.011 A 
ATOM     13  C   UNL A   1     -27.064  -0.119  28.608  0.00  0.00    +0.001 A 
ATOM     14  C   UNL A   1     -25.765  -0.390  29.036  0.00  0.00    +0.004 A 
ATOM     15  C   UNL A   1     -25.530  -1.530  29.901  0.00  0.00    +0.001 A 
ATOM     16  C   UNL A   1     -26.689  -2.289  30.181  0.00  0.00    +0.011 A 
ATOM     17  C   UNL A   1     -27.873  -1.951  29.737  0.00  0.00    +0.058 A 
ATOM     18 CL   UNL A   1     -29.293  -2.768  30.152  0.00  0.00    -0.082 Cl
ENDBRANCH   1  14
BRANCH  11  19
ATOM     19  C   UNL A   1     -27.567   2.676  25.103  0.00  0.00    +0.278 C 
BRANCH  19  20
ATOM     20  C   UNL A   1     -28.788   2.160  25.148  0.00  0.00    +0.029 A 
ATOM     21  C   UNL A   1     -29.019   0.839  24.852  0.00  0.00    -0.000 A 
ATOM     22  C   UNL A   1     -30.255   0.172  24.915  0.00  0.00    -0.000 A 
ATOM     23  C   UNL A   1     -31.343   0.938  25.290  0.00  0.00    -0.000 A 
ATOM     24  C   UNL A   1     -31.252   2.290  25.555  0.00  0.00    -0.000 A 
ATOM     25  C   UNL A   1     -29.991   2.953  25.517  0.00  0.00    -0.000 A 
ENDBRANCH  19  20
ENDBRANCH  11  19
TORSDOF 3
