REMARK  Name = No_591-gen_results/8p0m/2024-11-26-14-13-15/
REMARK  3 active torsions:
REMARK  status: ('A' for Active; 'I' for Inactive)
REMARK    1  A    between atoms: C_2  and  C_3
REMARK    2  A    between atoms: C_3  and  C_5
REMARK    3  A    between atoms: C_5  and  C_6
REMARK                            x       y       z     vdW  Elec       q    Type
REMARK                         _______ _______ _______ _____ _____    ______ ____
ROOT
ATOM      1  O   UNL A   1     -28.123  -1.335  28.487  0.00  0.00    -0.275 OA
ATOM      2  C   UNL A   1     -28.521  -0.436  29.078  0.00  0.00    +0.230 C 
ATOM      3  N   UNL A   1     -29.375  -0.943  30.266  0.00  0.00    -0.255 N 
ATOM      4  C   UNL A   1     -29.610  -2.186  30.665  0.00  0.00    +0.055 A 
ATOM      5  C   UNL A   1     -30.386  -2.848  30.553  0.00  0.00    +0.055 A 
ATOM      6  C   UNL A   1     -30.451  -4.334  30.891  0.00  0.00    +0.140 A 
ATOM      7  C   UNL A   1     -29.239  -4.914  31.332  0.00  0.00    +0.029 A 
ATOM      8  C   UNL A   1     -28.107  -4.152  31.206  0.00  0.00    +0.004 A 
ATOM      9  C   UNL A   1     -28.147  -2.779  30.884  0.00  0.00    +0.015 A 
ATOM     10  C   UNL A   1     -30.426   0.044  30.613  0.00  0.00    +0.124 C 
ATOM     11  C   UNL A   1     -30.771  -0.193  31.878  0.00  0.00    -0.003 A 
ATOM     12  C   UNL A   1     -31.168   0.465  32.706  0.00  0.00    -0.003 A 
ATOM     13  C   UNL A   1     -31.620   0.106  34.075  0.00  0.00    -0.001 A 
ATOM     14  C   UNL A   1     -31.485  -1.213  34.411  0.00  0.00    -0.004 A 
ATOM     15  C   UNL A   1     -30.957  -2.081  33.523  0.00  0.00    -0.023 A 
ATOM     16  C   UNL A   1     -30.571  -1.614  32.309  0.00  0.00    +0.008 A 
ATOM     17  C   UNL A   1     -30.342  -2.596  31.566  0.00  0.00    +0.208 C 
ATOM     18  F   UNL A   1     -30.950  -3.526  32.496  0.00  0.00    -0.227 F 
ATOM     19  F   UNL A   1     -31.271  -5.065  30.511  0.00  0.00    -0.204 F 
ATOM     20  C   UNL A   1     -29.900  -2.498  34.525  0.00  0.00    +0.031 C 
ENDROOT
BRANCH   2  21
ATOM     21  C   UNL A   1     -28.589   0.592  28.946  0.00  0.00    +0.090 C 
BRANCH  21  22
ATOM     22  C   UNL A   1     -27.582   1.265  28.148  0.00  0.00    +0.036 C 
BRANCH  22  23
ATOM     23  C   UNL A   1     -26.274   1.047  28.573  0.00  0.00    -0.022 A 
ATOM     24  C   UNL A   1     -25.158   1.027  27.754  0.00  0.00    -0.004 A 
ATOM     25  C   UNL A   1     -23.925   0.538  28.214  0.00  0.00    -0.000 A 
ATOM     26  C   UNL A   1     -23.821  -0.062  29.504  0.00  0.00    -0.000 A 
ATOM     27  C   UNL A   1     -24.907  -0.115  30.274  0.00  0.00    -0.000 A 
ATOM     28  C   UNL A   1     -26.111   0.339  29.846  0.00  0.00    -0.004 A 
ENDBRANCH  22  23
ENDBRANCH  21  22
ENDBRANCH   2  21
TORSDOF 3
