MODEL 591
MODEL 1
REMARK VINA RESULT:    -7.870      0.000      0.000
REMARK INTER + INTRA:          -9.642
REMARK INTER:                  -9.250
REMARK INTRA:                  -0.392
REMARK UNBOUND:                -0.392
REMARK  Name = No_591-gen_results/8p0m/2024-11-26-14-13-15/
REMARK  3 active torsions:
REMARK  status: ('A' for Active; 'I' for Inactive)
REMARK    1  A    between atoms: C_2  and  C_3
REMARK    2  A    between atoms: C_3  and  C_5
REMARK    3  A    between atoms: C_5  and  C_6
REMARK                            x       y       z     vdW  Elec       q    Type
REMARK                         _______ _______ _______ _____ _____    ______ ____
ROOT
ATOM      1  O   UNL A   1     -30.445 -12.157   8.454  0.00  0.00    -0.275 OA
ATOM      2  C   UNL A   1     -31.316 -11.640   8.994  0.00  0.00    +0.230 C 
ATOM      3  N   UNL A   1     -30.897 -10.199   9.374  0.00  0.00    -0.255 N 
ATOM      4  C   UNL A   1     -29.772  -9.549   9.105  0.00  0.00    +0.055 A 
ATOM      5  C   UNL A   1     -28.916  -9.336   9.629  0.00  0.00    +0.055 A 
ATOM      6  C   UNL A   1     -27.597  -8.749   9.137  0.00  0.00    +0.140 A 
ATOM      7  C   UNL A   1     -27.496  -8.560   7.739  0.00  0.00    +0.029 A 
ATOM      8  C   UNL A   1     -28.486  -9.111   6.967  0.00  0.00    +0.004 A 
ATOM      9  C   UNL A   1     -29.675  -9.636   7.517  0.00  0.00    +0.015 A 
ATOM     10  C   UNL A   1     -31.611  -9.752  10.595  0.00  0.00    +0.124 C 
ATOM     11  C   UNL A   1     -31.602  -8.420  10.578  0.00  0.00    -0.003 A 
ATOM     12  C   UNL A   1     -32.305  -7.638  10.989  0.00  0.00    -0.003 A 
ATOM     13  C   UNL A   1     -32.178  -6.157  11.010  0.00  0.00    -0.001 A 
ATOM     14  C   UNL A   1     -31.069  -5.654  10.388  0.00  0.00    -0.004 A 
ATOM     15  C   UNL A   1     -30.191  -6.494   9.799  0.00  0.00    -0.023 A 
ATOM     16  C   UNL A   1     -30.438  -7.827   9.843  0.00  0.00    +0.008 A 
ATOM     17  C   UNL A   1     -29.408  -8.429   9.464  0.00  0.00    +0.208 C 
ATOM     18  F   UNL A   1     -28.600  -7.228   9.532  0.00  0.00    -0.227 F 
ATOM     19  F   UNL A   1     -26.600  -8.767   9.734  0.00  0.00    -0.204 F 
ATOM     20  C   UNL A   1     -30.336  -5.758   8.483  0.00  0.00    +0.031 C 
ENDROOT
BRANCH   2  21
ATOM     21  C   UNL A   1     -32.222 -11.919   9.418  0.00  0.00    +0.090 C 
BRANCH  21  22
ATOM     22  C   UNL A   1     -32.458 -13.320   9.711  0.00  0.00    +0.036 C 
BRANCH  22  23
ATOM     23  C   UNL A   1     -31.760 -13.799  10.817  0.00  0.00    -0.022 A 
ATOM     24  C   UNL A   1     -31.392 -13.047  11.920  0.00  0.00    -0.004 A 
ATOM     25  C   UNL A   1     -30.467 -13.533  12.857  0.00  0.00    -0.000 A 
ATOM     26  C   UNL A   1     -29.792 -14.770  12.633  0.00  0.00    -0.000 A 
ATOM     27  C   UNL A   1     -30.085 -15.468  11.537  0.00  0.00    -0.000 A 
ATOM     28  C   UNL A   1     -30.965 -15.012  10.611  0.00  0.00    -0.004 A 
ENDBRANCH  22  23
ENDBRANCH  21  22
ENDBRANCH   2  21
TORSDOF 3
ENDMDL
ENDMDL
