REMARK  Name = No_592-gen_results/8p0m/2024-11-26-14-13-15/
REMARK  4 active torsions:
REMARK  status: ('A' for Active; 'I' for Inactive)
REMARK    1  A    between atoms: C_1  and  C_8
REMARK    2  A    between atoms: C_5  and  C_12
REMARK    3  A    between atoms: C_9  and  C_10
REMARK    4  A    between atoms: C_11  and  C_15
REMARK                            x       y       z     vdW  Elec       q    Type
REMARK                         _______ _______ _______ _____ _____    ______ ____
ROOT
ATOM      1  C   UNL A   1     -28.016  -0.814  28.878  0.00  0.00    -0.009 C 
ATOM      2  C   UNL A   1     -27.064  -0.119  28.608  0.00  0.00    -0.044 C 
ATOM      3  C   UNL A   1     -26.876   1.133  28.913  0.00  0.00    +0.023 C 
ATOM      4  C   UNL A   1     -25.688   1.952  28.567  0.00  0.00    +0.017 C 
ATOM      5  C   UNL A   1     -24.639   1.283  27.875  0.00  0.00    +0.122 C 
ATOM      6  C   UNL A   1     -24.807  -0.051  27.604  0.00  0.00    +0.017 C 
ATOM      7  C   UNL A   1     -25.902  -0.767  27.951  0.00  0.00    +0.023 C 
ENDROOT
BRANCH   5   8
ATOM      8  C   UNL A   1     -23.448   1.981  27.464  0.00  0.00    +0.453 C 
ATOM      9  N   UNL A   1     -22.261   2.254  27.790  0.00  0.00    +0.199 NA
ATOM     10  N   UNL A   1     -23.652   2.581  26.124  0.00  0.00    +0.199 NA
ENDBRANCH   5   8
BRANCH   1  11
ATOM     11  C   UNL A   1     -28.645  -0.528  30.243  0.00  0.00    -0.001 C 
ATOM     12  C   UNL A   1     -29.554  -1.030  30.649  0.00  0.00    -0.000 C 
BRANCH  12  13
ATOM     13  C   UNL A   1     -30.308  -1.830  29.952  0.00  0.00    -0.000 C 
ATOM     14  C   UNL A   1     -31.485  -1.754  29.861  0.00  0.00    -0.000 C 
BRANCH  14  15
ATOM     15  C   UNL A   1     -32.172  -2.494  28.879  0.00  0.00    -0.005 C 
ATOM     16  C   UNL A   1     -32.055  -3.892  28.908  0.00  0.00    -0.026 C 
ATOM     17  C   UNL A   1     -30.786  -4.345  29.523  0.00  0.00    +0.031 C 
ENDBRANCH  14  15
ENDBRANCH  12  13
ENDBRANCH   1  11
TORSDOF 4
