MODEL 592
MODEL 1
REMARK VINA RESULT:    -6.685      0.000      0.000
REMARK INTER + INTRA:          -8.948
REMARK INTER:                  -8.248
REMARK INTRA:                  -0.700
REMARK UNBOUND:                -0.700
REMARK  Name = No_592-gen_results/8p0m/2024-11-26-14-13-15/
REMARK  4 active torsions:
REMARK  status: ('A' for Active; 'I' for Inactive)
REMARK    1  A    between atoms: C_1  and  C_8
REMARK    2  A    between atoms: C_5  and  C_12
REMARK    3  A    between atoms: C_9  and  C_10
REMARK    4  A    between atoms: C_11  and  C_15
REMARK                            x       y       z     vdW  Elec       q    Type
REMARK                         _______ _______ _______ _____ _____    ______ ____
ROOT
ATOM      1  C   UNL A   1      -8.223  -0.297  34.868  0.00  0.00    -0.009 C 
ATOM      2  C   UNL A   1      -7.042  -0.557  34.862  0.00  0.00    -0.044 C 
ATOM      3  C   UNL A   1      -6.051   0.218  35.197  0.00  0.00    +0.023 C 
ATOM      4  C   UNL A   1      -4.611  -0.142  35.182  0.00  0.00    +0.017 C 
ATOM      5  C   UNL A   1      -4.298  -1.479  34.807  0.00  0.00    +0.122 C 
ATOM      6  C   UNL A   1      -5.343  -2.317  34.511  0.00  0.00    +0.017 C 
ATOM      7  C   UNL A   1      -6.646  -1.953  34.552  0.00  0.00    +0.023 C 
ENDROOT
BRANCH   5   8
ATOM      8  C   UNL A   1      -2.934  -1.936  34.731  0.00  0.00    +0.453 C 
ATOM      9  N   UNL A   1      -1.942  -2.065  33.964  0.00  0.00    +0.199 NA
ATOM     10  N   UNL A   1      -2.481  -2.396  36.065  0.00  0.00    +0.199 NA
ENDBRANCH   5   8
BRANCH   1  11
ATOM     11  C   UNL A   1      -8.665   0.623  36.007  0.00  0.00    -0.001 C 
ATOM     12  C   UNL A   1      -9.354   0.334  36.835  0.00  0.00    -0.000 C 
BRANCH  12  13
ATOM     13  C   UNL A   1     -10.008  -0.790  36.870  0.00  0.00    -0.000 C 
ATOM     14  C   UNL A   1     -10.608  -1.204  37.801  0.00  0.00    -0.000 C 
BRANCH  14  15
ATOM     15  C   UNL A   1     -11.495  -2.288  37.652  0.00  0.00    -0.005 C 
ATOM     16  C   UNL A   1     -12.294  -2.640  38.751  0.00  0.00    -0.026 C 
ATOM     17  C   UNL A   1     -11.677  -2.271  40.046  0.00  0.00    +0.031 C 
ENDBRANCH  14  15
ENDBRANCH  12  13
ENDBRANCH   1  11
TORSDOF 4
ENDMDL
ENDMDL
