REMARK  Name = No_593-gen_results/8p0m/2024-11-26-14-13-15/
REMARK  3 active torsions:
REMARK  status: ('A' for Active; 'I' for Inactive)
REMARK    1  A    between atoms: C_2  and  C_3
REMARK    2  A    between atoms: C_12  and  C_13
REMARK    3  A    between atoms: C_17  and  C_18
REMARK                            x       y       z     vdW  Elec       q    Type
REMARK                         _______ _______ _______ _____ _____    ______ ____
ROOT
ATOM      1  O   UNL A   1     -28.123  -1.335  28.487  0.00  0.00    -0.270 OA
ATOM      2  C   UNL A   1     -27.481  -0.404  28.709  0.00  0.00    +0.249 C 
ATOM      3  N   UNL A   1     -27.666   0.447  29.899  0.00  0.00    -0.267 N 
ATOM      4  C   UNL A   1     -26.908   1.576  30.328  0.00  0.00    +0.095 C 
ATOM      5  C   UNL A   1     -27.195   2.011  31.442  0.00  0.00    +0.022 C 
ATOM      6  C   UNL A   1     -28.888   0.187  30.763  0.00  0.00    +0.140 C 
ATOM      7  C   UNL A   1     -28.966   1.002  31.899  0.00  0.00    +0.033 C 
ATOM      8  C   UNL A   1     -28.183   1.823  32.153  0.00  0.00    +0.004 C 
ENDROOT
BRANCH   2   9
ATOM      9  C   UNL A   1     -26.380  -0.087  27.939  0.00  0.00    +0.050 A 
ATOM     10  C   UNL A   1     -26.409   0.857  26.880  0.00  0.00    +0.004 A 
ATOM     11  C   UNL A   1     -25.082  -0.697  28.170  0.00  0.00    -0.018 A 
ATOM     12  C   UNL A   1     -25.284   1.049  26.047  0.00  0.00    +0.000 A 
ATOM     13  C   UNL A   1     -23.916  -0.344  27.444  0.00  0.00    -0.004 A 
ATOM     14  C   UNL A   1     -24.062   0.529  26.371  0.00  0.00    -0.000 A 
ATOM     15  C   UNL A   1     -24.894  -1.606  29.341  0.00  0.00    +0.031 C 
ENDBRANCH   2   9
BRANCH   6  16
ATOM     16  C   UNL A   1     -29.693  -0.694  30.460  0.00  0.00    -0.067 C 
ATOM     17  C   UNL A   1     -30.482  -1.381  30.473  0.00  0.00    -0.063 C 
BRANCH  17  18
ATOM     18  C   UNL A   1     -30.802  -2.629  30.948  0.00  0.00    +0.042 A 
ATOM     19  C   UNL A   1     -31.932  -3.392  30.751  0.00  0.00    +0.008 A 
ATOM     20  C   UNL A   1     -32.028  -4.708  31.146  0.00  0.00    +0.001 A 
ATOM     21  C   UNL A   1     -30.958  -5.342  31.882  0.00  0.00    +0.000 A 
ATOM     22  C   UNL A   1     -29.779  -4.642  32.095  0.00  0.00    +0.001 A 
ATOM     23  C   UNL A   1     -29.649  -3.351  31.636  0.00  0.00    +0.008 A 
ENDBRANCH  17  18
ENDBRANCH   6  16
TORSDOF 3
