REMARK  Name = No_594-gen_results/8p0m/2024-11-26-14-13-15/
REMARK  1 active torsions:
REMARK  status: ('A' for Active; 'I' for Inactive)
REMARK    1  A    between atoms: C_7  and  C_16
REMARK                            x       y       z     vdW  Elec       q    Type
REMARK                         _______ _______ _______ _____ _____    ______ ____
ROOT
ATOM      1  C   UNL A   1     -28.016  -0.814  28.878  0.00  0.00    +0.003 A 
ATOM      2  C   UNL A   1     -27.064  -0.119  28.608  0.00  0.00    +0.039 A 
ATOM      3  C   UNL A   1     -27.001   0.691  27.491  0.00  0.00    +0.003 A 
ATOM      4  C   UNL A   1     -25.855   1.482  27.083  0.00  0.00    +0.000 A 
ATOM      5  C   UNL A   1     -25.823   2.330  25.994  0.00  0.00    +0.000 A 
ATOM      6  C   UNL A   1     -29.275  -0.484  28.356  0.00  0.00    +0.007 A 
ATOM      7  C   UNL A   1     -29.354   0.369  27.324  0.00  0.00    +0.080 A 
ATOM      8  C   UNL A   1     -28.206   1.084  26.849  0.00  0.00    +0.007 A 
ATOM      9  C   UNL A   1     -24.558   1.197  27.745  0.00  0.00    +0.003 A 
ATOM     10  C   UNL A   1     -23.408   1.885  27.266  0.00  0.00    +0.000 A 
ATOM     11  C   UNL A   1     -22.233   1.671  27.981  0.00  0.00    +0.000 A 
ATOM     12  C   UNL A   1     -22.162   0.749  29.020  0.00  0.00    +0.000 A 
ATOM     13  C   UNL A   1     -23.273  -0.051  29.398  0.00  0.00    +0.003 A 
ATOM     14  C   UNL A   1     -24.477   0.225  28.735  0.00  0.00    +0.039 A 
ATOM     15  C   UNL A   1     -25.660  -0.438  29.192  0.00  0.00    +0.196 C 
ATOM     16  O   UNL A   1     -25.549  -1.532  29.848  0.00  0.00    -0.287 OA
ATOM     17  C   UNL A   1     -23.418   2.852  26.263  0.00  0.00    +0.000 A 
ATOM     18  C   UNL A   1     -24.679   3.091  25.632  0.00  0.00    +0.000 A 
ENDROOT
BRANCH   7  19
ATOM     19  C   UNL A   1     -30.648   0.677  26.666  0.00  0.00    +0.388 C 
ATOM     20  O   UNL A   1     -31.613   0.869  27.199  0.00  0.00    -0.241 OA
ATOM     21  O   UNL A   1     -30.620   0.702  25.334  0.00  0.00    -0.241 OA
ENDBRANCH   7  19
TORSDOF 1
