MODEL 594
MODEL 1
REMARK VINA RESULT:    -8.189      0.000      0.000
REMARK INTER + INTRA:          -8.768
REMARK INTER:                  -8.667
REMARK INTRA:                  -0.101
REMARK UNBOUND:                -0.101
REMARK  Name = No_594-gen_results/8p0m/2024-11-26-14-13-15/
REMARK  1 active torsions:
REMARK  status: ('A' for Active; 'I' for Inactive)
REMARK    1  A    between atoms: C_7  and  C_16
REMARK                            x       y       z     vdW  Elec       q    Type
REMARK                         _______ _______ _______ _____ _____    ______ ____
ROOT
ATOM      1  C   UNL A   1     -29.635  -9.612  32.572  0.00  0.00    +0.003 A 
ATOM      2  C   UNL A   1     -30.000  -9.869  31.448  0.00  0.00    +0.039 A 
ATOM      3  C   UNL A   1     -29.318 -10.719  30.598  0.00  0.00    +0.003 A 
ATOM      4  C   UNL A   1     -29.671 -10.999  29.219  0.00  0.00    +0.000 A 
ATOM      5  C   UNL A   1     -29.013 -11.892  28.397  0.00  0.00    +0.000 A 
ATOM      6  C   UNL A   1     -28.789 -10.509  33.240  0.00  0.00    +0.007 A 
ATOM      7  C   UNL A   1     -28.138 -11.445  32.534  0.00  0.00    +0.080 A 
ATOM      8  C   UNL A   1     -28.410 -11.666  31.144  0.00  0.00    +0.007 A 
ATOM      9  C   UNL A   1     -30.667 -10.107  28.575  0.00  0.00    +0.003 A 
ATOM     10  C   UNL A   1     -30.928 -10.303  27.190  0.00  0.00    +0.000 A 
ATOM     11  C   UNL A   1     -31.943  -9.519  26.648  0.00  0.00    +0.000 A 
ATOM     12  C   UNL A   1     -32.575  -8.523  27.385  0.00  0.00    +0.000 A 
ATOM     13  C   UNL A   1     -32.207  -8.224  28.724  0.00  0.00    +0.003 A 
ATOM     14  C   UNL A   1     -31.245  -9.069  29.295  0.00  0.00    +0.039 A 
ATOM     15  C   UNL A   1     -30.960  -8.912  30.689  0.00  0.00    +0.196 C 
ATOM     16  O   UNL A   1     -31.224  -7.797  31.259  0.00  0.00    -0.287 OA
ATOM     17  C   UNL A   1     -30.365 -11.308  26.407  0.00  0.00    +0.000 A 
ATOM     18  C   UNL A   1     -29.396 -12.139  27.051  0.00  0.00    +0.000 A 
ENDROOT
BRANCH   7  19
ATOM     19  C   UNL A   1     -27.154 -12.356  33.171  0.00  0.00    +0.388 C 
ATOM     20  O   UNL A   1     -26.416 -12.994  32.623  0.00  0.00    -0.241 OA
ATOM     21  O   UNL A   1     -27.196 -12.401  34.502  0.00  0.00    -0.241 OA
ENDBRANCH   7  19
TORSDOF 1
ENDMDL
ENDMDL
