REMARK  Name = No_595-gen_results/8p0m/2024-11-26-14-13-15/
REMARK  1 active torsions:
REMARK  status: ('A' for Active; 'I' for Inactive)
REMARK    1  A    between atoms: C_6  and  C_8
REMARK                            x       y       z     vdW  Elec       q    Type
REMARK                         _______ _______ _______ _____ _____    ______ ____
ROOT
ATOM      1  C   UNL A   1     -28.016  -0.814  28.878  0.00  0.00    +0.011 A 
ATOM      2  C   UNL A   1     -27.064  -0.119  28.608  0.00  0.00    +0.058 A 
ATOM      3  C   UNL A   1     -26.929   1.171  29.008  0.00  0.00    +0.011 A 
ATOM      4  C   UNL A   1     -27.956   1.741  29.784  0.00  0.00    +0.001 A 
ATOM      5  C   UNL A   1     -29.057  -0.327  29.747  0.00  0.00    +0.001 A 
ATOM      6  C   UNL A   1     -28.983   0.972  30.152  0.00  0.00    -0.000 A 
ATOM      7 CL   UNL A   1     -25.725  -0.728  27.673  0.00  0.00    -0.082 Cl
ENDROOT
BRANCH   6   8
ATOM      8  C   UNL A   1     -30.082   1.509  31.010  0.00  0.00    -0.005 C 
ATOM      9  C   UNL A   1     -30.986   2.154  30.733  0.00  0.00    -0.026 C 
ATOM     10  C   UNL A   1     -31.994   2.675  31.650  0.00  0.00    +0.031 C 
ENDBRANCH   6   8
TORSDOF 1
