MODEL 595
MODEL 1
REMARK VINA RESULT:    -5.395      0.000      0.000
REMARK INTER + INTRA:          -5.855
REMARK INTER:                  -5.710
REMARK INTRA:                  -0.144
REMARK UNBOUND:                -0.144
REMARK  Name = No_595-gen_results/8p0m/2024-11-26-14-13-15/
REMARK  1 active torsions:
REMARK  status: ('A' for Active; 'I' for Inactive)
REMARK    1  A    between atoms: C_6  and  C_8
REMARK                            x       y       z     vdW  Elec       q    Type
REMARK                         _______ _______ _______ _____ _____    ______ ____
ROOT
ATOM      1  C   UNL A   1     -24.046   0.354  27.759  0.00  0.00    +0.011 A 
ATOM      2  C   UNL A   1     -22.909   0.594  28.092  0.00  0.00    +0.058 A 
ATOM      3  C   UNL A   1     -22.133  -0.258  28.810  0.00  0.00    +0.011 A 
ATOM      4  C   UNL A   1     -22.679  -1.498  29.193  0.00  0.00    +0.001 A 
ATOM      5  C   UNL A   1     -24.635  -0.932  28.033  0.00  0.00    +0.001 A 
ATOM      6  C   UNL A   1     -23.908  -1.812  28.777  0.00  0.00    -0.000 A 
ATOM      7 CL   UNL A   1     -22.124   2.087  27.653  0.00  0.00    -0.082 Cl
ENDROOT
BRANCH   6   8
ATOM      8  C   UNL A   1     -24.525  -3.130  29.116  0.00  0.00    -0.005 C 
ATOM      9  C   UNL A   1     -24.249  -4.185  28.769  0.00  0.00    -0.026 C 
ATOM     10  C   UNL A   1     -24.939  -5.422  29.118  0.00  0.00    +0.031 C 
ENDBRANCH   6   8
TORSDOF 1
ENDMDL
ENDMDL
