MODEL 596
MODEL 1
REMARK VINA RESULT:    -4.276      0.000      0.000
REMARK INTER + INTRA:          -4.276
REMARK INTER:                  -4.276
REMARK INTRA:                   0.000
REMARK UNBOUND:                 0.000
REMARK  Name = No_596-gen_results/8p0m/2024-11-26-14-13-15/
REMARK  0 active torsions:
REMARK  status: ('A' for Active; 'I' for Inactive)
REMARK                            x       y       z     vdW  Elec       q    Type
REMARK                         _______ _______ _______ _____ _____    ______ ____
ROOT
ATOM      1  C   UNL A   1     -24.016  -3.319  28.786  0.00  0.00    +0.000 A 
ATOM      2  C   UNL A   1     -24.010  -4.510  28.576  0.00  0.00    +0.000 A 
ATOM      3  C   UNL A   1     -25.013  -5.365  28.990  0.00  0.00    +0.000 A 
ATOM      4  C   UNL A   1     -26.131  -4.802  29.666  0.00  0.00    +0.000 A 
ATOM      5  C   UNL A   1     -26.173  -3.451  29.726  0.00  0.00    +0.000 A 
ATOM      6  C   UNL A   1     -25.184  -2.708  29.266  0.00  0.00    +0.000 A 
ENDROOT
TORSDOF 0
ENDMDL
ENDMDL
