REMARK  Name = No_597-gen_results/8p0m/2024-11-26-14-13-15/
REMARK  2 active torsions:
REMARK  status: ('A' for Active; 'I' for Inactive)
REMARK    1  A    between atoms: C_27  and  C_31
REMARK    2  A    between atoms: C_32  and  C_33
REMARK                            x       y       z     vdW  Elec       q    Type
REMARK                         _______ _______ _______ _____ _____    ______ ____
ROOT
ATOM      1  C   UNL A   1     -28.016  -0.814  28.878  0.00  0.00    +0.065 C 
ATOM      2  C   UNL A   1     -28.469  -0.785  29.829  0.00  0.00    +0.184 C 
ATOM      3  C   UNL A   1     -26.504  -0.778  28.877  0.00  0.00    +0.118 C 
ATOM      4  C   UNL A   1     -25.831  -1.681  29.685  0.00  0.00    +0.030 C 
ATOM      5  C   UNL A   1     -28.149  -1.885  30.903  0.00  0.00    +0.182 C 
ATOM      6  C   UNL A   1     -26.646  -1.956  31.033  0.00  0.00    +0.038 C 
ATOM      7  O   UNL A   1     -28.627  -1.731  32.186  0.00  0.00    -0.220 OA
ATOM      8  O   UNL A   1     -30.017  -0.927  29.877  0.00  0.00    -0.220 OA
ATOM      9  C   UNL A   1     -24.653  -2.303  29.381  0.00  0.00    +0.003 C 
ATOM     10  C   UNL A   1     -23.472  -1.507  29.250  0.00  0.00    +0.000 C 
ATOM     11  C   UNL A   1     -23.395  -0.193  29.841  0.00  0.00    +0.002 C 
ATOM     12  C   UNL A   1     -23.672   0.919  29.009  0.00  0.00    +0.027 C 
ATOM     13  C   UNL A   1     -22.629   1.286  28.127  0.00  0.00    +0.002 C 
ATOM     14  C   UNL A   1     -22.955   2.026  26.907  0.00  0.00    +0.000 C 
ATOM     15  C   UNL A   1     -24.210   2.588  26.817  0.00  0.00    +0.003 C 
ATOM     16  C   UNL A   1     -25.004   1.025  28.363  0.00  0.00    +0.116 C 
ATOM     17  C   UNL A   1     -25.214   2.314  27.668  0.00  0.00    +0.037 C 
ATOM     18  O   UNL A   1     -25.935   0.246  28.906  0.00  0.00    -0.359 OA
ATOM     19  C   UNL A   1     -26.611   2.373  27.076  0.00  0.00    +0.047 C 
ATOM     20  C   UNL A   1     -25.121   3.511  28.804  0.00  0.00    +0.029 C 
ATOM     21  C   UNL A   1     -26.006   3.700  29.761  0.00  0.00    -0.026 A 
ATOM     22  C   UNL A   1     -25.707   4.223  30.931  0.00  0.00    -0.005 A 
ATOM     23  C   UNL A   1     -26.682   4.543  31.863  0.00  0.00    -0.000 A 
ATOM     24  C   UNL A   1     -27.980   4.167  31.658  0.00  0.00    -0.000 A 
ATOM     25  C   UNL A   1     -28.309   3.609  30.384  0.00  0.00    -0.004 A 
ATOM     26  C   UNL A   1     -27.374   3.397  29.493  0.00  0.00    -0.022 A 
ATOM     27  C   UNL A   1     -27.707   2.747  28.168  0.00  0.00    +0.051 C 
ATOM     28  C   UNL A   1     -26.709   3.397  26.026  0.00  0.00    -0.022 C 
ATOM     29  C   UNL A   1     -27.006   1.070  26.470  0.00  0.00    -0.022 C 
ATOM     30  C   UNL A   1     -27.519   1.256  25.167  0.00  0.00    -0.005 C 
ATOM     31  C   UNL A   1     -27.436   2.696  24.967  0.00  0.00    -0.005 C 
ENDROOT
BRANCH  27  32
ATOM     32  C   UNL A   1     -29.061   2.680  27.742  0.00  0.00    -0.021 C 
ATOM     33  C   UNL A   1     -29.746   3.841  27.522  0.00  0.00    -0.004 C 
BRANCH  33  34
ATOM     34  C   UNL A   1     -31.122   3.763  27.220  0.00  0.00    -0.000 C 
ATOM     35  C   UNL A   1     -31.655   2.502  26.991  0.00  0.00    -0.000 C 
ENDBRANCH  33  34
ENDBRANCH  27  32
TORSDOF 2
