MODEL 598
MODEL 1
REMARK VINA RESULT:    -5.738      0.000      0.000
REMARK INTER + INTRA:          -5.738
REMARK INTER:                  -5.738
REMARK INTRA:                   0.000
REMARK UNBOUND:                 0.000
REMARK  Name = No_598-gen_results/8p0m/2024-11-26-14-13-15/
REMARK  0 active torsions:
REMARK  status: ('A' for Active; 'I' for Inactive)
REMARK                            x       y       z     vdW  Elec       q    Type
REMARK                         _______ _______ _______ _____ _____    ______ ____
ROOT
ATOM      1  C   UNL A   1     -25.011  -5.243  29.028  0.00  0.00    +0.000 A 
ATOM      2  C   UNL A   1     -24.150  -4.425  28.797  0.00  0.00    +0.000 A 
ATOM      3  C   UNL A   1     -24.266  -3.072  29.113  0.00  0.00    +0.001 A 
ATOM      4  C   UNL A   1     -25.500  -2.588  29.700  0.00  0.00    +0.000 A 
ATOM      5  C   UNL A   1     -26.462  -3.597  29.933  0.00  0.00    +0.000 A 
ATOM      6  C   UNL A   1     -26.265  -4.845  29.594  0.00  0.00    +0.000 A 
ATOM      7  C   UNL A   1     -23.248  -2.017  28.870  0.00  0.00    +0.011 A 
ATOM      8  C   UNL A   1     -23.355  -0.781  29.300  0.00  0.00    +0.058 A 
ATOM      9  C   UNL A   1     -24.592  -0.454  30.027  0.00  0.00    +0.011 A 
ATOM     10  C   UNL A   1     -25.615  -1.286  30.200  0.00  0.00    +0.001 A 
ATOM     11 CL   UNL A   1     -22.196   0.432  29.095  0.00  0.00    -0.082 Cl
ENDROOT
TORSDOF 0
ENDMDL
ENDMDL
