REMARK  Name = No_599-gen_results/8p0m/2024-11-26-14-13-15/
REMARK  2 active torsions:
REMARK  status: ('A' for Active; 'I' for Inactive)
REMARK    1  A    between atoms: C_2  and  C_7
REMARK    2  A    between atoms: N_9  and  C_10
REMARK                            x       y       z     vdW  Elec       q    Type
REMARK                         _______ _______ _______ _____ _____    ______ ____
ROOT
ATOM      1  C   UNL A   1     -30.074  -0.836  29.861  0.00  0.00    +0.269 C 
ATOM      2  O   UNL A   1     -30.689  -1.655  30.223  0.00  0.00    -0.268 OA
ATOM      3  N   UNL A   1     -30.602   0.433  29.599  0.00  0.00    -0.175 NA
ENDROOT
BRANCH   3   4
ATOM      4  C   UNL A   1     -32.010   0.551  29.476  0.00  0.00    +0.074 A 
ATOM      5  C   UNL A   1     -32.346   1.539  28.751  0.00  0.00    +0.017 A 
ATOM      6  C   UNL A   1     -33.729   1.842  28.465  0.00  0.00    +0.002 A 
ATOM      7  C   UNL A   1     -34.666   0.939  29.074  0.00  0.00    +0.011 A 
ATOM      8  C   UNL A   1     -34.215  -0.121  29.811  0.00  0.00    +0.059 A 
ATOM      9  C   UNL A   1     -32.874  -0.335  30.039  0.00  0.00    +0.028 A 
ATOM     10 CL   UNL A   1     -35.364  -1.165  30.532  0.00  0.00    -0.082 Cl
ENDBRANCH   3   4
BRANCH   1  12
ATOM     11  C   UNL A   1     -28.016  -0.814  28.878  0.00  0.00    +0.005 A 
ATOM     12  C   UNL A   1     -28.469  -0.785  29.829  0.00  0.00    +0.055 A 
ATOM     13  C   UNL A   1     -26.504  -0.778  28.877  0.00  0.00    +0.000 A 
ATOM     14  C   UNL A   1     -25.810  -0.853  30.103  0.00  0.00    +0.000 A 
ATOM     15  C   UNL A   1     -27.991  -0.892  31.226  0.00  0.00    +0.005 A 
ATOM     16  C   UNL A   1     -26.604  -0.868  31.265  0.00  0.00    +0.000 A 
ENDBRANCH   1  12
TORSDOF 2
