MODEL 599
MODEL 1
REMARK VINA RESULT:    -6.303      0.000      0.000
REMARK INTER + INTRA:          -7.240
REMARK INTER:                  -7.040
REMARK INTRA:                  -0.200
REMARK UNBOUND:                -0.200
REMARK  Name = No_599-gen_results/8p0m/2024-11-26-14-13-15/
REMARK  2 active torsions:
REMARK  status: ('A' for Active; 'I' for Inactive)
REMARK    1  A    between atoms: C_2  and  C_7
REMARK    2  A    between atoms: N_9  and  C_10
REMARK                            x       y       z     vdW  Elec       q    Type
REMARK                         _______ _______ _______ _____ _____    ______ ____
ROOT
ATOM      1  C   UNL A   1     -24.123  -1.318  28.576  0.00  0.00    +0.269 C 
ATOM      2  O   UNL A   1     -23.146  -0.914  28.824  0.00  0.00    -0.268 OA
ATOM      3  N   UNL A   1     -24.963  -0.714  27.634  0.00  0.00    -0.175 NA
ENDROOT
BRANCH   3   4
ATOM      4  C   UNL A   1     -24.679   0.624  27.258  0.00  0.00    +0.074 A 
ATOM      5  C   UNL A   1     -25.332   1.465  27.953  0.00  0.00    +0.017 A 
ATOM      6  C   UNL A   1     -25.186   2.889  27.763  0.00  0.00    +0.002 A 
ATOM      7  C   UNL A   1     -24.257   3.252  26.730  0.00  0.00    +0.011 A 
ATOM      8  C   UNL A   1     -23.570   2.281  26.054  0.00  0.00    +0.059 A 
ATOM      9  C   UNL A   1     -23.773   0.941  26.296  0.00  0.00    +0.028 A 
ATOM     10 CL   UNL A   1     -22.483   2.755  24.820  0.00  0.00    -0.082 Cl
ENDBRANCH   3   4
BRANCH   1  12
ATOM     11  C   UNL A   1     -24.103  -3.597  28.670  0.00  0.00    +0.005 A 
ATOM     12  C   UNL A   1     -24.686  -2.771  28.967  0.00  0.00    +0.055 A 
ATOM     13  C   UNL A   1     -24.662  -4.953  29.039  0.00  0.00    +0.000 A 
ATOM     14  C   UNL A   1     -25.950  -5.038  29.607  0.00  0.00    +0.000 A 
ATOM     15  C   UNL A   1     -26.044  -2.588  29.526  0.00  0.00    +0.005 A 
ATOM     16  C   UNL A   1     -26.593  -3.815  29.872  0.00  0.00    +0.000 A 
ENDBRANCH   1  12
TORSDOF 2
ENDMDL
ENDMDL
