MODEL 59
MODEL 1
REMARK VINA RESULT:    -6.689      0.000      0.000
REMARK INTER + INTRA:         -10.637
REMARK INTER:                  -9.427
REMARK INTRA:                  -1.210
REMARK UNBOUND:                -1.210
REMARK  Name = No_59-gen_results/8p0m/2024-11-26-14-13-15/
REMARK  7 active torsions:
REMARK  status: ('A' for Active; 'I' for Inactive)
REMARK    1  A    between atoms: C_3  and  C_8
REMARK    2  A    between atoms: C_6  and  O_7
REMARK    3  A    between atoms: O_7  and  C_14
REMARK    4  A    between atoms: C_14  and  C_15
REMARK    5  A    between atoms: N_17  and  C_18
REMARK    6  A    between atoms: C_19  and  C_20
REMARK    7  A    between atoms: C_21  and  C_22
REMARK                            x       y       z     vdW  Elec       q    Type
REMARK                         _______ _______ _______ _____ _____    ______ ____
ROOT
ATOM      1  C   UNL A   1      -8.985   0.689  34.995  0.00  0.00    +0.037 A 
ATOM      2  C   UNL A   1      -9.260   0.043  35.980  0.00  0.00    +0.003 A 
ATOM      3  C   UNL A   1     -10.510   0.143  36.579  0.00  0.00    +0.000 A 
ATOM      4  C   UNL A   1     -11.503   1.055  36.073  0.00  0.00    +0.003 A 
ATOM      5  C   UNL A   1     -11.094   1.781  34.946  0.00  0.00    +0.037 A 
ATOM      6  C   UNL A   1      -9.893   1.662  34.428  0.00  0.00    +0.139 A 
ENDROOT
BRANCH   3   7
ATOM      7  C   UNL A   1     -10.975  -0.616  37.798  0.00  0.00    +0.000 A 
ATOM      8  C   UNL A   1     -11.290  -0.091  38.930  0.00  0.00    +0.000 A 
ATOM      9  C   UNL A   1     -11.808  -0.899  40.021  0.00  0.00    +0.000 A 
ATOM     10  C   UNL A   1     -12.223  -2.211  39.744  0.00  0.00    +0.000 A 
ATOM     11  C   UNL A   1     -11.440  -1.979  37.570  0.00  0.00    +0.000 A 
ATOM     12  C   UNL A   1     -12.009  -2.726  38.556  0.00  0.00    +0.000 A 
ENDBRANCH   3   7
BRANCH   6  13
ATOM     13  O   UNL A   1      -9.562   2.433  33.356  0.00  0.00    -0.466 OA
BRANCH  13  14
ATOM     14  C   UNL A   1      -8.767   3.531  33.474  0.00  0.00    +0.291 C 
BRANCH  14  15
ATOM     15  C   UNL A   1      -7.372   3.304  33.179  0.00  0.00    +0.290 C 
ATOM     16  O   UNL A   1      -7.159   3.195  31.991  0.00  0.00    -0.269 OA
ATOM     17  N   UNL A   1      -6.494   3.041  34.070  0.00  0.00    -0.175 NA
BRANCH  17  18
ATOM     18  C   UNL A   1      -5.160   2.657  33.764  0.00  0.00    +0.089 C 
ATOM     19  C   UNL A   1      -4.797   1.648  34.451  0.00  0.00    +0.018 C 
BRANCH  19  20
ATOM     20  C   UNL A   1      -4.043   0.826  34.391  0.00  0.00    +0.001 C 
ATOM     21  C   UNL A   1      -4.121  -0.689  34.618  0.00  0.00    +0.000 C 
BRANCH  21  22
ATOM     22  C   UNL A   1      -5.418  -1.151  34.931  0.00  0.00    +0.000 C 
ATOM     23  C   UNL A   1      -5.877  -2.332  34.446  0.00  0.00    +0.000 C 
ENDBRANCH  21  22
ENDBRANCH  19  20
ENDBRANCH  17  18
ENDBRANCH  14  15
ENDBRANCH  13  14
ENDBRANCH   6  13
TORSDOF 7
ENDMDL
ENDMDL
