MODEL 5
MODEL 1
REMARK VINA RESULT:    -6.748      0.000      0.000
REMARK INTER + INTRA:          -8.566
REMARK INTER:                  -7.537
REMARK INTRA:                  -1.029
REMARK UNBOUND:                -1.029
REMARK  Name = No_5-gen_results/8p0m/2024-11-26-14-13-15/
REMARK  2 active torsions:
REMARK  status: ('A' for Active; 'I' for Inactive)
REMARK    1  A    between atoms: C_3  and  C_4
REMARK    2  A    between atoms: C_6  and  C_7
REMARK                            x       y       z     vdW  Elec       q    Type
REMARK                         _______ _______ _______ _____ _____    ______ ____
ROOT
ATOM      1  C   UNL A   1     -22.725  -1.121  28.969  0.00  0.00    +0.032 C 
ATOM      2  C   UNL A   1     -23.667  -1.556  29.154  0.00  0.00    -0.007 A 
ATOM      3  C   UNL A   1     -22.740   0.342  28.997  0.00  0.00    +0.027 C 
ATOM      4  C   UNL A   1     -23.897  -2.962  28.896  0.00  0.00    +0.094 A 
ATOM      5  C   UNL A   1     -24.818  -0.960  29.972  0.00  0.00    -0.023 A 
ATOM      6  C   UNL A   1     -26.006  -1.713  30.416  0.00  0.00    +0.016 A 
ATOM      7  N   UNL A   1     -24.980  -3.738  29.392  0.00  0.00    -0.243 NA
ATOM      8  C   UNL A   1     -26.050  -3.074  30.039  0.00  0.00    +0.099 A 
ATOM      9  C   UNL A   1     -23.590   0.914  30.038  0.00  0.00    +0.009 C 
ATOM     10  C   UNL A   1     -24.671   0.320  30.359  0.00  0.00    +0.026 C 
ENDROOT
BRANCH   3  11
ATOM     11  C   UNL A   1     -21.948   1.099  28.206  0.00  0.00    -0.026 C 
ATOM     12  C   UNL A   1     -22.187   1.655  27.304  0.00  0.00    -0.004 C 
BRANCH  12  13
ATOM     13  C   UNL A   1     -23.507   1.772  26.842  0.00  0.00    +0.010 A 
ATOM     14  C   UNL A   1     -24.230   0.759  26.078  0.00  0.00    +0.001 A 
ATOM     15  C   UNL A   1     -25.508   0.899  25.668  0.00  0.00    +0.000 A 
ATOM     16  C   UNL A   1     -26.208   2.044  26.080  0.00  0.00    +0.001 A 
ATOM     17  C   UNL A   1     -25.568   3.057  26.767  0.00  0.00    +0.011 A 
ATOM     18  C   UNL A   1     -24.289   2.929  27.120  0.00  0.00    +0.058 A 
ATOM     19 CL   UNL A   1     -24.053   3.832  25.585  0.00  0.00    -0.082 Cl
ENDBRANCH  12  13
ENDBRANCH   3  11
TORSDOF 2
ENDMDL
ENDMDL
