REMARK  Name = No_6-gen_results/8p0m/2024-11-26-14-13-15/
REMARK  1 active torsions:
REMARK  status: ('A' for Active; 'I' for Inactive)
REMARK    1  A    between atoms: C_2  and  C_3
REMARK                            x       y       z     vdW  Elec       q    Type
REMARK                         _______ _______ _______ _____ _____    ______ ____
ROOT
ATOM      1  C   UNL A   1     -27.174   0.733  28.825  0.00  0.00    +0.023 A 
ATOM      2  C   UNL A   1     -26.959   2.062  29.530  0.00  0.00    -0.001 A 
ATOM      3  C   UNL A   1     -26.099   3.148  29.206  0.00  0.00    -0.000 A 
ATOM      4  C   UNL A   1     -25.261   2.975  28.036  0.00  0.00    -0.000 A 
ATOM      5  C   UNL A   1     -25.348   1.808  27.302  0.00  0.00    -0.000 A 
ATOM      6  C   UNL A   1     -26.139   0.804  27.634  0.00  0.00    -0.001 A 
ENDROOT
BRANCH   1   8
ATOM      7  N   UNL A   1     -28.054  -1.050  28.725  0.00  0.00    -0.241 NA
ATOM      8  C   UNL A   1     -27.746  -0.073  29.010  0.00  0.00    +0.228 C 
ATOM      9  N   UNL A   1     -28.278  -0.046  30.399  0.00  0.00    -0.241 NA
ATOM     10  C   UNL A   1     -29.018  -1.229  30.709  0.00  0.00    +0.116 C 
ATOM     11  C   UNL A   1     -28.703  -1.917  29.647  0.00  0.00    +0.116 C 
ENDBRANCH   1   8
TORSDOF 1
