REMARK  Name = No_60-gen_results/8p0m/2024-11-26-14-13-15/
REMARK  5 active torsions:
REMARK  status: ('A' for Active; 'I' for Inactive)
REMARK    1  A    between atoms: C_3  and  C_21
REMARK    2  A    between atoms: C_5  and  C_10
REMARK    3  A    between atoms: C_21  and  O_23
REMARK    4  A    between atoms: O_23  and  C_24
REMARK    5  A    between atoms: C_24  and  C_25
REMARK                            x       y       z     vdW  Elec       q    Type
REMARK                         _______ _______ _______ _____ _____    ______ ____
ROOT
ATOM      1  C   UNL A   1     -28.016  -0.814  28.878  0.00  0.00    +0.030 C 
ATOM      2  C   UNL A   1     -27.064  -0.119  28.608  0.00  0.00    -0.019 A 
ATOM      3  C   UNL A   1     -26.972   0.714  27.506  0.00  0.00    +0.071 A 
ATOM      4  C   UNL A   1     -25.820   1.491  27.116  0.00  0.00    +0.010 A 
ATOM      5  C   UNL A   1     -24.656   1.424  27.918  0.00  0.00    +0.071 A 
ATOM      6  C   UNL A   1     -24.685   0.590  29.066  0.00  0.00    -0.000 A 
ATOM      7  C   UNL A   1     -25.810  -0.127  29.334  0.00  0.00    -0.022 A 
ATOM      8  C   UNL A   1     -28.694  -0.473  30.159  0.00  0.00    +0.022 C 
ATOM      9  C   UNL A   1     -29.787  -1.325  30.637  0.00  0.00    +0.004 C 
ATOM     10  C   UNL A   1     -27.673  -0.422  31.258  0.00  0.00    -0.031 C 
ATOM     11  C   UNL A   1     -29.334   0.877  29.899  0.00  0.00    +0.004 C 
ATOM     12  C   UNL A   1     -30.467   1.073  29.720  0.00  0.00    +0.000 C 
ATOM     13  C   UNL A   1     -31.090  -1.215  30.181  0.00  0.00    +0.000 C 
ATOM     14  C   UNL A   1     -31.471   0.095  29.896  0.00  0.00    +0.000 C 
ATOM     15  C   UNL A   1     -26.607  -0.613  31.105  0.00  0.00    -0.026 C 
ATOM     16  C   UNL A   1     -25.655  -1.019  30.433  0.00  0.00    +0.052 C 
ENDROOT
BRANCH   5  17
ATOM     17  C   UNL A   1     -23.452   2.189  27.608  0.00  0.00    +0.419 C 
ATOM     18  F   UNL A   1     -22.787   2.495  28.631  0.00  0.00    -0.166 F 
ATOM     19  F   UNL A   1     -23.715   3.260  26.926  0.00  0.00    -0.166 F 
ATOM     20  F   UNL A   1     -22.594   1.456  26.839  0.00  0.00    -0.166 F 
ENDBRANCH   5  17
BRANCH   3  21
ATOM     21  C   UNL A   1     -28.093   0.824  26.516  0.00  0.00    +0.341 C 
ATOM     22  O   UNL A   1     -28.227   0.806  25.442  0.00  0.00    -0.245 OA
BRANCH  21  23
ATOM     23  O   UNL A   1     -29.353   0.801  27.225  0.00  0.00    -0.440 OA
BRANCH  23  24
ATOM     24  C   UNL A   1     -30.430   1.117  26.357  0.00  0.00    +0.238 C 
BRANCH  24  25
ATOM     25  C   UNL A   1     -30.624   0.169  25.471  0.00  0.00    +0.060 A 
ATOM     26  C   UNL A   1     -31.934  -0.156  25.211  0.00  0.00    +0.003 A 
ATOM     27  C   UNL A   1     -32.158  -1.252  24.241  0.00  0.00    -0.000 A 
ATOM     28  C   UNL A   1     -30.997  -1.956  23.780  0.00  0.00    +0.003 A 
ATOM     29  C   UNL A   1     -29.748  -1.534  24.080  0.00  0.00    +0.042 A 
ATOM     30  C   UNL A   1     -29.569  -0.505  24.944  0.00  0.00    +0.195 A 
ATOM     31  O   UNL A   1     -28.676  -0.989  25.238  0.00  0.00    -0.287 OA
ENDBRANCH  24  25
ENDBRANCH  23  24
ENDBRANCH  21  23
ENDBRANCH   3  21
TORSDOF 5
