REMARK  Name = No_600-gen_results/8p0m/2024-11-26-14-13-15/
REMARK  5 active torsions:
REMARK  status: ('A' for Active; 'I' for Inactive)
REMARK    1  A    between atoms: C_3  and  N_15
REMARK    2  A    between atoms: C_4  and  C_7
REMARK    3  A    between atoms: C_7  and  C_8
REMARK    4  A    between atoms: N_15  and  C_16
REMARK    5  A    between atoms: C_16  and  C_18
REMARK                            x       y       z     vdW  Elec       q    Type
REMARK                         _______ _______ _______ _____ _____    ______ ____
ROOT
ATOM      1  C   UNL A   1     -28.016  -0.814  28.878  0.00  0.00    +0.028 A 
ATOM      2  C   UNL A   1     -28.469  -0.785  29.829  0.00  0.00    +0.059 A 
ATOM      3  C   UNL A   1     -26.546  -0.876  28.850  0.00  0.00    +0.068 A 
ATOM      4  C   UNL A   1     -25.804  -1.032  30.057  0.00  0.00    -0.003 A 
ATOM      5  C   UNL A   1     -27.944  -0.987  31.207  0.00  0.00    +0.011 A 
ATOM      6  C   UNL A   1     -26.582  -1.039  31.223  0.00  0.00    -0.002 A 
ATOM      7 CL   UNL A   1     -30.316  -0.671  29.854  0.00  0.00    -0.082 Cl
ENDROOT
BRANCH   4   8
ATOM      8  C   UNL A   1     -24.381  -1.108  30.085  0.00  0.00    +0.054 C 
BRANCH   8   9
ATOM      9  C   UNL A   1     -23.705   0.096  29.844  0.00  0.00    -0.018 A 
ATOM     10  C   UNL A   1     -22.428   0.116  29.217  0.00  0.00    -0.004 A 
ATOM     11  C   UNL A   1     -21.815   1.294  28.877  0.00  0.00    -0.000 A 
ATOM     12  C   UNL A   1     -23.817   1.258  30.766  0.00  0.00    -0.004 A 
ATOM     13  C   UNL A   1     -23.302   2.512  30.402  0.00  0.00    -0.000 A 
ATOM     14  C   UNL A   1     -22.237   2.538  29.446  0.00  0.00    -0.000 A 
ENDBRANCH   8   9
ENDBRANCH   4   8
BRANCH   3  15
ATOM     15  N   UNL A   1     -25.779  -0.789  27.697  0.00  0.00    -0.213 NA
BRANCH  15  16
ATOM     16  C   UNL A   1     -26.034   0.102  26.679  0.00  0.00    +0.070 C 
ATOM     17  C   UNL A   1     -25.213   0.069  25.539  0.00  0.00    +0.018 C 
BRANCH  16  18
ATOM     18  C   UNL A   1     -27.014   1.106  26.760  0.00  0.00    +0.015 A 
ATOM     19  C   UNL A   1     -27.231   1.949  25.718  0.00  0.00    +0.001 A 
ATOM     20  C   UNL A   1     -28.221   2.885  25.857  0.00  0.00    +0.000 A 
ATOM     21  C   UNL A   1     -29.022   2.919  26.950  0.00  0.00    +0.000 A 
ATOM     22  C   UNL A   1     -28.757   2.098  28.020  0.00  0.00    +0.000 A 
ATOM     23  C   UNL A   1     -27.767   1.169  27.904  0.00  0.00    +0.001 A 
ENDBRANCH  16  18
ENDBRANCH  15  16
ENDBRANCH   3  15
TORSDOF 5
