MODEL 600
MODEL 1
REMARK VINA RESULT:    -6.457      0.000      0.000
REMARK INTER + INTRA:         -11.100
REMARK INTER:                  -8.344
REMARK INTRA:                  -2.756
REMARK UNBOUND:                -2.756
REMARK  Name = No_600-gen_results/8p0m/2024-11-26-14-13-15/
REMARK  5 active torsions:
REMARK  status: ('A' for Active; 'I' for Inactive)
REMARK    1  A    between atoms: C_3  and  N_15
REMARK    2  A    between atoms: C_4  and  C_7
REMARK    3  A    between atoms: C_7  and  C_8
REMARK    4  A    between atoms: N_15  and  C_16
REMARK    5  A    between atoms: C_16  and  C_18
REMARK                            x       y       z     vdW  Elec       q    Type
REMARK                         _______ _______ _______ _____ _____    ______ ____
ROOT
ATOM      1  C   UNL A   1     -24.213  -3.026  29.575  0.00  0.00    +0.028 A 
ATOM      2  C   UNL A   1     -25.076  -3.627  29.509  0.00  0.00    +0.059 A 
ATOM      3  C   UNL A   1     -24.405  -1.650  30.062  0.00  0.00    +0.068 A 
ATOM      4  C   UNL A   1     -25.675  -1.223  30.547  0.00  0.00    -0.003 A 
ATOM      5  C   UNL A   1     -26.473  -3.450  29.991  0.00  0.00    +0.011 A 
ATOM      6  C   UNL A   1     -26.692  -2.182  30.441  0.00  0.00    -0.002 A 
ATOM      7 CL   UNL A   1     -24.831  -5.344  28.862  0.00  0.00    -0.082 Cl
ENDROOT
BRANCH   4   8
ATOM      8  C   UNL A   1     -25.912   0.093  31.039  0.00  0.00    +0.054 C 
BRANCH   8   9
ATOM      9  C   UNL A   1     -26.187   1.064  30.065  0.00  0.00    -0.018 A 
ATOM     10  C   UNL A   1     -25.558   2.339  30.092  0.00  0.00    -0.004 A 
ATOM     11  C   UNL A   1     -25.737   3.248  29.081  0.00  0.00    -0.000 A 
ATOM     12  C   UNL A   1     -27.533   1.193  29.443  0.00  0.00    -0.004 A 
ATOM     13  C   UNL A   1     -27.730   2.027  28.332  0.00  0.00    -0.000 A 
ATOM     14  C   UNL A   1     -26.821   3.119  28.155  0.00  0.00    -0.000 A 
ENDBRANCH   8   9
ENDBRANCH   4   8
BRANCH   3  15
ATOM     15  N   UNL A   1     -23.411  -0.682  30.090  0.00  0.00    -0.213 NA
BRANCH  15  16
ATOM     16  C   UNL A   1     -22.674  -0.316  28.986  0.00  0.00    +0.070 C 
ATOM     17  C   UNL A   1     -21.296  -0.590  28.980  0.00  0.00    +0.018 C 
BRANCH  16  18
ATOM     18  C   UNL A   1     -23.211   0.403  27.904  0.00  0.00    +0.015 A 
ATOM     19  C   UNL A   1     -24.312  -0.049  27.250  0.00  0.00    +0.001 A 
ATOM     20  C   UNL A   1     -24.796   0.717  26.223  0.00  0.00    +0.000 A 
ATOM     21  C   UNL A   1     -24.263   1.926  25.922  0.00  0.00    +0.000 A 
ATOM     22  C   UNL A   1     -23.117   2.346  26.554  0.00  0.00    +0.000 A 
ATOM     23  C   UNL A   1     -22.613   1.590  27.570  0.00  0.00    +0.001 A 
ENDBRANCH  16  18
ENDBRANCH  15  16
ENDBRANCH   3  15
TORSDOF 5
ENDMDL
ENDMDL
