REMARK  Name = No_601-gen_results/8p0m/2024-11-26-14-13-15/
REMARK  1 active torsions:
REMARK  status: ('A' for Active; 'I' for Inactive)
REMARK    1  A    between atoms: C_3  and  C_5
REMARK                            x       y       z     vdW  Elec       q    Type
REMARK                         _______ _______ _______ _____ _____    ______ ____
ROOT
ATOM      1  O   UNL A   1     -28.123  -1.335  28.487  0.00  0.00    -0.273 OA
ATOM      2  C   UNL A   1     -27.064  -0.824  28.869  0.00  0.00    +0.245 C 
ATOM      3  C   UNL A   1     -26.402  -0.062  28.622  0.00  0.00    +0.100 C 
ATOM      4  N   UNL A   1     -26.265  -1.867  29.761  0.00  0.00    -0.205 NA
ATOM      5  C   UNL A   1     -25.000  -1.671  30.179  0.00  0.00    +0.115 C 
ATOM      6  C   UNL A   1     -24.979   0.319  29.150  0.00  0.00    +0.015 C 
ATOM      7  C   UNL A   1     -24.365  -0.541  29.933  0.00  0.00    +0.024 C 
ENDROOT
BRANCH   3   8
ATOM      8  C   UNL A   1     -26.844   1.134  27.880  0.00  0.00    -0.014 A 
ATOM      9  C   UNL A   1     -27.158   2.085  28.050  0.00  0.00    -0.004 A 
ATOM     10  C   UNL A   1     -26.599   0.718  26.364  0.00  0.00    -0.004 A 
ATOM     11  C   UNL A   1     -27.035   1.275  25.592  0.00  0.00    -0.000 A 
ATOM     12  C   UNL A   1     -27.651   3.091  27.102  0.00  0.00    -0.000 A 
ATOM     13  C   UNL A   1     -27.556   2.644  25.733  0.00  0.00    -0.000 A 
ENDBRANCH   3   8
TORSDOF 1
