MODEL 601
MODEL 1
REMARK VINA RESULT:    -6.356      0.000      0.000
REMARK INTER + INTRA:          -7.051
REMARK INTER:                  -6.727
REMARK INTRA:                  -0.324
REMARK UNBOUND:                -0.324
REMARK  Name = No_601-gen_results/8p0m/2024-11-26-14-13-15/
REMARK  1 active torsions:
REMARK  status: ('A' for Active; 'I' for Inactive)
REMARK    1  A    between atoms: C_3  and  C_5
REMARK                            x       y       z     vdW  Elec       q    Type
REMARK                         _______ _______ _______ _____ _____    ______ ____
ROOT
ATOM      1  O   UNL A   1     -25.631  -0.471  27.176  0.00  0.00    -0.273 OA
ATOM      2  C   UNL A   1     -24.612  -0.728  27.828  0.00  0.00    +0.245 C 
ATOM      3  C   UNL A   1     -24.292  -1.315  28.624  0.00  0.00    +0.100 C 
ATOM      4  N   UNL A   1     -23.572   0.462  27.675  0.00  0.00    -0.205 NA
ATOM      5  C   UNL A   1     -22.442   0.558  28.402  0.00  0.00    +0.115 C 
ATOM      6  C   UNL A   1     -22.954  -1.363  29.434  0.00  0.00    +0.015 C 
ATOM      7  C   UNL A   1     -22.087  -0.393  29.245  0.00  0.00    +0.024 C 
ENDROOT
BRANCH   3   8
ATOM      8  C   UNL A   1     -24.975  -2.573  28.980  0.00  0.00    -0.014 A 
ATOM      9  C   UNL A   1     -25.838  -2.898  29.406  0.00  0.00    -0.004 A 
ATOM     10  C   UNL A   1     -24.024  -3.681  28.348  0.00  0.00    -0.004 A 
ATOM     11  C   UNL A   1     -24.125  -4.682  28.636  0.00  0.00    -0.000 A 
ATOM     12  C   UNL A   1     -26.258  -4.262  29.746  0.00  0.00    -0.000 A 
ATOM     13  C   UNL A   1     -25.312  -5.254  29.291  0.00  0.00    -0.000 A 
ENDBRANCH   3   8
TORSDOF 1
ENDMDL
ENDMDL
