MODEL 602
MODEL 1
REMARK VINA RESULT:    -4.293      0.000      0.000
REMARK INTER + INTRA:          -4.293
REMARK INTER:                  -4.293
REMARK INTRA:                   0.000
REMARK UNBOUND:                 0.000
REMARK  Name = No_602-gen_results/8p0m/2024-11-26-14-13-15/
REMARK  0 active torsions:
REMARK  status: ('A' for Active; 'I' for Inactive)
REMARK                            x       y       z     vdW  Elec       q    Type
REMARK                         _______ _______ _______ _____ _____    ______ ____
ROOT
ATOM      1  C   UNL A   1     -26.216  -3.625  29.760  0.00  0.00    +0.000 A 
ATOM      2  C   UNL A   1     -26.093  -4.818  29.611  0.00  0.00    +0.000 A 
ATOM      3  C   UNL A   1     -25.019  -5.402  28.968  0.00  0.00    +0.000 A 
ATOM      4  C   UNL A   1     -23.983  -4.550  28.493  0.00  0.00    +0.000 A 
ATOM      5  C   UNL A   1     -24.082  -3.244  28.835  0.00  0.00    +0.000 A 
ATOM      6  C   UNL A   1     -25.130  -2.779  29.488  0.00  0.00    +0.000 A 
ENDROOT
TORSDOF 0
ENDMDL
ENDMDL
