MODEL 603
MODEL 1
REMARK VINA RESULT:    -6.551      0.000      0.000
REMARK INTER + INTRA:          -7.277
REMARK INTER:                  -6.934
REMARK INTRA:                  -0.343
REMARK UNBOUND:                -0.343
REMARK  Name = No_603-gen_results/8p0m/2024-11-26-14-13-15/
REMARK  1 active torsions:
REMARK  status: ('A' for Active; 'I' for Inactive)
REMARK    1  A    between atoms: C_2  and  C_7
REMARK                            x       y       z     vdW  Elec       q    Type
REMARK                         _______ _______ _______ _____ _____    ______ ____
ROOT
ATOM      1  C   UNL A   1     -24.048  -3.801  28.781  0.00  0.00    +0.000 A 
ATOM      2  C   UNL A   1     -24.480  -2.696  29.018  0.00  0.00    +0.000 A 
ATOM      3  C   UNL A   1     -25.738  -2.524  29.586  0.00  0.00    +0.000 A 
ATOM      4  C   UNL A   1     -26.585  -3.654  29.867  0.00  0.00    +0.000 A 
ATOM      5  C   UNL A   1     -26.016  -4.892  29.541  0.00  0.00    +0.000 A 
ATOM      6  C   UNL A   1     -24.828  -5.000  28.989  0.00  0.00    +0.000 A 
ENDROOT
BRANCH   2   7
ATOM      7  C   UNL A   1     -23.758  -1.420  28.768  0.00  0.00    +0.000 A 
ATOM      8  C   UNL A   1     -22.539  -1.219  29.125  0.00  0.00    +0.000 A 
ATOM      9  C   UNL A   1     -21.783  -0.042  28.910  0.00  0.00    +0.000 A 
ATOM     10  C   UNL A   1     -22.359   0.948  28.061  0.00  0.00    +0.000 A 
ATOM     11  C   UNL A   1     -23.611   0.728  27.558  0.00  0.00    +0.000 A 
ATOM     12  C   UNL A   1     -24.348  -0.451  27.885  0.00  0.00    +0.000 A 
ENDBRANCH   2   7
TORSDOF 1
ENDMDL
ENDMDL
