REMARK  Name = No_604-gen_results/8p0m/2024-11-26-14-13-15/
REMARK  0 active torsions:
REMARK  status: ('A' for Active; 'I' for Inactive)
REMARK                            x       y       z     vdW  Elec       q    Type
REMARK                         _______ _______ _______ _____ _____    ______ ____
ROOT
ATOM      1  C   UNL A   1     -28.016  -0.814  28.878  0.00  0.00    -0.004 A 
ATOM      2  C   UNL A   1     -28.469  -0.785  29.829  0.00  0.00    -0.000 A 
ATOM      3  C   UNL A   1     -26.504  -0.778  28.877  0.00  0.00    -0.020 A 
ATOM      4  C   UNL A   1     -25.654  -0.660  27.719  0.00  0.00    +0.053 C 
ATOM      5  C   UNL A   1     -27.918  -0.937  31.182  0.00  0.00    -0.000 A 
ATOM      6  C   UNL A   1     -26.542  -0.940  31.261  0.00  0.00    -0.003 A 
ATOM      7  C   UNL A   1     -25.783  -0.893  30.120  0.00  0.00    -0.004 A 
ATOM      8  C   UNL A   1     -25.926   0.282  26.744  0.00  0.00    -0.013 C 
ATOM      9  C   UNL A   1     -25.626   1.472  26.819  0.00  0.00    +0.045 C 
ATOM     10  C   UNL A   1     -24.816   1.966  27.965  0.00  0.00    -0.059 C 
ATOM     11  C   UNL A   1     -24.148   2.604  28.348  0.00  0.00    -0.059 C 
ATOM     12  C   UNL A   1     -23.499   2.545  29.696  0.00  0.00    +0.047 C 
ATOM     13  C   UNL A   1     -23.675   1.286  30.402  0.00  0.00    +0.006 C 
ATOM     14  C   UNL A   1     -24.416   0.346  29.976  0.00  0.00    +0.136 C 
ATOM     15  N   UNL A   1     -23.639  -0.081  28.754  0.00  0.00    -0.123 NA
ENDROOT
TORSDOF 0
