MODEL 604
MODEL 1
REMARK VINA RESULT:    -6.641      0.000      0.000
REMARK INTER + INTRA:          -6.641
REMARK INTER:                  -6.641
REMARK INTRA:                   0.000
REMARK UNBOUND:                 0.000
REMARK  Name = No_604-gen_results/8p0m/2024-11-26-14-13-15/
REMARK  0 active torsions:
REMARK  status: ('A' for Active; 'I' for Inactive)
REMARK                            x       y       z     vdW  Elec       q    Type
REMARK                         _______ _______ _______ _____ _____    ______ ____
ROOT
ATOM      1  C   UNL A   1     -26.596  -4.059  29.808  0.00  0.00    -0.004 A 
ATOM      2  C   UNL A   1     -26.060  -4.963  29.730  0.00  0.00    -0.000 A 
ATOM      3  C   UNL A   1     -25.885  -2.835  29.275  0.00  0.00    -0.020 A 
ATOM      4  C   UNL A   1     -26.332  -1.470  29.394  0.00  0.00    +0.053 C 
ATOM      5  C   UNL A   1     -24.834  -5.317  29.002  0.00  0.00    -0.000 A 
ATOM      6  C   UNL A   1     -24.142  -4.254  28.464  0.00  0.00    -0.003 A 
ATOM      7  C   UNL A   1     -24.649  -2.983  28.549  0.00  0.00    -0.004 A 
ATOM      8  C   UNL A   1     -26.788  -0.985  30.606  0.00  0.00    -0.013 C 
ATOM      9  C   UNL A   1     -26.063  -0.602  31.523  0.00  0.00    +0.045 C 
ATOM     10  C   UNL A   1     -24.590  -0.528  31.328  0.00  0.00    -0.059 C 
ATOM     11  C   UNL A   1     -23.705  -0.110  31.532  0.00  0.00    -0.059 C 
ATOM     12  C   UNL A   1     -22.396  -0.367  30.852  0.00  0.00    +0.047 C 
ATOM     13  C   UNL A   1     -22.494  -1.108  29.604  0.00  0.00    +0.006 C 
ATOM     14  C   UNL A   1     -23.580  -1.607  29.173  0.00  0.00    +0.136 C 
ATOM     15  N   UNL A   1     -24.352  -0.349  28.856  0.00  0.00    -0.123 NA
ENDROOT
TORSDOF 0
ENDMDL
ENDMDL
