MODEL 605
MODEL 1
REMARK VINA RESULT:    -5.752      0.000      0.000
REMARK INTER + INTRA:          -6.721
REMARK INTER:                  -6.425
REMARK INTRA:                  -0.296
REMARK UNBOUND:                -0.296
REMARK  Name = No_605-gen_results/8p0m/2024-11-26-14-13-15/
REMARK  2 active torsions:
REMARK  status: ('A' for Active; 'I' for Inactive)
REMARK    1  A    between atoms: C_1  and  C_2
REMARK    2  A    between atoms: C_5  and  C_10
REMARK                            x       y       z     vdW  Elec       q    Type
REMARK                         _______ _______ _______ _____ _____    ______ ____
ROOT
ATOM      1  C   UNL A   1     -29.748 -10.808  30.210  0.00  0.00    +0.071 A 
ATOM      2  C   UNL A   1     -29.849 -10.123  31.405  0.00  0.00    +0.004 A 
ATOM      3  C   UNL A   1     -29.029 -10.347  32.581  0.00  0.00    +0.005 A 
ATOM      4  C   UNL A   1     -28.038 -11.353  32.538  0.00  0.00    +0.057 A 
ATOM      5  C   UNL A   1     -27.914 -12.066  31.292  0.00  0.00    +0.005 A 
ATOM      6  C   UNL A   1     -28.678 -11.812  30.178  0.00  0.00    +0.004 A 
ENDROOT
BRANCH   1   7
ATOM      7  C   UNL A   1     -30.408 -10.547  29.231  0.00  0.00    +0.419 C 
ATOM      8  F   UNL A   1     -31.374 -11.230  29.111  0.00  0.00    -0.166 F 
ATOM      9  F   UNL A   1     -30.708  -9.202  29.050  0.00  0.00    -0.166 F 
ATOM     10  F   UNL A   1     -29.481 -10.939  28.240  0.00  0.00    -0.166 F 
ENDBRANCH   1   7
BRANCH   4  11
ATOM     11  C   UNL A   1     -27.199 -11.684  33.641  0.00  0.00    +0.284 C 
ATOM     12  N   UNL A   1     -27.092 -10.841  34.679  0.00  0.00    -0.084 NA
ATOM     13  O   UNL A   1     -26.780 -12.872  33.768  0.00  0.00    -0.267 OA
ENDBRANCH   4  11
TORSDOF 2
ENDMDL
ENDMDL
