REMARK  Name = No_606-gen_results/8p0m/2024-11-26-14-13-15/
REMARK  4 active torsions:
REMARK  status: ('A' for Active; 'I' for Inactive)
REMARK    1  A    between atoms: C_4  and  C_5
REMARK    2  A    between atoms: C_6  and  O_9
REMARK    3  A    between atoms: O_9  and  C_10
REMARK    4  A    between atoms: C_10  and  C_11
REMARK                            x       y       z     vdW  Elec       q    Type
REMARK                         _______ _______ _______ _____ _____    ______ ____
ROOT
ATOM      1  O   UNL A   1     -29.005  -2.657  30.199  0.00  0.00    -0.470 OA
ENDROOT
BRANCH   1   6
ATOM      2  C   UNL A   1     -28.016  -0.814  28.878  0.00  0.00    +0.037 A 
ATOM      3  C   UNL A   1     -27.064  -0.119  28.608  0.00  0.00    +0.003 A 
ATOM      4  C   UNL A   1     -25.765  -0.390  29.036  0.00  0.00    -0.004 A 
ATOM      5  C   UNL A   1     -25.530  -1.530  29.901  0.00  0.00    -0.019 A 
ATOM      6  C   UNL A   1     -27.927  -1.923  29.790  0.00  0.00    +0.139 A 
ATOM      7  C   UNL A   1     -26.691  -2.281  30.295  0.00  0.00    +0.033 A 
BRANCH   5   8
ATOM      8  C   UNL A   1     -24.324  -1.908  30.432  0.00  0.00    +0.026 C 
ATOM      9  C   UNL A   1     -23.281  -2.039  29.481  0.00  0.00    +0.005 C 
ENDBRANCH   5   8
ENDBRANCH   1   6
BRANCH   1  10
ATOM     10  C   UNL A   1     -30.097  -2.047  30.705  0.00  0.00    +0.235 C 
BRANCH  10  11
ATOM     11  C   UNL A   1     -30.139  -1.141  31.317  0.00  0.00    +0.060 A 
ATOM     12  C   UNL A   1     -30.601  -0.402  31.926  0.00  0.00    +0.003 A 
ATOM     13  C   UNL A   1     -30.073   0.813  32.621  0.00  0.00    -0.000 A 
ATOM     14  C   UNL A   1     -28.720   1.075  32.535  0.00  0.00    +0.003 A 
ATOM     15  C   UNL A   1     -27.943   0.168  31.871  0.00  0.00    +0.042 A 
ATOM     16  C   UNL A   1     -28.484  -0.954  31.370  0.00  0.00    +0.195 A 
ATOM     17  O   UNL A   1     -28.074  -1.908  32.498  0.00  0.00    -0.287 OA
ENDBRANCH  10  11
ENDBRANCH   1  10
TORSDOF 4
