MODEL 607
MODEL 1
REMARK VINA RESULT:    -6.512      0.000      0.000
REMARK INTER + INTRA:          -7.211
REMARK INTER:                  -6.892
REMARK INTRA:                  -0.319
REMARK UNBOUND:                -0.319
REMARK  Name = No_607-gen_results/8p0m/2024-11-26-14-13-15/
REMARK  1 active torsions:
REMARK  status: ('A' for Active; 'I' for Inactive)
REMARK    1  A    between atoms: C_4  and  C_7
REMARK                            x       y       z     vdW  Elec       q    Type
REMARK                         _______ _______ _______ _____ _____    ______ ____
ROOT
ATOM      1  C   UNL A   1     -26.508  -4.025  29.818  0.00  0.00    +0.000 A 
ATOM      2  C   UNL A   1     -25.953  -4.867  29.511  0.00  0.00    +0.000 A 
ATOM      3  C   UNL A   1     -25.806  -2.732  29.800  0.00  0.00    +0.000 A 
ATOM      4  C   UNL A   1     -24.492  -2.628  29.256  0.00  0.00    +0.000 A 
ATOM      5  C   UNL A   1     -23.919  -3.802  28.838  0.00  0.00    +0.000 A 
ATOM      6  C   UNL A   1     -24.600  -4.966  28.901  0.00  0.00    +0.000 A 
ENDROOT
BRANCH   4   7
ATOM      7  C   UNL A   1     -23.796  -1.367  29.213  0.00  0.00    +0.000 A 
ATOM      8  C   UNL A   1     -22.528  -1.227  29.183  0.00  0.00    +0.000 A 
ATOM      9  C   UNL A   1     -21.866   0.060  28.931  0.00  0.00    +0.000 A 
ATOM     10  C   UNL A   1     -24.170  -0.410  28.103  0.00  0.00    +0.000 A 
ATOM     11  C   UNL A   1     -23.468   0.740  27.927  0.00  0.00    +0.000 A 
ATOM     12  C   UNL A   1     -22.191   0.812  27.965  0.00  0.00    +0.000 A 
ENDBRANCH   4   7
TORSDOF 1
ENDMDL
ENDMDL
