REMARK  Name = No_608-gen_results/8p0m/2024-11-26-14-13-15/
REMARK  4 active torsions:
REMARK  status: ('A' for Active; 'I' for Inactive)
REMARK    1  A    between atoms: C_1  and  C_2
REMARK    2  A    between atoms: C_5  and  C_11
REMARK    3  A    between atoms: N_8  and  C_10
REMARK    4  A    between atoms: C_16  and  C_19
REMARK                            x       y       z     vdW  Elec       q    Type
REMARK                         _______ _______ _______ _____ _____    ______ ____
ROOT
ATOM      1  C   UNL A   1     -28.016  -0.814  28.878  0.00  0.00    +0.269 C 
ATOM      2  N   UNL A   1     -27.952  -1.752  29.938  0.00  0.00    -0.175 NA
ATOM      3  O   UNL A   1     -29.211  -0.338  28.743  0.00  0.00    -0.268 OA
ENDROOT
BRANCH   1   4
ATOM      4  C   UNL A   1     -27.064  -0.119  28.608  0.00  0.00    +0.055 A 
ATOM      5  C   UNL A   1     -25.792  -0.430  29.076  0.00  0.00    +0.005 A 
ATOM      6  C   UNL A   1     -24.546   0.349  28.823  0.00  0.00    +0.005 A 
ATOM      7  C   UNL A   1     -24.659   1.420  27.888  0.00  0.00    +0.057 A 
ATOM      8  C   UNL A   1     -25.947   1.681  27.379  0.00  0.00    +0.005 A 
ATOM      9  C   UNL A   1     -27.044   0.974  27.687  0.00  0.00    +0.005 A 
BRANCH   7  10
ATOM     10  C   UNL A   1     -23.461   2.165  27.597  0.00  0.00    +0.284 C 
ATOM     11  N   UNL A   1     -22.494   1.775  27.181  0.00  0.00    -0.084 NA
ATOM     12  O   UNL A   1     -23.697   3.487  27.559  0.00  0.00    -0.267 OA
ENDBRANCH   7  10
ENDBRANCH   1   4
BRANCH   2  13
ATOM     13  C   UNL A   1     -29.027  -2.537  30.497  0.00  0.00    +0.074 A 
ATOM     14  C   UNL A   1     -29.269  -2.136  31.743  0.00  0.00    +0.017 A 
ATOM     15  C   UNL A   1     -30.136  -3.096  32.494  0.00  0.00    +0.001 A 
ATOM     16  C   UNL A   1     -30.591  -4.259  31.855  0.00  0.00    -0.000 A 
ATOM     17  C   UNL A   1     -30.184  -4.560  30.560  0.00  0.00    +0.001 A 
ATOM     18  C   UNL A   1     -29.284  -3.755  29.974  0.00  0.00    +0.017 A 
BRANCH  16  19
ATOM     19  C   UNL A   1     -31.548  -5.172  32.561  0.00  0.00    -0.005 C 
ATOM     20  C   UNL A   1     -31.871  -6.201  32.092  0.00  0.00    -0.026 C 
ATOM     21  C   UNL A   1     -31.422  -6.638  30.705  0.00  0.00    +0.031 C 
ENDBRANCH  16  19
ENDBRANCH   2  13
TORSDOF 4
