MODEL 608
MODEL 1
REMARK VINA RESULT:    -6.948      0.000      0.000
REMARK INTER + INTRA:          -8.694
REMARK INTER:                  -8.573
REMARK INTRA:                  -0.121
REMARK UNBOUND:                -0.121
REMARK  Name = No_608-gen_results/8p0m/2024-11-26-14-13-15/
REMARK  4 active torsions:
REMARK  status: ('A' for Active; 'I' for Inactive)
REMARK    1  A    between atoms: C_1  and  C_2
REMARK    2  A    between atoms: C_5  and  C_11
REMARK    3  A    between atoms: N_8  and  C_10
REMARK    4  A    between atoms: C_16  and  C_19
REMARK                            x       y       z     vdW  Elec       q    Type
REMARK                         _______ _______ _______ _____ _____    ______ ____
ROOT
ATOM      1  C   UNL A   1      -8.440   0.482  35.139  0.00  0.00    +0.269 C 
ATOM      2  N   UNL A   1      -9.092   1.157  34.077  0.00  0.00    -0.175 NA
ATOM      3  O   UNL A   1      -9.292   0.007  35.988  0.00  0.00    -0.268 OA
ENDROOT
BRANCH   1   4
ATOM      4  C   UNL A   1      -7.396  -0.100  34.954  0.00  0.00    +0.055 A 
ATOM      5  C   UNL A   1      -6.188   0.441  35.380  0.00  0.00    +0.005 A 
ATOM      6  C   UNL A   1      -4.839  -0.170  35.204  0.00  0.00    +0.005 A 
ATOM      7  C   UNL A   1      -4.819  -1.499  34.688  0.00  0.00    +0.057 A 
ATOM      8  C   UNL A   1      -6.061  -2.052  34.318  0.00  0.00    +0.005 A 
ATOM      9  C   UNL A   1      -7.241  -1.429  34.453  0.00  0.00    +0.005 A 
BRANCH   7  10
ATOM     10  C   UNL A   1      -3.531  -2.127  34.543  0.00  0.00    +0.284 C 
ATOM     11  N   UNL A   1      -2.924  -2.241  33.606  0.00  0.00    -0.084 NA
ATOM     12  O   UNL A   1      -2.926  -2.297  35.731  0.00  0.00    -0.267 OA
ENDBRANCH   7  10
ENDBRANCH   1   4
BRANCH   2  13
ATOM     13  C   UNL A   1     -10.405   1.756  34.077  0.00  0.00    +0.074 A 
ATOM     14  C   UNL A   1     -10.391   2.858  34.823  0.00  0.00    +0.017 A 
ATOM     15  C   UNL A   1     -11.767   3.356  35.135  0.00  0.00    +0.001 A 
ATOM     16  C   UNL A   1     -12.880   2.660  34.639  0.00  0.00    -0.000 A 
ATOM     17  C   UNL A   1     -12.715   1.478  33.926  0.00  0.00    +0.001 A 
ATOM     18  C   UNL A   1     -11.475   0.980  33.799  0.00  0.00    +0.017 A 
BRANCH  16  19
ATOM     19  C   UNL A   1     -14.258   3.210  34.852  0.00  0.00    -0.005 C 
ATOM     20  C   UNL A   1     -14.739   3.257  35.924  0.00  0.00    -0.026 C 
ATOM     21  C   UNL A   1     -14.046   2.682  37.151  0.00  0.00    +0.031 C 
ENDBRANCH  16  19
ENDBRANCH   2  13
TORSDOF 4
ENDMDL
ENDMDL
