MODEL 609
MODEL 1
REMARK VINA RESULT:    -6.741      0.000      0.000
REMARK INTER + INTRA:          -7.490
REMARK INTER:                  -7.135
REMARK INTRA:                  -0.355
REMARK UNBOUND:                -0.355
REMARK  Name = No_609-gen_results/8p0m/2024-11-26-14-13-15/
REMARK  1 active torsions:
REMARK  status: ('A' for Active; 'I' for Inactive)
REMARK    1  A    between atoms: C_7  and  C_8
REMARK                            x       y       z     vdW  Elec       q    Type
REMARK                         _______ _______ _______ _____ _____    ______ ____
ROOT
ATOM      1  C   UNL A   1     -22.108   0.238  28.868  0.00  0.00    +0.030 A 
ATOM      2  C   UNL A   1     -22.677   0.999  28.120  0.00  0.00    +0.140 A 
ATOM      3  F   UNL A   1     -22.171   2.109  27.804  0.00  0.00    -0.204 F 
ATOM      4  C   UNL A   1     -23.880   0.706  27.341  0.00  0.00    +0.030 A 
ATOM      5  C   UNL A   1     -22.848  -0.952  29.308  0.00  0.00    +0.002 A 
ATOM      6  C   UNL A   1     -24.518  -0.494  27.659  0.00  0.00    +0.002 A 
ATOM      7  C   UNL A   1     -23.972  -1.306  28.620  0.00  0.00    +0.000 A 
ENDROOT
BRANCH   7   8
ATOM      8  C   UNL A   1     -24.657  -2.568  28.940  0.00  0.00    +0.000 A 
ATOM      9  C   UNL A   1     -25.774  -2.566  29.504  0.00  0.00    +0.000 A 
ATOM     10  C   UNL A   1     -26.448  -3.779  29.882  0.00  0.00    +0.000 A 
ATOM     11  C   UNL A   1     -23.968  -3.768  28.659  0.00  0.00    +0.000 A 
ATOM     12  C   UNL A   1     -24.602  -5.012  28.949  0.00  0.00    +0.000 A 
ATOM     13  C   UNL A   1     -25.835  -4.986  29.518  0.00  0.00    +0.000 A 
ENDBRANCH   7   8
TORSDOF 1
ENDMDL
ENDMDL
