REMARK  Name = No_61-gen_results/8p0m/2024-11-26-14-13-15/
REMARK  5 active torsions:
REMARK  status: ('A' for Active; 'I' for Inactive)
REMARK    1  A    between atoms: C_2  and  C_18
REMARK    2  A    between atoms: C_4  and  C_7
REMARK    3  A    between atoms: C_7  and  C_8
REMARK    4  A    between atoms: C_8  and  C_9
REMARK    5  A    between atoms: C_10  and  C_11
REMARK                            x       y       z     vdW  Elec       q    Type
REMARK                         _______ _______ _______ _____ _____    ______ ____
ROOT
ATOM      1  C   UNL A   1     -28.016  -0.814  28.878  0.00  0.00    +0.048 A 
ATOM      2  C   UNL A   1     -28.469  -0.785  29.829  0.00  0.00    +0.083 A 
ATOM      3  C   UNL A   1     -26.546  -0.876  28.850  0.00  0.00    +0.192 A 
ATOM      4  C   UNL A   1     -25.804  -1.032  30.057  0.00  0.00    +0.017 A 
ATOM      5  C   UNL A   1     -26.537  -1.039  31.217  0.00  0.00    -0.001 A 
ATOM      6  C   UNL A   1     -27.884  -0.953  31.186  0.00  0.00    +0.006 A 
ATOM      7  O   UNL A   1     -25.738  -1.062  27.779  0.00  0.00    -0.287 OA
ENDROOT
BRANCH   2   8
ATOM      8  C   UNL A   1     -30.061  -0.624  29.847  0.00  0.00    +0.388 C 
ATOM      9  O   UNL A   1     -30.496  -0.203  28.898  0.00  0.00    -0.241 OA
ATOM     10  O   UNL A   1     -30.699  -0.611  30.975  0.00  0.00    -0.241 OA
ENDBRANCH   2   8
BRANCH   4  11
ATOM     11  C   UNL A   1     -24.366  -1.113  30.048  0.00  0.00    +0.034 C 
BRANCH  11  12
ATOM     12  C   UNL A   1     -23.692   0.119  29.919  0.00  0.00    +0.031 C 
BRANCH  12  13
ATOM     13  C   UNL A   1     -23.178   0.582  28.788  0.00  0.00    -0.026 C 
ATOM     14  C   UNL A   1     -23.026   1.904  28.371  0.00  0.00    -0.003 C 
BRANCH  14  15
ATOM     15  C   UNL A   1     -24.028   2.312  27.683  0.00  0.00    +0.019 A 
ATOM     16  C   UNL A   1     -24.407   3.687  27.723  0.00  0.00    +0.099 A 
ATOM     17  C   UNL A   1     -24.564   1.531  26.642  0.00  0.00    +0.003 A 
ATOM     18  N   UNL A   1     -25.286   4.162  26.793  0.00  0.00    -0.242 NA
ATOM     19  C   UNL A   1     -25.503   2.024  25.770  0.00  0.00    +0.021 A 
ATOM     20  C   UNL A   1     -25.840   3.397  25.874  0.00  0.00    +0.099 A 
ENDBRANCH  14  15
ENDBRANCH  12  13
ENDBRANCH  11  12
ENDBRANCH   4  11
TORSDOF 5
