MODEL 610
MODEL 1
REMARK VINA RESULT:    -4.880      0.000      0.000
REMARK INTER + INTRA:          -5.215
REMARK INTER:                  -5.166
REMARK INTRA:                  -0.049
REMARK UNBOUND:                -0.049
REMARK  Name = No_610-gen_results/8p0m/2024-11-26-14-13-15/
REMARK  1 active torsions:
REMARK  status: ('A' for Active; 'I' for Inactive)
REMARK    1  A    between atoms: C_1  and  C_8
REMARK                            x       y       z     vdW  Elec       q    Type
REMARK                         _______ _______ _______ _____ _____    ______ ____
ROOT
ATOM      1  C   UNL A   1     -23.346  -1.984  28.925  0.00  0.00    -0.014 C 
ATOM      2  C   UNL A   1     -24.170  -2.837  29.158  0.00  0.00    -0.047 C 
ATOM      3  C   UNL A   1     -24.038  -4.180  28.845  0.00  0.00    +0.022 C 
ATOM      4  C   UNL A   1     -25.036  -5.204  29.037  0.00  0.00    +0.004 C 
ATOM      5  C   UNL A   1     -26.280  -4.838  29.604  0.00  0.00    +0.001 C 
ATOM      6  C   UNL A   1     -26.480  -3.477  29.951  0.00  0.00    +0.004 C 
ATOM      7  C   UNL A   1     -25.487  -2.579  29.703  0.00  0.00    +0.022 C 
ENDROOT
BRANCH   1   8
ATOM      8  C   UNL A   1     -23.542  -0.594  29.461  0.00  0.00    +0.135 C 
ATOM      9  N   UNL A   1     -22.703  -0.053  30.329  0.00  0.00    -0.126 NA
ENDBRANCH   1   8
TORSDOF 1
ENDMDL
ENDMDL
