MODEL 611
MODEL 1
REMARK VINA RESULT:    -5.020      0.000      0.000
REMARK INTER + INTRA:          -5.020
REMARK INTER:                  -5.020
REMARK INTRA:                   0.000
REMARK UNBOUND:                 0.000
REMARK  Name = No_611-gen_results/8p0m/2024-11-26-14-13-15/
REMARK  0 active torsions:
REMARK  status: ('A' for Active; 'I' for Inactive)
REMARK                            x       y       z     vdW  Elec       q    Type
REMARK                         _______ _______ _______ _____ _____    ______ ____
ROOT
ATOM      1  C   UNL A   1     -10.496  -9.274  19.196  0.00  0.00    +0.042 A 
ATOM      2  C   UNL A   1      -9.747  -9.076  20.125  0.00  0.00    +0.003 A 
ATOM      3  C   UNL A   1      -8.451  -9.580  20.122  0.00  0.00    +0.000 A 
ATOM      4  C   UNL A   1      -7.975 -10.394  19.033  0.00  0.00    +0.003 A 
ATOM      5  C   UNL A   1      -8.914 -10.593  18.013  0.00  0.00    +0.042 A 
ATOM      6  C   UNL A   1     -10.133 -10.108  18.071  0.00  0.00    +0.196 A 
ATOM      7  O   UNL A   1     -10.997 -10.380  17.055  0.00  0.00    -0.287 OA
ENDROOT
TORSDOF 0
ENDMDL
ENDMDL
