MODEL 612
MODEL 1
REMARK VINA RESULT:    -5.056      0.000      0.000
REMARK INTER + INTRA:          -5.056
REMARK INTER:                  -5.056
REMARK INTRA:                   0.000
REMARK UNBOUND:                 0.000
REMARK  Name = No_612-gen_results/8p0m/2024-11-26-14-13-15/
REMARK  0 active torsions:
REMARK  status: ('A' for Active; 'I' for Inactive)
REMARK                            x       y       z     vdW  Elec       q    Type
REMARK                         _______ _______ _______ _____ _____    ______ ____
ROOT
ATOM      1  C   UNL A   1     -23.973  -4.445  28.629  0.00  0.00    +0.060 A 
ATOM      2  C   UNL A   1     -24.881  -4.937  28.842  0.00  0.00    +0.142 A 
ATOM      3  C   UNL A   1     -23.922  -2.982  29.008  0.00  0.00    +0.153 A 
ATOM      4  C   UNL A   1     -24.994  -2.417  29.730  0.00  0.00    +0.085 A 
ATOM      5  C   UNL A   1     -26.108  -4.599  29.599  0.00  0.00    +0.031 A 
ATOM      6  C   UNL A   1     -26.094  -3.261  29.970  0.00  0.00    +0.016 A 
ATOM      7 CL   UNL A   1     -25.011  -0.823  30.148  0.00  0.00    -0.080 Cl
ATOM      8  F   UNL A   1     -24.913  -6.367  28.480  0.00  0.00    -0.204 F 
ATOM      9  F   UNL A   1     -22.954  -2.052  28.949  0.00  0.00    -0.203 F 
ENDROOT
TORSDOF 0
ENDMDL
ENDMDL
