REMARK  Name = No_613-gen_results/8p0m/2024-11-26-14-13-15/
REMARK  6 active torsions:
REMARK  status: ('A' for Active; 'I' for Inactive)
REMARK    1  A    between atoms: C_1  and  C_6
REMARK    2  A    between atoms: C_4  and  C_15
REMARK    3  A    between atoms: C_15  and  C_17
REMARK    4  A    between atoms: C_25  and  C_27
REMARK    5  A    between atoms: C_26  and  C_33
REMARK    6  A    between atoms: C_33  and  C_34
REMARK                            x       y       z     vdW  Elec       q    Type
REMARK                         _______ _______ _______ _____ _____    ______ ____
ROOT
ATOM      1  C   UNL A   1     -29.276   2.264  25.023  0.00  0.00    -0.019 A 
ATOM      2  C   UNL A   1     -29.430   3.525  25.471  0.00  0.00    -0.004 A 
ATOM      3  C   UNL A   1     -28.518   4.259  26.040  0.00  0.00    -0.000 A 
ATOM      4  C   UNL A   1     -28.799   5.631  26.477  0.00  0.00    -0.000 A 
ATOM      5  C   UNL A   1     -30.082   6.098  26.293  0.00  0.00    -0.000 A 
ATOM      6  C   UNL A   1     -31.087   5.320  25.774  0.00  0.00    -0.000 A 
ATOM      7  C   UNL A   1     -30.777   4.047  25.331  0.00  0.00    -0.001 A 
ATOM      8  C   UNL A   1     -30.037   1.548  24.163  0.00  0.00    -0.008 A 
ATOM      9  C   UNL A   1     -31.734   3.289  24.669  0.00  0.00    -0.004 A 
ATOM     10  C   UNL A   1     -31.368   2.083  24.014  0.00  0.00    -0.018 A 
ENDROOT
BRANCH   9  11
ATOM     11  C   UNL A   1     -33.039   3.864  24.271  0.00  0.00    -0.000 A 
ATOM     12  C   UNL A   1     -33.521   3.748  23.136  0.00  0.00    -0.000 A 
ATOM     13  C   UNL A   1     -34.469   4.275  22.681  0.00  0.00    -0.000 A 
ATOM     14  C   UNL A   1     -35.259   5.205  23.530  0.00  0.00    -0.000 A 
ATOM     15  C   UNL A   1     -34.798   5.404  24.788  0.00  0.00    -0.000 A 
ATOM     16  C   UNL A   1     -33.666   4.842  25.187  0.00  0.00    -0.000 A 
ENDBRANCH   9  11
BRANCH   1  17
ATOM     17  C   UNL A   1     -28.028   1.635  25.440  0.00  0.00    +0.045 C 
ATOM     18  C   UNL A   1     -26.991   1.725  24.728  0.00  0.00    +0.009 C 
BRANCH  17  22
ATOM     19  C   UNL A   1     -28.016  -0.814  28.878  0.00  0.00    +0.054 A 
ATOM     20  C   UNL A   1     -27.064  -0.119  28.608  0.00  0.00    +0.004 A 
ATOM     21  C   UNL A   1     -26.972   0.714  27.506  0.00  0.00    -0.004 A 
ATOM     22  C   UNL A   1     -28.105   0.774  26.642  0.00  0.00    -0.018 A 
ATOM     23  C   UNL A   1     -29.201   0.104  27.053  0.00  0.00    -0.004 A 
ATOM     24  C   UNL A   1     -29.164  -0.639  28.148  0.00  0.00    +0.004 A 
BRANCH  19  25
ATOM     25  C   UNL A   1     -28.022  -1.590  30.088  0.00  0.00    +0.249 C 
ATOM     26  N   UNL A   1     -28.838  -1.898  30.766  0.00  0.00    -0.276 N 
ATOM     27  O   UNL A   1     -26.917  -2.460  30.162  0.00  0.00    -0.270 OA
ATOM     28  C   UNL A   1     -30.091  -1.116  30.899  0.00  0.00    +0.094 C 
ATOM     29  C   UNL A   1     -31.089  -1.726  31.600  0.00  0.00    +0.022 C 
ATOM     30  C   UNL A   1     -29.029  -3.106  31.578  0.00  0.00    +0.094 C 
ATOM     31  C   UNL A   1     -29.927  -3.624  31.717  0.00  0.00    +0.022 C 
ATOM     32  C   UNL A   1     -31.084  -2.929  32.257  0.00  0.00    +0.004 C 
ENDBRANCH  19  25
ENDBRANCH  17  22
ENDBRANCH   1  17
BRANCH  10  33
ATOM     33  C   UNL A   1     -32.327   1.197  23.339  0.00  0.00    +0.052 C 
BRANCH  33  34
ATOM     34  C   UNL A   1     -33.118   0.465  24.219  0.00  0.00    -0.021 C 
ATOM     35  C   UNL A   1     -32.593  -0.341  25.079  0.00  0.00    -0.005 C 
ENDBRANCH  33  34
ENDBRANCH  10  33
TORSDOF 6
