MODEL 613
MODEL 1
REMARK VINA RESULT:    -8.054      0.000      0.000
REMARK INTER + INTRA:         -13.193
REMARK INTER:                 -10.879
REMARK INTRA:                  -2.314
REMARK UNBOUND:                -2.314
REMARK  Name = No_613-gen_results/8p0m/2024-11-26-14-13-15/
REMARK  6 active torsions:
REMARK  status: ('A' for Active; 'I' for Inactive)
REMARK    1  A    between atoms: C_1  and  C_6
REMARK    2  A    between atoms: C_4  and  C_15
REMARK    3  A    between atoms: C_15  and  C_17
REMARK    4  A    between atoms: C_25  and  C_27
REMARK    5  A    between atoms: C_26  and  C_33
REMARK    6  A    between atoms: C_33  and  C_34
REMARK                            x       y       z     vdW  Elec       q    Type
REMARK                         _______ _______ _______ _____ _____    ______ ____
ROOT
ATOM      1  C   UNL A   1     -23.989   0.693  28.898  0.00  0.00    -0.019 A 
ATOM      2  C   UNL A   1     -24.371  -0.581  29.112  0.00  0.00    -0.004 A 
ATOM      3  C   UNL A   1     -24.246  -1.575  28.280  0.00  0.00    -0.000 A 
ATOM      4  C   UNL A   1     -24.688  -2.929  28.629  0.00  0.00    -0.000 A 
ATOM      5  C   UNL A   1     -25.276  -3.098  29.864  0.00  0.00    -0.000 A 
ATOM      6  C   UNL A   1     -25.499  -2.056  30.728  0.00  0.00    -0.000 A 
ATOM      7  C   UNL A   1     -25.029  -0.800  30.386  0.00  0.00    -0.001 A 
ATOM      8  C   UNL A   1     -23.790   1.700  29.780  0.00  0.00    -0.008 A 
ATOM      9  C   UNL A   1     -25.108   0.243  31.299  0.00  0.00    -0.004 A 
ATOM     10  C   UNL A   1     -24.431   1.467  31.050  0.00  0.00    -0.018 A 
ENDROOT
BRANCH   9  11
ATOM     11  C   UNL A   1     -25.531   0.018  32.700  0.00  0.00    -0.000 A 
ATOM     12  C   UNL A   1     -24.773  -0.399  33.586  0.00  0.00    -0.000 A 
ATOM     13  C   UNL A   1     -25.037  -0.741  34.680  0.00  0.00    -0.000 A 
ATOM     14  C   UNL A   1     -26.448  -0.671  35.141  0.00  0.00    -0.000 A 
ATOM     15  C   UNL A   1     -27.354  -0.236  34.232  0.00  0.00    -0.000 A 
ATOM     16  C   UNL A   1     -26.982   0.038  32.990  0.00  0.00    -0.000 A 
ENDBRANCH   9  11
BRANCH   1  17
ATOM     17  C   UNL A   1     -23.618   0.977  27.516  0.00  0.00    +0.045 C 
ATOM     18  C   UNL A   1     -22.439   1.312  27.222  0.00  0.00    +0.009 C 
BRANCH  17  22
ATOM     19  C   UNL A   1     -26.918   1.130  24.889  0.00  0.00    +0.054 A 
ATOM     20  C   UNL A   1     -26.881   1.823  25.880  0.00  0.00    +0.004 A 
ATOM     21  C   UNL A   1     -25.847   1.842  26.801  0.00  0.00    -0.004 A 
ATOM     22  C   UNL A   1     -24.728   0.999  26.537  0.00  0.00    -0.018 A 
ATOM     23  C   UNL A   1     -24.736   0.356  25.352  0.00  0.00    -0.004 A 
ATOM     24  C   UNL A   1     -25.782   0.443  24.545  0.00  0.00    +0.004 A 
BRANCH  19  25
ATOM     25  C   UNL A   1     -28.018   1.245  23.971  0.00  0.00    +0.249 C 
ATOM     26  N   UNL A   1     -28.855   0.565  23.730  0.00  0.00    -0.276 N 
ATOM     27  O   UNL A   1     -28.330   2.588  23.686  0.00  0.00    -0.270 OA
ATOM     28  C   UNL A   1     -28.753  -0.904  23.902  0.00  0.00    +0.094 C 
ATOM     29  C   UNL A   1     -29.925  -1.590  23.774  0.00  0.00    +0.022 C 
ATOM     30  C   UNL A   1     -30.244   0.829  23.334  0.00  0.00    +0.094 C 
ATOM     31  C   UNL A   1     -31.090   0.305  23.656  0.00  0.00    +0.022 C 
ATOM     32  C   UNL A   1     -31.173  -1.130  23.445  0.00  0.00    +0.004 C 
ENDBRANCH  19  25
ENDBRANCH  17  22
ENDBRANCH   1  17
BRANCH  10  33
ATOM     33  C   UNL A   1     -24.507   2.637  31.937  0.00  0.00    +0.052 C 
BRANCH  33  34
ATOM     34  C   UNL A   1     -25.675   3.377  31.777  0.00  0.00    -0.021 C 
ATOM     35  C   UNL A   1     -26.388   3.729  32.792  0.00  0.00    -0.005 C 
ENDBRANCH  33  34
ENDBRANCH  10  33
TORSDOF 6
ENDMDL
ENDMDL
