REMARK  Name = No_614-gen_results/8p0m/2024-11-26-14-13-15/
REMARK  3 active torsions:
REMARK  status: ('A' for Active; 'I' for Inactive)
REMARK    1  A    between atoms: C_1  and  O_14
REMARK    2  A    between atoms: C_3  and  C_4
REMARK    3  A    between atoms: O_14  and  C_15
REMARK                            x       y       z     vdW  Elec       q    Type
REMARK                         _______ _______ _______ _____ _____    ______ ____
ROOT
ATOM      1  C   UNL A   1     -28.016  -0.814  28.878  0.00  0.00    +0.156 A 
ATOM      2  C   UNL A   1     -27.064  -0.119  28.608  0.00  0.00    +0.038 A 
ATOM      3  C   UNL A   1     -25.792  -0.430  29.076  0.00  0.00    +0.003 A 
ATOM      4  C   UNL A   1     -27.905  -1.898  29.873  0.00  0.00    +0.092 A 
ATOM      5  C   UNL A   1     -26.680  -2.314  30.318  0.00  0.00    +0.015 A 
ATOM      6  C   UNL A   1     -25.520  -1.556  29.977  0.00  0.00    +0.001 A 
ATOM      7 CL   UNL A   1     -29.205  -2.966  30.387  0.00  0.00    -0.079 Cl
ENDROOT
BRANCH   3   8
ATOM      8  C   UNL A   1     -24.546   0.349  28.823  0.00  0.00    +0.000 A 
ATOM      9  C   UNL A   1     -23.241   0.022  29.332  0.00  0.00    +0.000 A 
ATOM     10  C   UNL A   1     -22.136   0.769  29.006  0.00  0.00    +0.000 A 
ATOM     11  C   UNL A   1     -22.125   1.736  28.024  0.00  0.00    +0.000 A 
ATOM     12  C   UNL A   1     -24.606   1.605  28.064  0.00  0.00    +0.000 A 
ATOM     13  C   UNL A   1     -23.376   2.171  27.595  0.00  0.00    +0.000 A 
ENDBRANCH   3   8
BRANCH   1  14
ATOM     14  O   UNL A   1     -29.297  -0.550  28.504  0.00  0.00    -0.453 OA
BRANCH  14  15
ATOM     15  C   UNL A   1     -29.712   0.770  28.524  0.00  0.00    +0.145 A 
ATOM     16  C   UNL A   1     -29.905   1.380  29.600  0.00  0.00    +0.037 A 
ATOM     17  C   UNL A   1     -30.235   2.741  29.629  0.00  0.00    +0.003 A 
ATOM     18  C   UNL A   1     -29.952   1.310  27.193  0.00  0.00    +0.037 A 
ATOM     19  C   UNL A   1     -30.377   2.677  27.194  0.00  0.00    +0.003 A 
ATOM     20  C   UNL A   1     -30.555   3.381  28.399  0.00  0.00    +0.000 A 
ENDBRANCH  14  15
ENDBRANCH   1  14
TORSDOF 3
