MODEL 615
MODEL 1
REMARK VINA RESULT:    -2.596      0.000      0.000
REMARK INTER + INTRA:          -2.596
REMARK INTER:                  -2.596
REMARK INTRA:                   0.000
REMARK UNBOUND:                 0.000
REMARK  Name = No_615-gen_results/8p0m/2024-11-26-14-13-15/
REMARK  0 active torsions:
REMARK  status: ('A' for Active; 'I' for Inactive)
REMARK                            x       y       z     vdW  Elec       q    Type
REMARK                         _______ _______ _______ _____ _____    ______ ____
ROOT
ATOM      1  O   UNL A   1     -11.240 -10.473  16.956  0.00  0.00    -0.283 OA
ATOM      2  C   UNL A   1     -10.157 -10.329  17.535  0.00  0.00    +0.234 C 
ATOM      3  C   UNL A   1      -9.157 -10.503  17.390  0.00  0.00    +0.049 C 
ENDROOT
TORSDOF 0
ENDMDL
ENDMDL
