MODEL 616
MODEL 1
REMARK VINA RESULT:    -6.122      0.000      0.000
REMARK INTER + INTRA:          -7.191
REMARK INTER:                  -6.838
REMARK INTRA:                  -0.353
REMARK UNBOUND:                -0.353
REMARK  Name = No_616-gen_results/8p0m/2024-11-26-14-13-15/
REMARK  2 active torsions:
REMARK  status: ('A' for Active; 'I' for Inactive)
REMARK    1  A    between atoms: C_2  and  O_7
REMARK    2  A    between atoms: O_7  and  C_8
REMARK                            x       y       z     vdW  Elec       q    Type
REMARK                         _______ _______ _______ _____ _____    ______ ____
ROOT
ATOM      1  O   UNL A   1     -24.093  -1.281  29.748  0.00  0.00    -0.454 OA
ENDROOT
BRANCH   1   3
ATOM      2  C   UNL A   1     -23.811  -3.367  28.882  0.00  0.00    +0.037 A 
ATOM      3  C   UNL A   1     -24.517  -2.586  29.476  0.00  0.00    +0.145 A 
ATOM      4  C   UNL A   1     -25.755  -2.887  29.945  0.00  0.00    +0.037 A 
ATOM      5  C   UNL A   1     -26.253  -4.186  29.730  0.00  0.00    +0.003 A 
ATOM      6  C   UNL A   1     -24.217  -4.739  28.711  0.00  0.00    +0.003 A 
ATOM      7  C   UNL A   1     -25.464  -5.085  29.138  0.00  0.00    +0.000 A 
ENDBRANCH   1   3
BRANCH   1   8
ATOM      8  C   UNL A   1     -23.792  -0.370  28.670  0.00  0.00    +0.145 A 
ATOM      9  C   UNL A   1     -22.623   0.416  28.812  0.00  0.00    +0.037 A 
ATOM     10  C   UNL A   1     -22.352   1.274  27.771  0.00  0.00    +0.003 A 
ATOM     11  C   UNL A   1     -23.265   1.494  26.718  0.00  0.00    +0.000 A 
ATOM     12  C   UNL A   1     -24.644  -0.188  27.616  0.00  0.00    +0.037 A 
ATOM     13  C   UNL A   1     -24.425   0.750  26.684  0.00  0.00    +0.003 A 
ENDBRANCH   1   8
TORSDOF 2
ENDMDL
ENDMDL
