REMARK  Name = No_617-gen_results/8p0m/2024-11-26-14-13-15/
REMARK  1 active torsions:
REMARK  status: ('A' for Active; 'I' for Inactive)
REMARK    1  A    between atoms: C_2  and  N_5
REMARK                            x       y       z     vdW  Elec       q    Type
REMARK                         _______ _______ _______ _____ _____    ______ ____
ROOT
ATOM      1  O   UNL A   1     -28.123  -1.335  28.487  0.00  0.00    -0.266 OA
ATOM      2  C   UNL A   1     -27.064  -0.824  28.869  0.00  0.00    +0.275 C 
ATOM      3  C   UNL A   1     -26.050  -0.936  28.758  0.00  0.00    +0.037 C 
ATOM      4  C   UNL A   1     -25.277  -1.667  28.055  0.00  0.00    +0.036 C 
ENDROOT
BRANCH   2   5
ATOM      5  N   UNL A   1     -27.415   0.140  29.976  0.00  0.00    -0.205 NA
ATOM      6  C   UNL A   1     -26.494   0.884  30.598  0.00  0.00    +0.123 C 
ENDBRANCH   2   5
TORSDOF 1
