MODEL 617
MODEL 1
REMARK VINA RESULT:    -4.264      0.000      0.000
REMARK INTER + INTRA:          -4.543
REMARK INTER:                  -4.513
REMARK INTRA:                  -0.030
REMARK UNBOUND:                -0.030
REMARK  Name = No_617-gen_results/8p0m/2024-11-26-14-13-15/
REMARK  1 active torsions:
REMARK  status: ('A' for Active; 'I' for Inactive)
REMARK    1  A    between atoms: C_2  and  N_5
REMARK                            x       y       z     vdW  Elec       q    Type
REMARK                         _______ _______ _______ _____ _____    ______ ____
ROOT
ATOM      1  O   UNL A   1     -10.319  -9.029  20.696  0.00  0.00    -0.266 OA
ATOM      2  C   UNL A   1      -9.528  -9.301  19.785  0.00  0.00    +0.275 C 
ATOM      3  C   UNL A   1      -8.523  -9.437  19.628  0.00  0.00    +0.037 C 
ATOM      4  C   UNL A   1      -7.477  -9.478  20.355  0.00  0.00    +0.036 C 
ENDROOT
BRANCH   2   5
ATOM      5  N   UNL A   1     -10.303  -9.222  18.492  0.00  0.00    -0.205 NA
ATOM      6  C   UNL A   1     -10.315 -10.220  17.601  0.00  0.00    +0.123 C 
ENDBRANCH   2   5
TORSDOF 1
ENDMDL
ENDMDL
