MODEL 618
MODEL 1
REMARK VINA RESULT:    -3.987      0.000      0.000
REMARK INTER + INTRA:          -3.987
REMARK INTER:                  -3.987
REMARK INTRA:                   0.000
REMARK UNBOUND:                 0.000
REMARK  Name = No_618-gen_results/8p0m/2024-11-26-14-13-15/
REMARK  0 active torsions:
REMARK  status: ('A' for Active; 'I' for Inactive)
REMARK                            x       y       z     vdW  Elec       q    Type
REMARK                         _______ _______ _______ _____ _____    ______ ____
ROOT
ATOM      1  C   UNL A   1     -25.965  -2.369  30.333  0.00  0.00    +0.012 A 
ATOM      2  C   UNL A   1     -25.966  -3.458  29.806  0.00  0.00    +0.058 A 
ATOM      3  C   UNL A   1     -24.955  -3.927  29.032  0.00  0.00    +0.012 A 
ATOM      4  C   UNL A   1     -23.834  -3.102  28.825  0.00  0.00    +0.008 A 
ATOM      5  C   UNL A   1     -24.811  -1.512  30.242  0.00  0.00    +0.008 A 
ATOM      6  C   UNL A   1     -23.780  -1.925  29.452  0.00  0.00    +0.035 A 
ATOM      7 CL   UNL A   1     -27.292  -4.571  30.014  0.00  0.00    -0.082 Cl
ATOM      8 BR   UNL A   1     -22.280  -0.786  29.270  0.00  0.00    -0.049 Br
ENDROOT
TORSDOF 0
ENDMDL
ENDMDL
