REMARK  Name = No_619-gen_results/8p0m/2024-11-26-14-13-15/
REMARK  4 active torsions:
REMARK  status: ('A' for Active; 'I' for Inactive)
REMARK    1  A    between atoms: C_3  and  C_7
REMARK    2  A    between atoms: N_26  and  C_27
REMARK    3  A    between atoms: C_27  and  C_28
REMARK    4  A    between atoms: C_29  and  C_30
REMARK                            x       y       z     vdW  Elec       q    Type
REMARK                         _______ _______ _______ _____ _____    ______ ____
ROOT
ATOM      1  C   UNL A   1     -28.016  -0.814  28.878  0.00  0.00    +0.002 A 
ATOM      2  C   UNL A   1     -27.064  -0.119  28.608  0.00  0.00    -0.003 A 
ATOM      3  C   UNL A   1     -25.765  -0.390  29.036  0.00  0.00    -0.000 A 
ATOM      4  C   UNL A   1     -25.530  -1.530  29.901  0.00  0.00    +0.000 A 
ATOM      5  C   UNL A   1     -26.689  -2.289  30.181  0.00  0.00    +0.004 A 
ATOM      6  C   UNL A   1     -27.873  -1.951  29.737  0.00  0.00    +0.051 A 
ATOM      7  C   UNL A   1     -29.041  -2.772  30.163  0.00  0.00    +0.249 C 
ATOM      8  N   UNL A   1     -30.206  -2.283  30.192  0.00  0.00    -0.272 N 
ATOM      9  O   UNL A   1     -28.822  -3.821  30.871  0.00  0.00    -0.270 OA
ATOM     10  C   UNL A   1     -31.395  -3.011  30.593  0.00  0.00    +0.099 C 
ATOM     11  C   UNL A   1     -32.480  -2.539  30.152  0.00  0.00    +0.048 C 
ATOM     12  C   UNL A   1     -32.465  -1.496  29.466  0.00  0.00    -0.022 A 
ATOM     13  C   UNL A   1     -33.747  -0.929  28.903  0.00  0.00    -0.004 A 
ATOM     14  C   UNL A   1     -33.762   0.262  28.112  0.00  0.00    +0.001 A 
ATOM     15  C   UNL A   1     -32.504   0.887  27.893  0.00  0.00    +0.014 A 
ATOM     16  C   UNL A   1     -31.330   0.397  28.363  0.00  0.00    +0.046 A 
ATOM     17  C   UNL A   1     -31.342  -0.765  29.131  0.00  0.00    +0.007 A 
ATOM     18  C   UNL A   1     -30.329  -1.153  29.414  0.00  0.00    +0.121 C 
ATOM     19  C   UNL A   1     -29.134  -0.554  28.979  0.00  0.00    +0.118 C 
ATOM     20  N   UNL A   1     -29.727   0.668  28.248  0.00  0.00    -0.300 N 
ENDROOT
BRANCH   3  21
ATOM     21  C   UNL A   1     -24.549   0.410  28.734  0.00  0.00    -0.000 A 
ATOM     22  C   UNL A   1     -23.331   0.044  29.057  0.00  0.00    -0.000 A 
ATOM     23  C   UNL A   1     -22.199   0.824  28.707  0.00  0.00    -0.000 A 
ATOM     24  C   UNL A   1     -22.366   1.818  27.696  0.00  0.00    +0.000 A 
ATOM     25  C   UNL A   1     -24.619   1.458  27.756  0.00  0.00    -0.000 A 
ATOM     26  C   UNL A   1     -23.564   2.149  27.316  0.00  0.00    -0.000 A 
ENDBRANCH   3  21
BRANCH  20  27
ATOM     27  C   UNL A   1     -29.238   1.779  27.604  0.00  0.00    +0.118 C 
BRANCH  27  28
ATOM     28  C   UNL A   1     -28.985   2.897  28.388  0.00  0.00    -0.005 C 
ATOM     29  C   UNL A   1     -28.949   3.076  29.663  0.00  0.00    -0.003 C 
BRANCH  29  30
ATOM     30  C   UNL A   1     -28.585   4.008  30.353  0.00  0.00    -0.000 C 
ATOM     31  C   UNL A   1     -28.182   5.216  29.716  0.00  0.00    -0.000 C 
ENDBRANCH  29  30
ENDBRANCH  27  28
ENDBRANCH  20  27
TORSDOF 4
