MODEL 61
MODEL 1
REMARK VINA RESULT:    -6.714      0.000      0.000
REMARK INTER + INTRA:          -9.735
REMARK INTER:                  -8.677
REMARK INTRA:                  -1.058
REMARK UNBOUND:                -1.058
REMARK  Name = No_61-gen_results/8p0m/2024-11-26-14-13-15/
REMARK  5 active torsions:
REMARK  status: ('A' for Active; 'I' for Inactive)
REMARK    1  A    between atoms: C_2  and  C_18
REMARK    2  A    between atoms: C_4  and  C_7
REMARK    3  A    between atoms: C_7  and  C_8
REMARK    4  A    between atoms: C_8  and  C_9
REMARK    5  A    between atoms: C_10  and  C_11
REMARK                            x       y       z     vdW  Elec       q    Type
REMARK                         _______ _______ _______ _____ _____    ______ ____
ROOT
ATOM      1  C   UNL A   1     -23.390  -2.381  29.367  0.00  0.00    +0.048 A 
ATOM      2  C   UNL A   1     -24.313  -2.572  28.897  0.00  0.00    +0.083 A 
ATOM      3  C   UNL A   1     -22.909  -0.991  29.336  0.00  0.00    +0.192 A 
ATOM      4  C   UNL A   1     -23.732   0.050  28.815  0.00  0.00    +0.017 A 
ATOM      5  C   UNL A   1     -24.937  -0.343  28.290  0.00  0.00    -0.001 A 
ATOM      6  C   UNL A   1     -25.318  -1.638  28.322  0.00  0.00    +0.006 A 
ATOM      7  O   UNL A   1     -21.840  -0.462  29.978  0.00  0.00    -0.287 OA
ENDROOT
BRANCH   2   8
ATOM      8  C   UNL A   1     -24.782  -4.101  28.856  0.00  0.00    +0.388 C 
ATOM      9  O   UNL A   1     -25.662  -4.335  29.518  0.00  0.00    -0.241 OA
ATOM     10  O   UNL A   1     -23.976  -5.015  28.416  0.00  0.00    -0.241 OA
ENDBRANCH   2   8
BRANCH   4  11
ATOM     11  C   UNL A   1     -23.286   1.419  28.793  0.00  0.00    +0.034 C 
BRANCH  11  12
ATOM     12  C   UNL A   1     -22.335   1.728  27.798  0.00  0.00    +0.031 C 
BRANCH  12  13
ATOM     13  C   UNL A   1     -22.604   1.825  26.503  0.00  0.00    -0.026 C 
ATOM     14  C   UNL A   1     -23.625   2.534  25.871  0.00  0.00    -0.003 C 
BRANCH  14  15
ATOM     15  C   UNL A   1     -24.670   1.815  25.685  0.00  0.00    +0.019 A 
ATOM     16  C   UNL A   1     -25.967   2.381  25.865  0.00  0.00    +0.099 A 
ATOM     17  C   UNL A   1     -24.598   0.590  24.995  0.00  0.00    +0.003 A 
ATOM     18  N   UNL A   1     -27.059   1.703  25.407  0.00  0.00    -0.242 NA
ATOM     19  C   UNL A   1     -25.722  -0.100  24.615  0.00  0.00    +0.021 A 
ATOM     20  C   UNL A   1     -26.979   0.519  24.835  0.00  0.00    +0.099 A 
ENDBRANCH  14  15
ENDBRANCH  12  13
ENDBRANCH  11  12
ENDBRANCH   4  11
TORSDOF 5
ENDMDL
ENDMDL
