REMARK  Name = No_620-gen_results/8p0m/2024-11-26-14-13-15/
REMARK  2 active torsions:
REMARK  status: ('A' for Active; 'I' for Inactive)
REMARK    1  A    between atoms: C_4  and  C_5
REMARK    2  A    between atoms: C_5  and  C_8
REMARK                            x       y       z     vdW  Elec       q    Type
REMARK                         _______ _______ _______ _____ _____    ______ ____
ROOT
ATOM      1  C   UNL A   1     -24.370  -1.100  30.072  0.00  0.00    +0.057 C 
ENDROOT
BRANCH   1   5
ATOM      2  C   UNL A   1     -28.016  -0.814  28.878  0.00  0.00    +0.029 A 
ATOM      3  C   UNL A   1     -28.469  -0.785  29.829  0.00  0.00    +0.002 A 
ATOM      4  C   UNL A   1     -26.546  -0.876  28.850  0.00  0.00    +0.137 A 
ATOM      5  C   UNL A   1     -25.804  -1.032  30.057  0.00  0.00    +0.010 A 
ATOM      6  C   UNL A   1     -27.990  -1.005  31.209  0.00  0.00    -0.000 A 
ATOM      7  C   UNL A   1     -26.562  -1.137  31.260  0.00  0.00    -0.002 A 
ATOM      8  F   UNL A   1     -25.801  -0.303  27.853  0.00  0.00    -0.204 F 
ENDBRANCH   1   5
BRANCH   1   9
ATOM      9  C   UNL A   1     -23.634  -0.783  29.067  0.00  0.00    +0.010 A 
ATOM     10  C   UNL A   1     -22.176  -0.678  29.166  0.00  0.00    -0.002 A 
ATOM     11  C   UNL A   1     -21.561   0.461  28.857  0.00  0.00    -0.000 A 
ATOM     12  C   UNL A   1     -22.074   1.383  27.897  0.00  0.00    +0.002 A 
ATOM     13  C   UNL A   1     -23.489   1.313  27.678  0.00  0.00    +0.029 A 
ATOM     14  C   UNL A   1     -24.259   0.370  28.288  0.00  0.00    +0.137 A 
ATOM     15  F   UNL A   1     -24.943   1.220  29.145  0.00  0.00    -0.204 F 
ENDBRANCH   1   9
TORSDOF 2
