MODEL 620
MODEL 1
REMARK VINA RESULT:    -6.782      0.000      0.000
REMARK INTER + INTRA:          -8.045
REMARK INTER:                  -7.575
REMARK INTRA:                  -0.470
REMARK UNBOUND:                -0.470
REMARK  Name = No_620-gen_results/8p0m/2024-11-26-14-13-15/
REMARK  2 active torsions:
REMARK  status: ('A' for Active; 'I' for Inactive)
REMARK    1  A    between atoms: C_4  and  C_5
REMARK    2  A    between atoms: C_5  and  C_8
REMARK                            x       y       z     vdW  Elec       q    Type
REMARK                         _______ _______ _______ _____ _____    ______ ____
ROOT
ATOM      1  C   UNL A   1     -23.348  -1.362  29.543  0.00  0.00    +0.057 C 
ENDROOT
BRANCH   1   5
ATOM      2  C   UNL A   1     -26.422  -3.634  29.980  0.00  0.00    +0.029 A 
ATOM      3  C   UNL A   1     -26.007  -4.507  29.560  0.00  0.00    +0.002 A 
ATOM      4  C   UNL A   1     -25.537  -2.461  30.069  0.00  0.00    +0.137 A 
ATOM      5  C   UNL A   1     -24.239  -2.486  29.481  0.00  0.00    +0.010 A 
ATOM      6  C   UNL A   1     -24.766  -4.807  28.816  0.00  0.00    -0.000 A 
ATOM      7  C   UNL A   1     -23.871  -3.686  28.805  0.00  0.00    -0.002 A 
ATOM      8  F   UNL A   1     -25.633  -1.538  31.077  0.00  0.00    -0.204 F 
ENDBRANCH   1   5
BRANCH   1   9
ATOM      9  C   UNL A   1     -23.619  -0.213  29.035  0.00  0.00    +0.010 A 
ATOM     10  C   UNL A   1     -24.565  -0.048  27.928  0.00  0.00    -0.002 A 
ATOM     11  C   UNL A   1     -24.176   0.518  26.789  0.00  0.00    -0.000 A 
ATOM     12  C   UNL A   1     -23.142   1.499  26.725  0.00  0.00    +0.002 A 
ATOM     13  C   UNL A   1     -22.199   1.464  27.804  0.00  0.00    +0.029 A 
ATOM     14  C   UNL A   1     -22.345   0.605  28.851  0.00  0.00    +0.137 A 
ATOM     15  F   UNL A   1     -21.273  -0.225  28.556  0.00  0.00    -0.204 F 
ENDBRANCH   1   9
TORSDOF 2
ENDMDL
ENDMDL
