REMARK  Name = No_621-gen_results/8p0m/2024-11-26-14-13-15/
REMARK  3 active torsions:
REMARK  status: ('A' for Active; 'I' for Inactive)
REMARK    1  A    between atoms: C_1  and  C_2
REMARK    2  A    between atoms: C_4  and  C_11
REMARK    3  A    between atoms: C_11  and  C_13
REMARK                            x       y       z     vdW  Elec       q    Type
REMARK                         _______ _______ _______ _____ _____    ______ ____
ROOT
ATOM      1  C   UNL A   1     -28.016  -0.814  28.878  0.00  0.00    +0.071 A 
ATOM      2  C   UNL A   1     -28.182   0.428  28.113  0.00  0.00    -0.000 A 
ATOM      3  C   UNL A   1     -27.450   0.643  26.850  0.00  0.00    -0.023 A 
ATOM      4  C   UNL A   1     -26.181   0.036  26.715  0.00  0.00    -0.004 A 
ATOM      5  C   UNL A   1     -25.780  -0.933  27.694  0.00  0.00    -0.000 A 
ATOM      6  C   UNL A   1     -26.557  -1.213  28.741  0.00  0.00    +0.004 A 
ENDROOT
BRANCH   1   7
ATOM      7  C   UNL A   1     -28.469  -0.785  29.829  0.00  0.00    +0.419 C 
ATOM      8  F   UNL A   1     -29.675  -0.426  29.958  0.00  0.00    -0.166 F 
ATOM      9  F   UNL A   1     -28.656  -2.268  30.299  0.00  0.00    -0.166 F 
ATOM     10  F   UNL A   1     -27.837  -0.422  30.993  0.00  0.00    -0.166 F 
ENDBRANCH   1   7
BRANCH   3  11
ATOM     11  C   UNL A   1     -27.762   1.620  25.854  0.00  0.00    +0.022 C 
ATOM     12  C   UNL A   1     -27.198   2.829  26.133  0.00  0.00    +0.005 C 
BRANCH  11  13
ATOM     13  C   UNL A   1     -28.696   1.360  24.878  0.00  0.00    +0.004 C 
ATOM     14  C   UNL A   1     -29.642   2.246  24.596  0.00  0.00    +0.000 C 
ENDBRANCH  11  13
ENDBRANCH   3  11
TORSDOF 3
