MODEL 621
MODEL 1
REMARK VINA RESULT:    -6.206      0.000      0.000
REMARK INTER + INTRA:          -7.909
REMARK INTER:                  -7.294
REMARK INTRA:                  -0.615
REMARK UNBOUND:                -0.615
REMARK  Name = No_621-gen_results/8p0m/2024-11-26-14-13-15/
REMARK  3 active torsions:
REMARK  status: ('A' for Active; 'I' for Inactive)
REMARK    1  A    between atoms: C_1  and  C_2
REMARK    2  A    between atoms: C_4  and  C_11
REMARK    3  A    between atoms: C_11  and  C_13
REMARK                            x       y       z     vdW  Elec       q    Type
REMARK                         _______ _______ _______ _____ _____    ______ ____
ROOT
ATOM      1  C   UNL A   1     -23.032   1.815  26.926  0.00  0.00    +0.071 A 
ATOM      2  C   UNL A   1     -23.788   0.566  27.080  0.00  0.00    -0.000 A 
ATOM      3  C   UNL A   1     -23.547  -0.328  28.229  0.00  0.00    -0.023 A 
ATOM      4  C   UNL A   1     -22.244  -0.360  28.775  0.00  0.00    -0.004 A 
ATOM      5  C   UNL A   1     -21.301   0.632  28.348  0.00  0.00    -0.000 A 
ATOM      6  C   UNL A   1     -21.622   1.528  27.414  0.00  0.00    +0.004 A 
ENDROOT
BRANCH   1   7
ATOM      7  C   UNL A   1     -23.184   2.285  25.995  0.00  0.00    +0.419 C 
ATOM      8  F   UNL A   1     -22.249   2.350  25.145  0.00  0.00    -0.166 F 
ATOM      9  F   UNL A   1     -24.141   1.367  25.162  0.00  0.00    -0.166 F 
ATOM     10  F   UNL A   1     -23.961   3.399  25.792  0.00  0.00    -0.166 F 
ENDBRANCH   1   7
BRANCH   3  11
ATOM     11  C   UNL A   1     -24.418  -1.369  28.681  0.00  0.00    +0.022 C 
ATOM     12  C   UNL A   1     -25.727  -0.993  28.633  0.00  0.00    +0.005 C 
BRANCH  11  13
ATOM     13  C   UNL A   1     -23.914  -2.502  29.276  0.00  0.00    +0.004 C 
ATOM     14  C   UNL A   1     -24.187  -3.702  28.782  0.00  0.00    +0.000 C 
ENDBRANCH  11  13
ENDBRANCH   3  11
TORSDOF 3
ENDMDL
ENDMDL
