REMARK  Name = No_622-gen_results/8p0m/2024-11-26-14-13-15/
REMARK  8 active torsions:
REMARK  status: ('A' for Active; 'I' for Inactive)
REMARK    1  A    between atoms: C_1  and  N_8
REMARK    2  A    between atoms: C_12  and  C_13
REMARK    3  A    between atoms: C_13  and  C_15
REMARK    4  A    between atoms: C_19  and  C_21
REMARK    5  A    between atoms: C_27  and  C_29
REMARK    6  A    between atoms: C_29  and  C_30
REMARK    7  A    between atoms: C_31  and  C_32
REMARK    8  A    between atoms: C_33  and  C_34
REMARK                            x       y       z     vdW  Elec       q    Type
REMARK                         _______ _______ _______ _____ _____    ______ ____
ROOT
ATOM      1  C   UNL A   1     -28.016  -0.814  28.878  0.00  0.00    +0.080 C 
ATOM      2  C   UNL A   1     -27.064  -0.119  28.608  0.00  0.00    -0.028 C 
ATOM      3  C   UNL A   1     -25.765  -0.390  29.036  0.00  0.00    +0.022 C 
ATOM      4  C   UNL A   1     -24.552   0.406  28.765  0.00  0.00    +0.034 C 
ATOM      5  C   UNL A   1     -24.696   1.448  27.799  0.00  0.00    +0.101 C 
ATOM      6  C   UNL A   1     -25.976   1.725  27.308  0.00  0.00    +0.015 C 
ATOM      7  C   UNL A   1     -27.189   1.118  27.854  0.00  0.00    +0.024 C 
ATOM      8  C   UNL A   1     -23.519   2.154  27.433  0.00  0.00    +0.317 C 
ATOM      9  O   UNL A   1     -23.560   3.063  26.588  0.00  0.00    -0.250 OA
ATOM     10  O   UNL A   1     -22.300   1.804  27.838  0.00  0.00    -0.447 OA
ATOM     11  C   UNL A   1     -25.459  -1.531  29.980  0.00  0.00    +0.010 C 
ATOM     12  C   UNL A   1     -24.799  -2.598  29.492  0.00  0.00    +0.040 C 
ATOM     13  C   UNL A   1     -23.445  -2.518  29.283  0.00  0.00    +0.093 C 
ATOM     14  N   UNL A   1     -22.770  -1.376  29.562  0.00  0.00    -0.215 NA
ATOM     15  C   UNL A   1     -23.222  -0.162  28.804  0.00  0.00    +0.117 C 
ATOM     16  C   UNL A   1     -22.095   0.824  28.604  0.00  0.00    +0.226 C 
ENDROOT
BRANCH   1  17
ATOM     17  N   UNL A   1     -29.196  -0.192  29.089  0.00  0.00    -0.178 NA
ATOM     18  C   UNL A   1     -30.054  -0.513  30.009  0.00  0.00    +0.247 C 
ATOM     19  O   UNL A   1     -31.262  -0.053  30.089  0.00  0.00    -0.273 OA
BRANCH  18  20
ATOM     20  C   UNL A   1     -29.653  -1.285  31.041  0.00  0.00    +0.104 C 
BRANCH  20  21
ATOM     21  C   UNL A   1     -29.751  -2.708  30.855  0.00  0.00    +0.082 C 
ATOM     22  N   UNL A   1     -28.668  -3.435  31.126  0.00  0.00    -0.219 NA
ATOM     23  C   UNL A   1     -28.493  -4.685  30.473  0.00  0.00    +0.089 C 
ATOM     24  C   UNL A   1     -30.842  -3.337  31.699  0.00  0.00    +0.018 C 
ATOM     25  C   UNL A   1     -31.176  -4.656  31.186  0.00  0.00    +0.007 C 
ATOM     26  C   UNL A   1     -29.836  -5.522  31.233  0.00  0.00    +0.019 C 
BRANCH  25  27
ATOM     27  C   UNL A   1     -32.176  -5.420  31.973  0.00  0.00    +0.026 C 
BRANCH  27  28
ATOM     28  C   UNL A   1     -33.069  -5.876  31.289  0.00  0.00    -0.026 C 
ATOM     29  C   UNL A   1     -33.451  -5.126  30.205  0.00  0.00    -0.005 C 
BRANCH  29  30
ATOM     30  C   UNL A   1     -34.487  -5.599  29.338  0.00  0.00    -0.000 C 
ATOM     31  C   UNL A   1     -34.782  -4.883  28.103  0.00  0.00    -0.000 C 
BRANCH  31  32
ATOM     32  C   UNL A   1     -34.046  -3.715  27.794  0.00  0.00    -0.000 C 
ATOM     33  C   UNL A   1     -33.017  -3.322  28.646  0.00  0.00    -0.000 C 
ENDBRANCH  31  32
ENDBRANCH  29  30
ENDBRANCH  27  28
ENDBRANCH  25  27
ENDBRANCH  20  21
ENDBRANCH  18  20
ENDBRANCH   1  17
BRANCH  12  34
ATOM     34  C   UNL A   1     -25.476  -3.851  29.272  0.00  0.00    -0.025 C 
ATOM     35  C   UNL A   1     -24.769  -4.967  28.846  0.00  0.00    -0.005 C 
ENDBRANCH  12  34
TORSDOF 8
