MODEL 622
MODEL 1
REMARK VINA RESULT:    -6.361      0.000      0.000
REMARK INTER + INTRA:         -13.074
REMARK INTER:                  -9.335
REMARK INTRA:                  -3.738
REMARK UNBOUND:                -3.738
REMARK  Name = No_622-gen_results/8p0m/2024-11-26-14-13-15/
REMARK  8 active torsions:
REMARK  status: ('A' for Active; 'I' for Inactive)
REMARK    1  A    between atoms: C_1  and  N_8
REMARK    2  A    between atoms: C_12  and  C_13
REMARK    3  A    between atoms: C_13  and  C_15
REMARK    4  A    between atoms: C_19  and  C_21
REMARK    5  A    between atoms: C_27  and  C_29
REMARK    6  A    between atoms: C_29  and  C_30
REMARK    7  A    between atoms: C_31  and  C_32
REMARK    8  A    between atoms: C_33  and  C_34
REMARK                            x       y       z     vdW  Elec       q    Type
REMARK                         _______ _______ _______ _____ _____    ______ ____
ROOT
ATOM      1  C   UNL A   1     -19.194 -20.095   5.331  0.00  0.00    +0.080 C 
ATOM      2  C   UNL A   1     -18.481 -20.818   5.988  0.00  0.00    -0.028 C 
ATOM      3  C   UNL A   1     -18.654 -22.199   6.077  0.00  0.00    +0.022 C 
ATOM      4  C   UNL A   1     -17.843 -23.151   6.861  0.00  0.00    +0.034 C 
ATOM      5  C   UNL A   1     -16.639 -22.626   7.422  0.00  0.00    +0.101 C 
ATOM      6  C   UNL A   1     -16.402 -21.251   7.317  0.00  0.00    +0.015 C 
ATOM      7  C   UNL A   1     -17.397 -20.306   6.811  0.00  0.00    +0.024 C 
ATOM      8  C   UNL A   1     -15.782 -23.546   8.082  0.00  0.00    +0.317 C 
ATOM      9  O   UNL A   1     -14.709 -23.169   8.582  0.00  0.00    -0.250 OA
ATOM     10  O   UNL A   1     -15.981 -24.862   8.080  0.00  0.00    -0.447 OA
ATOM     11  C   UNL A   1     -19.834 -22.896   5.439  0.00  0.00    +0.010 C 
ATOM     12  C   UNL A   1     -19.605 -23.674   4.364  0.00  0.00    +0.040 C 
ATOM     13  C   UNL A   1     -19.065 -24.924   4.536  0.00  0.00    +0.093 C 
ATOM     14  N   UNL A   1     -18.761 -25.379   5.776  0.00  0.00    -0.215 NA
ATOM     15  C   UNL A   1     -17.759 -24.557   6.533  0.00  0.00    +0.117 C 
ATOM     16  C   UNL A   1     -16.967 -25.399   7.507  0.00  0.00    +0.226 C 
ENDROOT
BRANCH   1  17
ATOM     17  N   UNL A   1     -19.450 -18.864   5.824  0.00  0.00    -0.178 NA
ATOM     18  C   UNL A   1     -20.587 -18.245   5.729  0.00  0.00    +0.247 C 
ATOM     19  O   UNL A   1     -20.779 -16.998   6.022  0.00  0.00    -0.273 OA
BRANCH  18  20
ATOM     20  C   UNL A   1     -21.696 -18.951   5.422  0.00  0.00    +0.104 C 
BRANCH  20  21
ATOM     21  C   UNL A   1     -22.541 -19.331   6.523  0.00  0.00    +0.082 C 
ATOM     22  N   UNL A   1     -23.813 -19.615   6.246  0.00  0.00    -0.219 NA
ATOM     23  C   UNL A   1     -24.794 -19.451   7.261  0.00  0.00    +0.089 C 
ATOM     24  C   UNL A   1     -22.036 -20.559   7.254  0.00  0.00    +0.018 C 
ATOM     25  C   UNL A   1     -22.659 -20.655   8.564  0.00  0.00    +0.007 C 
ATOM     26  C   UNL A   1     -24.235 -20.734   8.320  0.00  0.00    +0.019 C 
BRANCH  25  27
ATOM     27  C   UNL A   1     -22.314 -21.862   9.356  0.00  0.00    +0.026 C 
BRANCH  27  28
ATOM     28  C   UNL A   1     -21.747 -22.712   8.701  0.00  0.00    -0.026 C 
ATOM     29  C   UNL A   1     -22.395 -23.915   8.569  0.00  0.00    -0.005 C 
BRANCH  29  30
ATOM     30  C   UNL A   1     -21.801 -24.966   7.800  0.00  0.00    -0.000 C 
ATOM     31  C   UNL A   1     -22.395 -25.357   6.527  0.00  0.00    -0.000 C 
BRANCH  31  32
ATOM     32  C   UNL A   1     -23.566 -24.699   6.085  0.00  0.00    -0.000 C 
ATOM     33  C   UNL A   1     -23.445 -23.632   5.198  0.00  0.00    -0.000 C 
ENDBRANCH  31  32
ENDBRANCH  29  30
ENDBRANCH  27  28
ENDBRANCH  25  27
ENDBRANCH  20  21
ENDBRANCH  18  20
ENDBRANCH   1  17
BRANCH  12  34
ATOM     34  C   UNL A   1     -20.002 -23.250   3.045  0.00  0.00    -0.025 C 
ATOM     35  C   UNL A   1     -20.932 -22.232   2.883  0.00  0.00    -0.005 C 
ENDBRANCH  12  34
TORSDOF 8
ENDMDL
ENDMDL
