REMARK  Name = No_623-gen_results/8p0m/2024-11-26-14-13-15/
REMARK  3 active torsions:
REMARK  status: ('A' for Active; 'I' for Inactive)
REMARK    1  A    between atoms: C_2  and  C_7
REMARK    2  A    between atoms: C_5  and  C_14
REMARK    3  A    between atoms: C_7  and  C_8
REMARK                            x       y       z     vdW  Elec       q    Type
REMARK                         _______ _______ _______ _____ _____    ______ ____
ROOT
ATOM      1  C   UNL A   1     -28.016  -0.814  28.878  0.00  0.00    +0.000 A 
ATOM      2  C   UNL A   1     -27.064  -0.119  28.608  0.00  0.00    -0.018 A 
ATOM      3  C   UNL A   1     -26.929   1.171  29.008  0.00  0.00    -0.004 A 
ATOM      4  C   UNL A   1     -27.956   1.741  29.784  0.00  0.00    -0.000 A 
ATOM      5  C   UNL A   1     -29.057  -0.327  29.747  0.00  0.00    +0.050 A 
ATOM      6  C   UNL A   1     -28.983   0.972  30.152  0.00  0.00    +0.004 A 
ENDROOT
BRANCH   5   7
ATOM      7  C   UNL A   1     -30.173  -1.226  30.132  0.00  0.00    +0.254 C 
ATOM      8 CL   UNL A   1     -31.137  -0.855  31.120  0.00  0.00    -0.038 Cl
ATOM      9  O   UNL A   1     -30.171  -2.410  29.615  0.00  0.00    -0.274 OA
ENDBRANCH   5   7
BRANCH   2  10
ATOM     10  C   UNL A   1     -25.891  -0.626  27.786  0.00  0.00    +0.053 C 
BRANCH  10  11
ATOM     11  C   UNL A   1     -24.718  -1.061  28.613  0.00  0.00    -0.018 A 
ATOM     12  C   UNL A   1     -23.595  -0.283  28.812  0.00  0.00    -0.004 A 
ATOM     13  C   UNL A   1     -22.504  -0.806  29.551  0.00  0.00    -0.000 A 
ATOM     14  C   UNL A   1     -24.782  -2.354  29.198  0.00  0.00    -0.004 A 
ATOM     15  C   UNL A   1     -23.634  -2.850  29.850  0.00  0.00    -0.000 A 
ATOM     16  C   UNL A   1     -22.534  -2.033  30.070  0.00  0.00    -0.000 A 
ENDBRANCH  10  11
ENDBRANCH   2  10
TORSDOF 3
