MODEL 623
MODEL 1
REMARK VINA RESULT:    -6.902      0.000      0.000
REMARK INTER + INTRA:          -8.614
REMARK INTER:                  -8.112
REMARK INTRA:                  -0.502
REMARK UNBOUND:                -0.502
REMARK  Name = No_623-gen_results/8p0m/2024-11-26-14-13-15/
REMARK  3 active torsions:
REMARK  status: ('A' for Active; 'I' for Inactive)
REMARK    1  A    between atoms: C_2  and  C_7
REMARK    2  A    between atoms: C_5  and  C_14
REMARK    3  A    between atoms: C_7  and  C_8
REMARK                            x       y       z     vdW  Elec       q    Type
REMARK                         _______ _______ _______ _____ _____    ______ ____
ROOT
ATOM      1  C   UNL A   1     -24.393  -0.317  27.769  0.00  0.00    +0.000 A 
ATOM      2  C   UNL A   1     -23.546  -0.296  28.632  0.00  0.00    -0.018 A 
ATOM      3  C   UNL A   1     -22.492   0.559  28.639  0.00  0.00    -0.004 A 
ATOM      4  C   UNL A   1     -22.371   1.479  27.580  0.00  0.00    -0.000 A 
ATOM      5  C   UNL A   1     -24.385   0.658  26.708  0.00  0.00    +0.050 A 
ATOM      6  C   UNL A   1     -23.331   1.520  26.654  0.00  0.00    +0.004 A 
ENDROOT
BRANCH   5   7
ATOM      7  C   UNL A   1     -25.481   0.665  25.708  0.00  0.00    +0.254 C 
ATOM      8 CL   UNL A   1     -25.464  -0.189  24.562  0.00  0.00    -0.038 Cl
ATOM      9  O   UNL A   1     -26.400   1.560  25.859  0.00  0.00    -0.274 OA
ENDBRANCH   5   7
BRANCH   2  10
ATOM     10  C   UNL A   1     -23.576  -1.233  29.828  0.00  0.00    +0.053 C 
BRANCH  10  11
ATOM     11  C   UNL A   1     -24.406  -2.463  29.609  0.00  0.00    -0.018 A 
ATOM     12  C   UNL A   1     -25.701  -2.601  30.068  0.00  0.00    -0.004 A 
ATOM     13  C   UNL A   1     -26.384  -3.828  29.877  0.00  0.00    -0.000 A 
ATOM     14  C   UNL A   1     -23.799  -3.538  28.906  0.00  0.00    -0.004 A 
ATOM     15  C   UNL A   1     -24.498  -4.760  28.820  0.00  0.00    -0.000 A 
ATOM     16  C   UNL A   1     -25.812  -4.858  29.255  0.00  0.00    -0.000 A 
ENDBRANCH  10  11
ENDBRANCH   2  10
TORSDOF 3
ENDMDL
ENDMDL
