REMARK  Name = No_624-gen_results/8p0m/2024-11-26-14-13-15/
REMARK  0 active torsions:
REMARK  status: ('A' for Active; 'I' for Inactive)
REMARK                            x       y       z     vdW  Elec       q    Type
REMARK                         _______ _______ _______ _____ _____    ______ ____
ROOT
ATOM      1  C   UNL A   1     -28.016  -0.814  28.878  0.00  0.00    +0.001 A 
ATOM      2  C   UNL A   1     -28.469  -0.785  29.829  0.00  0.00    +0.000 A 
ATOM      3  C   UNL A   1     -26.603  -1.060  28.538  0.00  0.00    +0.011 A 
ATOM      4  C   UNL A   1     -25.797  -1.449  29.727  0.00  0.00    +0.058 A 
ATOM      5  C   UNL A   1     -26.463  -1.540  30.973  0.00  0.00    +0.011 A 
ATOM      6  C   UNL A   1     -27.770  -1.248  31.079  0.00  0.00    +0.001 A 
ATOM      7 CL   UNL A   1     -24.183  -1.789  29.555  0.00  0.00    -0.082 Cl
ENDROOT
TORSDOF 0
