MODEL 624
MODEL 1
REMARK VINA RESULT:    -4.483      0.000      0.000
REMARK INTER + INTRA:          -4.483
REMARK INTER:                  -4.483
REMARK INTRA:                   0.000
REMARK UNBOUND:                 0.000
REMARK  Name = No_624-gen_results/8p0m/2024-11-26-14-13-15/
REMARK  0 active torsions:
REMARK  status: ('A' for Active; 'I' for Inactive)
REMARK                            x       y       z     vdW  Elec       q    Type
REMARK                         _______ _______ _______ _____ _____    ______ ____
ROOT
ATOM      1  C   UNL A   1     -26.439  -3.812  29.827  0.00  0.00    +0.001 A 
ATOM      2  C   UNL A   1     -26.212  -4.820  29.620  0.00  0.00    +0.000 A 
ATOM      3  C   UNL A   1     -25.557  -2.634  29.745  0.00  0.00    +0.011 A 
ATOM      4  C   UNL A   1     -24.231  -2.962  29.154  0.00  0.00    +0.058 A 
ATOM      5  C   UNL A   1     -24.003  -4.301  28.753  0.00  0.00    +0.011 A 
ATOM      6  C   UNL A   1     -24.940  -5.245  28.936  0.00  0.00    +0.001 A 
ATOM      7 CL   UNL A   1     -23.097  -1.769  28.956  0.00  0.00    -0.082 Cl
ENDROOT
TORSDOF 0
ENDMDL
ENDMDL
