MODEL 625
MODEL 1
REMARK VINA RESULT:    -6.395      0.000      0.000
REMARK INTER + INTRA:          -7.982
REMARK INTER:                  -7.517
REMARK INTRA:                  -0.465
REMARK UNBOUND:                -0.465
REMARK  Name = No_625-gen_results/8p0m/2024-11-26-14-13-15/
REMARK  3 active torsions:
REMARK  status: ('A' for Active; 'I' for Inactive)
REMARK    1  A    between atoms: C_3  and  C_4
REMARK    2  A    between atoms: C_9  and  N_13
REMARK    3  A    between atoms: C_14  and  C_15
REMARK                            x       y       z     vdW  Elec       q    Type
REMARK                         _______ _______ _______ _____ _____    ______ ____
ROOT
ATOM      1  C   UNL A   1     -24.395  -0.970  29.447  0.00  0.00    +0.102 A 
ATOM      2  N   UNL A   1     -23.872  -0.607  30.466  0.00  0.00    -0.222 NA
ATOM      3  C   UNL A   1     -24.596  -0.085  28.352  0.00  0.00    +0.118 A 
ATOM      4  C   UNL A   1     -23.991   1.167  28.512  0.00  0.00    +0.121 A 
ATOM      5  C   UNL A   1     -23.424   0.658  30.750  0.00  0.00    +0.199 A 
ATOM      6  N   UNL A   1     -23.542   1.524  29.697  0.00  0.00    -0.221 NA
ENDROOT
BRANCH   1   9
ATOM      7  C   UNL A   1     -23.886  -3.439  28.833  0.00  0.00    +0.002 A 
ATOM      8  C   UNL A   1     -24.299  -4.407  28.885  0.00  0.00    +0.000 A 
ATOM      9  C   UNL A   1     -24.783  -2.393  29.321  0.00  0.00    +0.019 A 
ATOM     10  C   UNL A   1     -25.569  -4.962  29.332  0.00  0.00    +0.000 A 
ATOM     11  C   UNL A   1     -26.449  -4.003  29.788  0.00  0.00    +0.000 A 
ATOM     12  C   UNL A   1     -26.063  -2.716  29.843  0.00  0.00    +0.002 A 
ENDBRANCH   1   9
BRANCH   3  13
ATOM     13  N   UNL A   1     -24.984  -0.451  27.139  0.00  0.00    -0.241 NA
ATOM     14  C   UNL A   1     -25.055   0.338  26.110  0.00  0.00    +0.099 C 
BRANCH  14  15
ATOM     15  C   UNL A   1     -25.571  -0.183  24.941  0.00  0.00    +0.016 C 
ATOM     16  C   UNL A   1     -26.672   0.287  24.416  0.00  0.00    -0.024 C 
ATOM     17  C   UNL A   1     -27.555   1.112  25.189  0.00  0.00    +0.031 C 
ENDBRANCH  14  15
ENDBRANCH   3  13
TORSDOF 3
ENDMDL
ENDMDL
