MODEL 626
MODEL 1
REMARK VINA RESULT:    -7.688      0.000      0.000
REMARK INTER + INTRA:         -10.406
REMARK INTER:                  -9.486
REMARK INTRA:                  -0.920
REMARK UNBOUND:                -0.920
REMARK  Name = No_626-gen_results/8p0m/2024-11-26-14-13-15/
REMARK  4 active torsions:
REMARK  status: ('A' for Active; 'I' for Inactive)
REMARK    1  A    between atoms: C_6  and  O_7
REMARK    2  A    between atoms: O_7  and  C_9
REMARK    3  A    between atoms: C_12  and  C_15
REMARK    4  A    between atoms: C_15  and  N_16
REMARK                            x       y       z     vdW  Elec       q    Type
REMARK                         _______ _______ _______ _____ _____    ______ ____
ROOT
ATOM      1  C   UNL A   1     -26.907   0.815  24.626  0.00  0.00    +0.145 A 
ATOM      2  C   UNL A   1     -26.963   2.080  25.404  0.00  0.00    +0.037 A 
ATOM      3  C   UNL A   1     -25.701   2.467  25.877  0.00  0.00    +0.005 A 
ATOM      4  C   UNL A   1     -24.611   1.539  26.010  0.00  0.00    +0.054 A 
ATOM      5  C   UNL A   1     -24.645   0.471  25.131  0.00  0.00    +0.005 A 
ATOM      6  C   UNL A   1     -25.670   0.079  24.560  0.00  0.00    +0.037 A 
ENDROOT
BRANCH   4   7
ATOM      7  C   UNL A   1     -23.458   2.038  26.782  0.00  0.00    +0.335 C 
ATOM      8  F   UNL A   1     -23.578   3.198  27.385  0.00  0.00    -0.183 F 
ATOM      9  F   UNL A   1     -22.517   2.394  25.738  0.00  0.00    -0.183 F 
BRANCH   7  10
ATOM     10  N   UNL A   1     -22.851   1.272  27.491  0.00  0.00    -0.220 NA
ATOM     11  C   UNL A   1     -21.559   1.268  27.630  0.00  0.00    +0.077 C 
ATOM     12  C   UNL A   1     -20.883   0.213  28.392  0.00  0.00    +0.018 C 
ATOM     13  C   UNL A   1     -23.490   0.199  28.294  0.00  0.00    +0.077 C 
ATOM     14  C   UNL A   1     -22.909  -0.739  29.026  0.00  0.00    +0.018 C 
ATOM     15  C   UNL A   1     -21.526  -0.670  29.132  0.00  0.00    +0.003 C 
ENDBRANCH   7  10
ENDBRANCH   4   7
BRANCH   1  16
ATOM     16  O   UNL A   1     -27.712   0.865  23.559  0.00  0.00    -0.454 OA
BRANCH  16  22
ATOM     17  C   UNL A   1     -29.085  -1.177  23.625  0.00  0.00    +0.040 A 
ATOM     18  C   UNL A   1     -30.169  -1.712  23.658  0.00  0.00    +0.033 A 
ATOM     19  C   UNL A   1     -31.339  -0.971  23.530  0.00  0.00    +0.140 A 
ATOM     20  C   UNL A   1     -31.298   0.463  23.399  0.00  0.00    +0.033 A 
ATOM     21  C   UNL A   1     -30.004   1.001  23.394  0.00  0.00    +0.040 A 
ATOM     22  C   UNL A   1     -28.930   0.258  23.536  0.00  0.00    +0.145 A 
ATOM     23  F   UNL A   1     -32.588  -1.481  23.571  0.00  0.00    -0.204 F 
ENDBRANCH  16  22
ENDBRANCH   1  16
TORSDOF 4
ENDMDL
ENDMDL
