REMARK  Name = No_627-gen_results/8p0m/2024-11-26-14-13-15/
REMARK  1 active torsions:
REMARK  status: ('A' for Active; 'I' for Inactive)
REMARK    1  A    between atoms: C_4  and  N_14
REMARK                            x       y       z     vdW  Elec       q    Type
REMARK                         _______ _______ _______ _____ _____    ______ ____
ROOT
ATOM      1  C   UNL A   1     -28.016  -0.814  28.878  0.00  0.00    +0.229 C 
ATOM      2  C   UNL A   1     -28.469  -0.785  29.829  0.00  0.00    +0.021 A 
ATOM      3  N   UNL A   1     -26.608  -0.945  28.857  0.00  0.00    -0.192 N 
ATOM      4  C   UNL A   1     -25.727  -0.359  27.999  0.00  0.00    +0.305 C 
ATOM      5  C   UNL A   1     -24.341  -0.477  28.292  0.00  0.00    +0.065 C 
ATOM      6  C   UNL A   1     -24.142  -1.491  29.299  0.00  0.00    +0.081 C 
ATOM      7  C   UNL A   1     -25.815  -1.736  29.806  0.00  0.00    +0.169 C 
ATOM      8  C   UNL A   1     -29.979  -0.763  30.026  0.00  0.00    -0.001 A 
ATOM      9  C   UNL A   1     -30.666  -1.036  31.162  0.00  0.00    -0.000 A 
ATOM     10  C   UNL A   1     -29.939  -1.217  32.381  0.00  0.00    -0.000 A 
ATOM     11  C   UNL A   1     -28.567  -1.288  32.346  0.00  0.00    -0.004 A 
ATOM     12  C   UNL A   1     -27.906  -1.179  31.229  0.00  0.00    -0.018 A 
ATOM     13  C   UNL A   1     -26.420  -1.436  31.081  0.00  0.00    +0.073 C 
ENDROOT
BRANCH   4  14
ATOM     14  N   UNL A   1     -26.073   0.401  26.982  0.00  0.00    -0.032 NA
ATOM     15  C   UNL A   1     -25.882   1.247  26.404  0.00  0.00    +0.306 C 
ENDBRANCH   4  14
TORSDOF 1
