MODEL 627
MODEL 1
REMARK VINA RESULT:    -6.502      0.000      0.000
REMARK INTER + INTRA:          -6.964
REMARK INTER:                  -6.882
REMARK INTRA:                  -0.081
REMARK UNBOUND:                -0.081
REMARK  Name = No_627-gen_results/8p0m/2024-11-26-14-13-15/
REMARK  1 active torsions:
REMARK  status: ('A' for Active; 'I' for Inactive)
REMARK    1  A    between atoms: C_4  and  N_14
REMARK                            x       y       z     vdW  Elec       q    Type
REMARK                         _______ _______ _______ _____ _____    ______ ____
ROOT
ATOM      1  C   UNL A   1     -23.346  -2.064  29.269  0.00  0.00    +0.229 C 
ATOM      2  C   UNL A   1     -24.164  -2.727  29.232  0.00  0.00    +0.021 A 
ATOM      3  N   UNL A   1     -23.577  -0.816  29.893  0.00  0.00    -0.192 N 
ATOM      4  C   UNL A   1     -23.082   0.401  29.534  0.00  0.00    +0.305 C 
ATOM      5  C   UNL A   1     -23.610   1.548  30.189  0.00  0.00    +0.065 C 
ATOM      6  C   UNL A   1     -24.358   1.141  31.354  0.00  0.00    +0.081 C 
ATOM      7  C   UNL A   1     -24.443  -0.597  31.058  0.00  0.00    +0.169 C 
ATOM      8  C   UNL A   1     -24.054  -4.150  28.700  0.00  0.00    -0.001 A 
ATOM      9  C   UNL A   1     -24.927  -5.169  28.885  0.00  0.00    -0.000 A 
ATOM     10  C   UNL A   1     -26.185  -4.895  29.509  0.00  0.00    -0.000 A 
ATOM     11  C   UNL A   1     -26.410  -3.657  30.062  0.00  0.00    -0.004 A 
ATOM     12  C   UNL A   1     -25.510  -2.717  30.021  0.00  0.00    -0.018 A 
ATOM     13  C   UNL A   1     -25.605  -1.403  30.769  0.00  0.00    +0.073 C 
ENDROOT
BRANCH   4  14
ATOM     14  N   UNL A   1     -22.234   0.598  28.548  0.00  0.00    -0.032 NA
ATOM     15  C   UNL A   1     -21.862   1.239  27.815  0.00  0.00    +0.306 C 
ENDBRANCH   4  14
TORSDOF 1
ENDMDL
ENDMDL
