REMARK  Name = No_628-gen_results/8p0m/2024-11-26-14-13-15/
REMARK  2 active torsions:
REMARK  status: ('A' for Active; 'I' for Inactive)
REMARK    1  A    between atoms: C_1  and  C_3
REMARK    2  A    between atoms: C_3  and  C_4
REMARK                            x       y       z     vdW  Elec       q    Type
REMARK                         _______ _______ _______ _____ _____    ______ ____
ROOT
ATOM      1  C   UNL A   1     -28.016  -0.814  28.878  0.00  0.00    +0.008 A 
ATOM      2  C   UNL A   1     -28.469  -0.785  29.829  0.00  0.00    -0.002 A 
ATOM      3  C   UNL A   1     -28.256  -1.927  30.890  0.00  0.00    -0.000 A 
ATOM      4  C   UNL A   1     -27.449  -2.964  30.432  0.00  0.00    -0.000 A 
ATOM      5  C   UNL A   1     -26.641  -2.804  29.351  0.00  0.00    -0.000 A 
ATOM      6  C   UNL A   1     -26.783  -1.636  28.612  0.00  0.00    -0.002 A 
ENDROOT
BRANCH   1   7
ATOM      7  C   UNL A   1     -28.196   0.348  28.055  0.00  0.00    +0.174 C 
ATOM      8  O   UNL A   1     -28.141   1.596  28.583  0.00  0.00    -0.218 OA
BRANCH   7   9
ATOM      9  C   UNL A   1     -27.442   0.510  26.795  0.00  0.00    +0.037 C 
ATOM     10  C   UNL A   1     -27.843   1.333  25.806  0.00  0.00    +0.003 C 
ENDBRANCH   7   9
ENDBRANCH   1   7
TORSDOF 2
