MODEL 628
MODEL 1
REMARK VINA RESULT:    -5.234      0.000      0.000
REMARK INTER + INTRA:          -5.995
REMARK INTER:                  -5.846
REMARK INTRA:                  -0.149
REMARK UNBOUND:                -0.149
REMARK  Name = No_628-gen_results/8p0m/2024-11-26-14-13-15/
REMARK  2 active torsions:
REMARK  status: ('A' for Active; 'I' for Inactive)
REMARK    1  A    between atoms: C_1  and  C_3
REMARK    2  A    between atoms: C_3  and  C_4
REMARK                            x       y       z     vdW  Elec       q    Type
REMARK                         _______ _______ _______ _____ _____    ______ ____
ROOT
ATOM      1  C   UNL A   1     -24.419  -2.780  29.575  0.00  0.00    +0.008 A 
ATOM      2  C   UNL A   1     -23.801  -3.316  28.911  0.00  0.00    -0.002 A 
ATOM      3  C   UNL A   1     -24.113  -4.801  28.494  0.00  0.00    -0.000 A 
ATOM      4  C   UNL A   1     -25.248  -5.321  29.109  0.00  0.00    -0.000 A 
ATOM      5  C   UNL A   1     -26.173  -4.508  29.685  0.00  0.00    -0.000 A 
ATOM      6  C   UNL A   1     -25.858  -3.160  29.800  0.00  0.00    -0.002 A 
ENDROOT
BRANCH   1   7
ATOM      7  C   UNL A   1     -24.087  -1.398  29.775  0.00  0.00    +0.174 C 
ATOM      8  O   UNL A   1     -23.737  -0.931  30.999  0.00  0.00    -0.218 OA
BRANCH   7   9
ATOM      9  C   UNL A   1     -23.117  -0.716  28.893  0.00  0.00    +0.037 C 
ATOM     10  C   UNL A   1     -21.911  -0.296  29.323  0.00  0.00    +0.003 C 
ENDBRANCH   7   9
ENDBRANCH   1   7
TORSDOF 2
ENDMDL
ENDMDL
