REMARK  Name = No_629-gen_results/8p0m/2024-11-26-14-13-15/
REMARK  7 active torsions:
REMARK  status: ('A' for Active; 'I' for Inactive)
REMARK    1  A    between atoms: C_1  and  O_28
REMARK    2  A    between atoms: C_2  and  C_10
REMARK    3  A    between atoms: C_5  and  C_7
REMARK    4  A    between atoms: C_14  and  C_16
REMARK    5  A    between atoms: C_19  and  C_21
REMARK    6  A    between atoms: O_28  and  C_29
REMARK    7  A    between atoms: C_29  and  C_30
REMARK                            x       y       z     vdW  Elec       q    Type
REMARK                         _______ _______ _______ _____ _____    ______ ____
ROOT
ATOM      1  C   UNL A   1     -28.016  -0.814  28.878  0.00  0.00    +0.139 A 
ATOM      2  C   UNL A   1     -27.064  -0.119  28.608  0.00  0.00    +0.034 A 
ATOM      3  C   UNL A   1     -27.001   0.691  27.491  0.00  0.00    +0.003 A 
ATOM      4  C   UNL A   1     -28.137   0.736  26.635  0.00  0.00    +0.005 A 
ATOM      5  C   UNL A   1     -29.236   0.076  27.069  0.00  0.00    +0.057 A 
ATOM      6  C   UNL A   1     -29.218  -0.643  28.175  0.00  0.00    +0.041 A 
ENDROOT
BRANCH   5   7
ATOM      7  C   UNL A   1     -30.415   0.159  26.182  0.00  0.00    +0.255 C 
ATOM      8  N   UNL A   1     -30.347   0.080  24.953  0.00  0.00    -0.221 N 
ATOM      9  O   UNL A   1     -31.570   0.101  26.735  0.00  0.00    -0.270 OA
ATOM     10  C   UNL A   1     -31.498  -0.069  24.036  0.00  0.00    +0.255 C 
ATOM     11  C   UNL A   1     -29.102   0.099  24.114  0.00  0.00    +0.123 C 
ATOM     12  O   UNL A   1     -31.428  -1.044  23.294  0.00  0.00    -0.270 OA
BRANCH  10  13
ATOM     13  C   UNL A   1     -32.377   0.730  24.094  0.00  0.00    +0.054 A 
ATOM     14  C   UNL A   1     -33.665   0.496  23.560  0.00  0.00    +0.004 A 
ATOM     15  C   UNL A   1     -34.752   1.411  23.606  0.00  0.00    +0.000 A 
ATOM     16  C   UNL A   1     -34.509   2.652  24.255  0.00  0.00    +0.000 A 
ATOM     17  C   UNL A   1     -33.256   2.964  24.790  0.00  0.00    +0.000 A 
ATOM     18  C   UNL A   1     -32.243   2.111  24.717  0.00  0.00    +0.004 A 
ENDBRANCH  10  13
ENDBRANCH   5   7
BRANCH   2  19
ATOM     19  C   UNL A   1     -25.710  -0.203  29.424  0.00  0.00    +0.003 A 
ATOM     20  C   UNL A   1     -25.597  -0.601  30.404  0.00  0.00    +0.000 A 
ATOM     21  C   UNL A   1     -24.278  -0.650  31.169  0.00  0.00    +0.000 A 
ATOM     22  C   UNL A   1     -23.150  -0.179  30.506  0.00  0.00    +0.007 A 
ATOM     23  C   UNL A   1     -23.314   0.343  29.234  0.00  0.00    +0.080 A 
ATOM     24  C   UNL A   1     -24.590   0.326  28.550  0.00  0.00    +0.007 A 
BRANCH  23  25
ATOM     25  C   UNL A   1     -22.133   0.833  28.519  0.00  0.00    +0.388 C 
ATOM     26  O   UNL A   1     -22.296   1.631  27.511  0.00  0.00    -0.241 OA
ATOM     27  O   UNL A   1     -20.920   0.556  28.887  0.00  0.00    -0.241 OA
ENDBRANCH  23  25
ENDBRANCH   2  19
BRANCH   1  28
ATOM     28  O   UNL A   1     -28.089  -1.597  29.987  0.00  0.00    -0.471 OA
BRANCH  28  29
ATOM     29  C   UNL A   1     -29.159  -1.990  30.553  0.00  0.00    +0.232 C 
BRANCH  29  30
ATOM     30  C   UNL A   1     -29.509  -1.285  31.660  0.00  0.00    +0.021 A 
ATOM     31  C   UNL A   1     -28.898  -0.690  32.323  0.00  0.00    -0.001 A 
ATOM     32  C   UNL A   1     -29.218   0.139  33.548  0.00  0.00    -0.000 A 
ATOM     33  C   UNL A   1     -30.529   0.007  33.965  0.00  0.00    -0.000 A 
ATOM     34  C   UNL A   1     -31.007  -1.397  32.068  0.00  0.00    -0.001 A 
ATOM     35  C   UNL A   1     -31.442  -0.712  33.192  0.00  0.00    -0.000 A 
ENDBRANCH  29  30
ENDBRANCH  28  29
ENDBRANCH   1  28
TORSDOF 7
