MODEL 629
MODEL 1
REMARK VINA RESULT:    -7.416      0.000      0.000
REMARK INTER + INTRA:         -13.386
REMARK INTER:                 -10.451
REMARK INTRA:                  -2.935
REMARK UNBOUND:                -2.935
REMARK  Name = No_629-gen_results/8p0m/2024-11-26-14-13-15/
REMARK  7 active torsions:
REMARK  status: ('A' for Active; 'I' for Inactive)
REMARK    1  A    between atoms: C_1  and  O_28
REMARK    2  A    between atoms: C_2  and  C_10
REMARK    3  A    between atoms: C_5  and  C_7
REMARK    4  A    between atoms: C_14  and  C_16
REMARK    5  A    between atoms: C_19  and  C_21
REMARK    6  A    between atoms: O_28  and  C_29
REMARK    7  A    between atoms: C_29  and  C_30
REMARK                            x       y       z     vdW  Elec       q    Type
REMARK                         _______ _______ _______ _____ _____    ______ ____
ROOT
ATOM      1  C   UNL A   1     -31.132 -11.997  28.831  0.00  0.00    +0.139 A 
ATOM      2  C   UNL A   1     -30.036 -11.544  29.067  0.00  0.00    +0.034 A 
ATOM      3  C   UNL A   1     -28.979 -11.598  28.180  0.00  0.00    +0.003 A 
ATOM      4  C   UNL A   1     -29.208 -12.185  26.904  0.00  0.00    +0.005 A 
ATOM      5  C   UNL A   1     -30.489 -12.521  26.625  0.00  0.00    +0.057 A 
ATOM      6  C   UNL A   1     -31.448 -12.396  27.523  0.00  0.00    +0.041 A 
ENDROOT
BRANCH   5   7
ATOM      7  C   UNL A   1     -30.714 -13.101  25.284  0.00  0.00    +0.255 C 
ATOM      8  N   UNL A   1     -30.656 -14.310  25.049  0.00  0.00    -0.221 N 
ATOM      9  O   UNL A   1     -31.192 -12.325  24.383  0.00  0.00    -0.270 OA
ATOM     10  C   UNL A   1     -31.087 -14.964  23.795  0.00  0.00    +0.255 C 
ATOM     11  C   UNL A   1     -30.159 -15.387  25.971  0.00  0.00    +0.123 C 
ATOM     12  O   UNL A   1     -31.916 -15.855  23.950  0.00  0.00    -0.270 OA
BRANCH  10  13
ATOM     13  C   UNL A   1     -30.624 -14.582  22.768  0.00  0.00    +0.054 A 
ATOM     14  C   UNL A   1     -31.412 -14.054  21.719  0.00  0.00    +0.004 A 
ATOM     15  C   UNL A   1     -30.912 -13.579  20.476  0.00  0.00    +0.000 A 
ATOM     16  C   UNL A   1     -29.504 -13.636  20.295  0.00  0.00    +0.000 A 
ATOM     17  C   UNL A   1     -28.661 -14.163  21.278  0.00  0.00    +0.000 A 
ATOM     18  C   UNL A   1     -29.143 -14.627  22.423  0.00  0.00    +0.004 A 
ENDBRANCH  10  13
ENDBRANCH   5   7
BRANCH   2  19
ATOM     19  C   UNL A   1     -29.651 -10.995  30.501  0.00  0.00    +0.003 A 
ATOM     20  C   UNL A   1     -30.039 -10.116  30.956  0.00  0.00    +0.000 A 
ATOM     21  C   UNL A   1     -29.632  -9.605  32.335  0.00  0.00    +0.000 A 
ATOM     22  C   UNL A   1     -28.723 -10.379  33.048  0.00  0.00    +0.007 A 
ATOM     23  C   UNL A   1     -28.219 -11.517  32.439  0.00  0.00    +0.080 A 
ATOM     24  C   UNL A   1     -28.677 -11.965  31.140  0.00  0.00    +0.007 A 
BRANCH  23  25
ATOM     25  C   UNL A   1     -27.269 -12.348  33.181  0.00  0.00    +0.388 C 
ATOM     26  O   UNL A   1     -26.408 -13.058  32.523  0.00  0.00    -0.241 OA
ATOM     27  O   UNL A   1     -27.205 -12.360  34.477  0.00  0.00    -0.241 OA
ENDBRANCH  23  25
ENDBRANCH   2  19
BRANCH   1  28
ATOM     28  O   UNL A   1     -32.180 -11.927  29.694  0.00  0.00    -0.471 OA
BRANCH  28  29
ATOM     29  C   UNL A   1     -32.685 -12.905  30.333  0.00  0.00    +0.232 C 
BRANCH  29  30
ATOM     30  C   UNL A   1     -32.183 -13.089  31.582  0.00  0.00    +0.021 A 
ATOM     31  C   UNL A   1     -32.292 -12.481  32.468  0.00  0.00    -0.001 A 
ATOM     32  C   UNL A   1     -31.790 -12.634  33.887  0.00  0.00    -0.000 A 
ATOM     33  C   UNL A   1     -30.923 -13.698  34.044  0.00  0.00    -0.000 A 
ATOM     34  C   UNL A   1     -31.264 -14.334  31.747  0.00  0.00    -0.001 A 
ATOM     35  C   UNL A   1     -30.705 -14.587  32.990  0.00  0.00    -0.000 A 
ENDBRANCH  29  30
ENDBRANCH  28  29
ENDBRANCH   1  28
TORSDOF 7
ENDMDL
ENDMDL
