MODEL 62
MODEL 1
REMARK VINA RESULT:    -4.350      0.000      0.000
REMARK INTER + INTRA:          -4.350
REMARK INTER:                  -4.350
REMARK INTRA:                   0.000
REMARK UNBOUND:                 0.000
REMARK  Name = No_62-gen_results/8p0m/2024-11-26-14-13-15/
REMARK  0 active torsions:
REMARK  status: ('A' for Active; 'I' for Inactive)
REMARK                            x       y       z     vdW  Elec       q    Type
REMARK                         _______ _______ _______ _____ _____    ______ ____
ROOT
ATOM      1  C   UNL A   1     -24.179  -4.886  28.601  0.00  0.00    +0.000 A 
ATOM      2  C   UNL A   1     -25.027  -5.304  29.066  0.00  0.00    +0.000 A 
ATOM      3  C   UNL A   1     -24.088  -3.428  28.752  0.00  0.00    +0.000 A 
ATOM      4  C   UNL A   1     -25.079  -2.698  29.266  0.00  0.00    +0.000 A 
ATOM      5  C   UNL A   1     -26.215  -4.732  29.650  0.00  0.00    +0.000 A 
ATOM      6  C   UNL A   1     -26.123  -3.376  29.759  0.00  0.00    +0.000 A 
ENDROOT
TORSDOF 0
ENDMDL
ENDMDL
