REMARK  Name = No_630-gen_results/8p0m/2024-11-26-14-13-15/
REMARK  1 active torsions:
REMARK  status: ('A' for Active; 'I' for Inactive)
REMARK    1  A    between atoms: N_2  and  C_4
REMARK                            x       y       z     vdW  Elec       q    Type
REMARK                         _______ _______ _______ _____ _____    ______ ____
ROOT
ATOM      1  C   UNL A   1     -26.249   0.190  28.616  0.00  0.00    +0.082 A 
ATOM      2  C   UNL A   1     -25.288   0.946  27.741  0.00  0.00    +0.019 A 
ATOM      3  C   UNL A   1     -24.045   1.426  28.083  0.00  0.00    +0.002 A 
ATOM      4  C   UNL A   1     -23.524   1.254  29.316  0.00  0.00    +0.000 A 
ATOM      5  C   UNL A   1     -25.272   0.112  29.852  0.00  0.00    +0.019 A 
ATOM      6  C   UNL A   1     -24.154   0.605  30.221  0.00  0.00    +0.002 A 
ENDROOT
BRANCH   1   8
ATOM      7  C   UNL A   1     -28.016  -0.814  28.878  0.00  0.00    +0.167 C 
ATOM      8  N   UNL A   1     -27.188  -0.359  28.452  0.00  0.00    -0.232 NA
ATOM      9 CL   UNL A   1     -29.464  -1.394  28.542  0.00  0.00    -0.059 Cl
ENDBRANCH   1   8
TORSDOF 1
