MODEL 630
MODEL 1
REMARK VINA RESULT:    -5.221      0.000      0.000
REMARK INTER + INTRA:          -5.597
REMARK INTER:                  -5.526
REMARK INTRA:                  -0.070
REMARK UNBOUND:                -0.070
REMARK  Name = No_630-gen_results/8p0m/2024-11-26-14-13-15/
REMARK  1 active torsions:
REMARK  status: ('A' for Active; 'I' for Inactive)
REMARK    1  A    between atoms: N_2  and  C_4
REMARK                            x       y       z     vdW  Elec       q    Type
REMARK                         _______ _______ _______ _____ _____    ______ ____
ROOT
ATOM      1  C   UNL A   1     -23.910  -2.893  29.178  0.00  0.00    +0.082 A 
ATOM      2  C   UNL A   1     -24.106  -4.352  28.869  0.00  0.00    +0.019 A 
ATOM      3  C   UNL A   1     -25.231  -5.111  29.095  0.00  0.00    +0.002 A 
ATOM      4  C   UNL A   1     -26.347  -4.593  29.649  0.00  0.00    +0.000 A 
ATOM      5  C   UNL A   1     -25.389  -2.662  29.676  0.00  0.00    +0.019 A 
ATOM      6  C   UNL A   1     -26.422  -3.355  29.963  0.00  0.00    +0.002 A 
ENDROOT
BRANCH   1   8
ATOM      7  C   UNL A   1     -22.773  -1.190  29.119  0.00  0.00    +0.167 C 
ATOM      8  N   UNL A   1     -23.145  -2.141  28.940  0.00  0.00    -0.232 NA
ATOM      9 CL   UNL A   1     -21.501  -0.255  28.887  0.00  0.00    -0.059 Cl
ENDBRANCH   1   8
TORSDOF 1
ENDMDL
ENDMDL
