MODEL 631
MODEL 1
REMARK VINA RESULT:    -6.370      0.000      0.000
REMARK INTER + INTRA:          -6.992
REMARK INTER:                  -6.743
REMARK INTRA:                  -0.250
REMARK UNBOUND:                -0.250
REMARK  Name = No_631-gen_results/8p0m/2024-11-26-14-13-15/
REMARK  1 active torsions:
REMARK  status: ('A' for Active; 'I' for Inactive)
REMARK    1  A    between atoms: C_4  and  C_11
REMARK                            x       y       z     vdW  Elec       q    Type
REMARK                         _______ _______ _______ _____ _____    ______ ____
ROOT
ATOM      1  C   UNL A   1     -25.516   0.505  25.902  0.00  0.00    -0.000 A 
ATOM      2  C   UNL A   1     -25.335  -0.383  26.702  0.00  0.00    -0.000 A 
ATOM      3  C   UNL A   1     -24.282  -0.396  27.615  0.00  0.00    -0.000 A 
ATOM      4  C   UNL A   1     -23.979  -1.440  28.614  0.00  0.00    -0.000 A 
ATOM      5  C   UNL A   1     -22.856  -1.440  29.516  0.00  0.00    -0.000 A 
ATOM      6  C   UNL A   1     -22.133  -0.244  29.550  0.00  0.00    -0.000 A 
ATOM      7  C   UNL A   1     -24.454   1.562  25.792  0.00  0.00    +0.000 A 
ATOM      8  C   UNL A   1     -23.432   1.678  26.706  0.00  0.00    -0.000 A 
ATOM      9  C   UNL A   1     -23.257   0.680  27.648  0.00  0.00    -0.000 A 
ATOM     10  C   UNL A   1     -22.243   0.752  28.603  0.00  0.00    -0.000 A 
ENDROOT
BRANCH   4  11
ATOM     11  C   UNL A   1     -24.856  -2.651  28.721  0.00  0.00    -0.005 C 
ATOM     12  C   UNL A   1     -24.225  -3.871  28.928  0.00  0.00    -0.026 C 
ATOM     13  C   UNL A   1     -25.047  -5.008  29.115  0.00  0.00    +0.031 C 
ENDBRANCH   4  11
TORSDOF 1
ENDMDL
ENDMDL
