REMARK  Name = No_632-gen_results/8p0m/2024-11-26-14-13-15/
REMARK  2 active torsions:
REMARK  status: ('A' for Active; 'I' for Inactive)
REMARK    1  A    between atoms: C_3  and  C_4
REMARK    2  A    between atoms: C_9  and  N_14
REMARK                            x       y       z     vdW  Elec       q    Type
REMARK                         _______ _______ _______ _____ _____    ______ ____
ROOT
ATOM      1  C   UNL A   1     -26.252   0.411  27.422  0.00  0.00    +0.232 C 
ATOM      2  N   UNL A   1     -25.064   0.267  27.526  0.00  0.00    -0.031 NA
ATOM      3  C   UNL A   1     -24.141   1.129  26.876  0.00  0.00    +0.361 C 
ATOM      4  C   UNL A   1     -24.305   1.804  25.814  0.00  0.00    +0.093 C 
ATOM      5  C   UNL A   1     -26.922   0.488  26.151  0.00  0.00    +0.082 C 
ATOM      6  C   UNL A   1     -25.466   1.915  25.001  0.00  0.00    +0.003 C 
ATOM      7  C   UNL A   1     -26.647   1.345  25.192  0.00  0.00    -0.021 C 
ENDROOT
BRANCH   1  10
ATOM      8  C   UNL A   1     -28.016  -0.814  28.878  0.00  0.00    -0.000 A 
ATOM      9  C   UNL A   1     -28.469  -0.785  29.829  0.00  0.00    -0.000 A 
ATOM     10  C   UNL A   1     -27.087   0.290  28.638  0.00  0.00    +0.024 A 
ATOM     11  C   UNL A   1     -28.391   0.104  30.980  0.00  0.00    -0.000 A 
ATOM     12  C   UNL A   1     -27.533   1.167  30.787  0.00  0.00    -0.000 A 
ATOM     13  C   UNL A   1     -26.828   1.256  29.645  0.00  0.00    -0.000 A 
ENDBRANCH   1  10
BRANCH   3  14
ATOM     14  N   UNL A   1     -22.875   1.192  27.463  0.00  0.00    -0.038 NA
ATOM     15  C   UNL A   1     -22.038   2.054  26.817  0.00  0.00    +0.209 C 
ATOM     16  C   UNL A   1     -23.037   2.557  25.561  0.00  0.00    +0.086 C 
ENDBRANCH   3  14
TORSDOF 2
