MODEL 632
MODEL 1
REMARK VINA RESULT:    -6.652      0.000      0.000
REMARK INTER + INTRA:          -6.229
REMARK INTER:                  -7.430
REMARK INTRA:                   1.201
REMARK UNBOUND:                 1.201
REMARK  Name = No_632-gen_results/8p0m/2024-11-26-14-13-15/
REMARK  2 active torsions:
REMARK  status: ('A' for Active; 'I' for Inactive)
REMARK    1  A    between atoms: C_3  and  C_4
REMARK    2  A    between atoms: C_9  and  N_14
REMARK                            x       y       z     vdW  Elec       q    Type
REMARK                         _______ _______ _______ _____ _____    ______ ____
ROOT
ATOM      1  C   UNL A   1     -24.150  -1.353  28.897  0.00  0.00    +0.232 C 
ATOM      2  N   UNL A   1     -24.823  -0.538  28.325  0.00  0.00    -0.031 NA
ATOM      3  C   UNL A   1     -24.259   0.410  27.430  0.00  0.00    +0.361 C 
ATOM      4  C   UNL A   1     -23.081   0.881  27.420  0.00  0.00    +0.093 C 
ATOM      5  C   UNL A   1     -23.001  -1.001  29.688  0.00  0.00    +0.082 C 
ATOM      6  C   UNL A   1     -21.989   0.566  28.274  0.00  0.00    +0.003 C 
ATOM      7  C   UNL A   1     -21.962  -0.314  29.265  0.00  0.00    -0.021 C 
ENDROOT
BRANCH   1  10
ATOM      8  C   UNL A   1     -23.863  -3.906  28.534  0.00  0.00    -0.000 A 
ATOM      9  C   UNL A   1     -24.332  -4.828  28.733  0.00  0.00    -0.000 A 
ATOM     10  C   UNL A   1     -24.641  -2.747  28.971  0.00  0.00    +0.024 A 
ATOM     11  C   UNL A   1     -25.588  -5.233  29.349  0.00  0.00    -0.000 A 
ATOM     12  C   UNL A   1     -26.357  -4.166  29.764  0.00  0.00    -0.000 A 
ATOM     13  C   UNL A   1     -25.885  -2.913  29.635  0.00  0.00    -0.000 A 
ENDBRANCH   1  10
BRANCH   3  14
ATOM     14  N   UNL A   1     -25.141   0.921  26.476  0.00  0.00    -0.038 NA
ATOM     15  C   UNL A   1     -25.833   2.007  26.927  0.00  0.00    +0.209 C 
ATOM     16  C   UNL A   1     -25.245   2.105  28.499  0.00  0.00    +0.086 C 
ENDBRANCH   3  14
TORSDOF 2
ENDMDL
ENDMDL
