REMARK  Name = No_633-gen_results/8p0m/2024-11-26-14-13-15/
REMARK  5 active torsions:
REMARK  status: ('A' for Active; 'I' for Inactive)
REMARK    1  A    between atoms: C_2  and  C_8
REMARK    2  A    between atoms: C_8  and  C_9
REMARK    3  A    between atoms: C_8  and  C_22
REMARK    4  A    between atoms: C_9  and  C_10
REMARK    5  A    between atoms: C_9  and  C_16
REMARK                            x       y       z     vdW  Elec       q    Type
REMARK                         _______ _______ _______ _____ _____    ______ ____
ROOT
ATOM      1  C   UNL A   1     -25.705  -0.217  29.418  0.00  0.00    +0.053 C 
ENDROOT
BRANCH   1   3
ATOM      2  C   UNL A   1     -28.016  -0.814  28.878  0.00  0.00    -0.003 A 
ATOM      3  C   UNL A   1     -27.064  -0.119  28.608  0.00  0.00    -0.018 A 
ATOM      4  C   UNL A   1     -27.001   0.691  27.491  0.00  0.00    -0.003 A 
ATOM      5  C   UNL A   1     -28.137   0.736  26.635  0.00  0.00    +0.006 A 
ATOM      6  C   UNL A   1     -29.236   0.076  27.069  0.00  0.00    +0.035 A 
ATOM      7  C   UNL A   1     -29.218  -0.643  28.175  0.00  0.00    +0.006 A 
ATOM      8 BR   UNL A   1     -30.740   0.174  25.975  0.00  0.00    -0.049 Br
ENDBRANCH   1   3
BRANCH   1   9
ATOM      9  C   UNL A   1     -25.719   0.610  30.694  0.00  0.00    -0.018 A 
ATOM     10  C   UNL A   1     -25.861   1.978  30.507  0.00  0.00    -0.004 A 
ATOM     11  C   UNL A   1     -26.421   2.662  31.054  0.00  0.00    -0.000 A 
ATOM     12  C   UNL A   1     -26.751   2.289  32.476  0.00  0.00    -0.000 A 
ATOM     13  C   UNL A   1     -26.544   0.982  32.851  0.00  0.00    -0.000 A 
ATOM     14  C   UNL A   1     -26.125   0.044  31.866  0.00  0.00    -0.004 A 
ENDBRANCH   1   9
BRANCH   1  15
ATOM     15  C   UNL A   1     -24.839  -1.202  29.166  0.00  0.00    +0.053 C 
BRANCH  15  16
ATOM     16  C   UNL A   1     -24.855  -2.202  28.979  0.00  0.00    -0.018 A 
ATOM     17  C   UNL A   1     -26.033  -3.062  28.929  0.00  0.00    -0.004 A 
ATOM     18  C   UNL A   1     -25.826  -4.506  29.067  0.00  0.00    -0.000 A 
ATOM     19  C   UNL A   1     -24.611  -5.072  28.869  0.00  0.00    -0.000 A 
ATOM     20  C   UNL A   1     -23.498  -4.318  28.593  0.00  0.00    -0.000 A 
ATOM     21  C   UNL A   1     -23.591  -3.025  28.762  0.00  0.00    -0.004 A 
ENDBRANCH  15  16
BRANCH  15  22
ATOM     22  C   UNL A   1     -23.578  -0.383  28.614  0.00  0.00    -0.018 A 
ATOM     23  C   UNL A   1     -23.549   0.669  27.816  0.00  0.00    -0.004 A 
ATOM     24  C   UNL A   1     -22.468   1.533  27.786  0.00  0.00    -0.000 A 
ATOM     25  C   UNL A   1     -21.203   1.101  28.251  0.00  0.00    -0.000 A 
ATOM     26  C   UNL A   1     -22.301  -0.617  29.399  0.00  0.00    -0.004 A 
ATOM     27  C   UNL A   1     -21.171   0.125  29.175  0.00  0.00    -0.000 A 
ENDBRANCH  15  22
ENDBRANCH   1  15
TORSDOF 5
