MODEL 633
MODEL 1
REMARK VINA RESULT:    -8.845      0.000      0.000
REMARK INTER + INTRA:         -14.744
REMARK INTER:                 -11.431
REMARK INTRA:                  -3.313
REMARK UNBOUND:                -3.313
REMARK  Name = No_633-gen_results/8p0m/2024-11-26-14-13-15/
REMARK  5 active torsions:
REMARK  status: ('A' for Active; 'I' for Inactive)
REMARK    1  A    between atoms: C_2  and  C_8
REMARK    2  A    between atoms: C_8  and  C_9
REMARK    3  A    between atoms: C_8  and  C_22
REMARK    4  A    between atoms: C_9  and  C_10
REMARK    5  A    between atoms: C_9  and  C_16
REMARK                            x       y       z     vdW  Elec       q    Type
REMARK                         _______ _______ _______ _____ _____    ______ ____
ROOT
ATOM      1  C   UNL A   1     -24.133  -0.589  29.692  0.00  0.00    +0.053 C 
ENDROOT
BRANCH   1   3
ATOM      2  C   UNL A   1     -23.509  -1.274  31.957  0.00  0.00    -0.003 A 
ATOM      3  C   UNL A   1     -24.294  -0.666  31.267  0.00  0.00    -0.018 A 
ATOM      4  C   UNL A   1     -25.475  -0.131  31.743  0.00  0.00    -0.003 A 
ATOM      5  C   UNL A   1     -25.760  -0.272  33.131  0.00  0.00    +0.006 A 
ATOM      6  C   UNL A   1     -24.775  -0.808  33.889  0.00  0.00    +0.035 A 
ATOM      7  C   UNL A   1     -23.657  -1.258  33.352  0.00  0.00    +0.006 A 
ATOM      8 BR   UNL A   1     -25.126  -0.949  35.713  0.00  0.00    -0.049 Br
ENDBRANCH   1   3
BRANCH   1   9
ATOM      9  C   UNL A   1     -22.975   0.298  29.262  0.00  0.00    -0.018 A 
ATOM     10  C   UNL A   1     -21.753  -0.347  29.139  0.00  0.00    -0.004 A 
ATOM     11  C   UNL A   1     -21.015  -0.227  28.416  0.00  0.00    -0.000 A 
ATOM     12  C   UNL A   1     -20.992   1.087  27.680  0.00  0.00    -0.000 A 
ATOM     13  C   UNL A   1     -22.092   1.902  27.805  0.00  0.00    -0.000 A 
ATOM     14  C   UNL A   1     -23.218   1.427  28.536  0.00  0.00    -0.004 A 
ENDBRANCH   1   9
BRANCH   1  15
ATOM     15  C   UNL A   1     -24.721  -1.496  28.909  0.00  0.00    +0.053 C 
BRANCH  15  16
ATOM     16  C   UNL A   1     -24.914  -2.495  28.911  0.00  0.00    -0.018 A 
ATOM     17  C   UNL A   1     -26.132  -3.147  29.381  0.00  0.00    -0.004 A 
ATOM     18  C   UNL A   1     -26.060  -4.577  29.694  0.00  0.00    -0.000 A 
ATOM     19  C   UNL A   1     -25.055  -5.357  29.227  0.00  0.00    -0.000 A 
ATOM     20  C   UNL A   1     -24.019  -4.838  28.491  0.00  0.00    -0.000 A 
ATOM     21  C   UNL A   1     -23.900  -3.537  28.455  0.00  0.00    -0.004 A 
ENDBRANCH  15  16
BRANCH  15  22
ATOM     22  C   UNL A   1     -25.688  -0.575  28.026  0.00  0.00    -0.018 A 
ATOM     23  C   UNL A   1     -26.548   0.348  28.416  0.00  0.00    -0.004 A 
ATOM     24  C   UNL A   1     -26.970   1.358  27.568  0.00  0.00    -0.000 A 
ATOM     25  C   UNL A   1     -26.861   1.198  26.166  0.00  0.00    -0.000 A 
ATOM     26  C   UNL A   1     -25.295  -0.496  26.562  0.00  0.00    -0.004 A 
ATOM     27  C   UNL A   1     -25.905   0.376  25.698  0.00  0.00    -0.000 A 
ENDBRANCH  15  22
ENDBRANCH   1  15
TORSDOF 5
ENDMDL
ENDMDL
