REMARK  Name = No_634-gen_results/8p0m/2024-11-26-14-13-15/
REMARK  3 active torsions:
REMARK  status: ('A' for Active; 'I' for Inactive)
REMARK    1  A    between atoms: C_3  and  C_7
REMARK    2  A    between atoms: C_7  and  C_8
REMARK    3  A    between atoms: C_8  and  C_9
REMARK                            x       y       z     vdW  Elec       q    Type
REMARK                         _______ _______ _______ _____ _____    ______ ____
ROOT
ATOM      1  C   UNL A   1     -26.466   1.408  26.565  0.00  0.00    +0.074 C 
ATOM      2  C   UNL A   1     -27.020   2.751  26.893  0.00  0.00    +0.012 C 
ATOM      3  C   UNL A   1     -26.079   1.403  25.055  0.00  0.00    +0.012 C 
ENDROOT
BRANCH   1   4
ATOM      4  C   UNL A   1     -25.245   1.328  27.356  0.00  0.00    -0.016 A 
ATOM      5  C   UNL A   1     -24.304   2.299  27.231  0.00  0.00    -0.004 A 
ATOM      6  C   UNL A   1     -23.087   2.291  27.963  0.00  0.00    -0.000 A 
ATOM      7  C   UNL A   1     -22.783   1.105  28.762  0.00  0.00    -0.000 A 
ATOM      8  C   UNL A   1     -23.720   0.121  28.817  0.00  0.00    -0.000 A 
ATOM      9  C   UNL A   1     -24.919   0.188  28.142  0.00  0.00    -0.004 A 
ENDBRANCH   1   4
BRANCH   1  10
ATOM     10  C   UNL A   1     -27.460   0.380  26.709  0.00  0.00    +0.176 C 
ATOM     11  O   UNL A   1     -27.853  -0.323  25.799  0.00  0.00    -0.291 OA
BRANCH  10  14
ATOM     12  C   UNL A   1     -28.016  -0.814  28.878  0.00  0.00    +0.003 A 
ATOM     13  C   UNL A   1     -28.469  -0.785  29.829  0.00  0.00    +0.000 A 
ATOM     14  C   UNL A   1     -28.196   0.348  28.055  0.00  0.00    +0.035 A 
ATOM     15  C   UNL A   1     -29.019   1.350  28.378  0.00  0.00    +0.003 A 
ATOM     16  C   UNL A   1     -29.411   0.180  30.378  0.00  0.00    +0.000 A 
ATOM     17  C   UNL A   1     -29.606   1.250  29.619  0.00  0.00    +0.000 A 
ENDBRANCH  10  14
ENDBRANCH   1  10
TORSDOF 3
