MODEL 634
MODEL 1
REMARK VINA RESULT:    -7.228      0.000      0.000
REMARK INTER + INTRA:          -9.193
REMARK INTER:                  -8.495
REMARK INTRA:                  -0.697
REMARK UNBOUND:                -0.697
REMARK  Name = No_634-gen_results/8p0m/2024-11-26-14-13-15/
REMARK  3 active torsions:
REMARK  status: ('A' for Active; 'I' for Inactive)
REMARK    1  A    between atoms: C_3  and  C_7
REMARK    2  A    between atoms: C_7  and  C_8
REMARK    3  A    between atoms: C_8  and  C_9
REMARK                            x       y       z     vdW  Elec       q    Type
REMARK                         _______ _______ _______ _____ _____    ______ ____
ROOT
ATOM      1  C   UNL A   1     -24.415  -0.544  29.937  0.00  0.00    +0.074 C 
ATOM      2  C   UNL A   1     -23.788  -1.414  30.970  0.00  0.00    +0.012 C 
ATOM      3  C   UNL A   1     -25.186   0.595  30.671  0.00  0.00    +0.012 C 
ENDROOT
BRANCH   1   4
ATOM      4  C   UNL A   1     -23.281   0.043  29.235  0.00  0.00    -0.016 A 
ATOM      5  C   UNL A   1     -23.489   1.071  28.373  0.00  0.00    -0.004 A 
ATOM      6  C   UNL A   1     -22.437   1.693  27.649  0.00  0.00    -0.000 A 
ATOM      7  C   UNL A   1     -21.108   1.090  27.729  0.00  0.00    -0.000 A 
ATOM      8  C   UNL A   1     -20.946   0.022  28.554  0.00  0.00    -0.000 A 
ATOM      9  C   UNL A   1     -21.976  -0.520  29.291  0.00  0.00    -0.004 A 
ENDBRANCH   1   4
BRANCH   1  10
ATOM     10  C   UNL A   1     -25.410  -1.256  29.183  0.00  0.00    +0.176 C 
ATOM     11  O   UNL A   1     -26.414  -0.747  28.724  0.00  0.00    -0.291 OA
BRANCH  10  14
ATOM     12  C   UNL A   1     -24.130  -3.333  28.485  0.00  0.00    +0.003 A 
ATOM     13  C   UNL A   1     -24.010  -4.378  28.548  0.00  0.00    +0.000 A 
ATOM     14  C   UNL A   1     -25.267  -2.784  29.167  0.00  0.00    +0.035 A 
ATOM     15  C   UNL A   1     -26.224  -3.539  29.714  0.00  0.00    +0.003 A 
ATOM     16  C   UNL A   1     -24.922  -5.386  29.069  0.00  0.00    +0.000 A 
ATOM     17  C   UNL A   1     -25.991  -4.895  29.682  0.00  0.00    +0.000 A 
ENDBRANCH  10  14
ENDBRANCH   1  10
TORSDOF 3
ENDMDL
ENDMDL
