MODEL 635
MODEL 1
REMARK VINA RESULT:    -5.321      0.000      0.000
REMARK INTER + INTRA:          -5.816
REMARK INTER:                  -5.632
REMARK INTRA:                  -0.184
REMARK UNBOUND:                -0.184
REMARK  Name = No_635-gen_results/8p0m/2024-11-26-14-13-15/
REMARK  1 active torsions:
REMARK  status: ('A' for Active; 'I' for Inactive)
REMARK    1  A    between atoms: C_5  and  C_7
REMARK                            x       y       z     vdW  Elec       q    Type
REMARK                         _______ _______ _______ _____ _____    ______ ____
ROOT
ATOM      1  C   UNL A   1     -26.374  -3.698  29.849  0.00  0.00    -0.000 A 
ATOM      2  C   UNL A   1     -26.123  -4.850  29.584  0.00  0.00    -0.000 A 
ATOM      3  C   UNL A   1     -24.964  -5.293  28.969  0.00  0.00    -0.000 A 
ATOM      4  C   UNL A   1     -23.981  -4.308  28.653  0.00  0.00    -0.000 A 
ATOM      5  C   UNL A   1     -24.229  -3.059  29.096  0.00  0.00    -0.000 A 
ATOM      6  C   UNL A   1     -25.346  -2.756  29.760  0.00  0.00    -0.000 A 
ENDROOT
BRANCH   5   7
ATOM      7  C   UNL A   1     -23.280  -1.952  28.962  0.00  0.00    -0.005 C 
ATOM      8  C   UNL A   1     -23.662  -0.791  28.565  0.00  0.00    -0.026 C 
ATOM      9  C   UNL A   1     -22.839   0.382  28.475  0.00  0.00    +0.031 C 
ENDBRANCH   5   7
TORSDOF 1
ENDMDL
ENDMDL
