REMARK  Name = No_636-gen_results/8p0m/2024-11-26-14-13-15/
REMARK  3 active torsions:
REMARK  status: ('A' for Active; 'I' for Inactive)
REMARK    1  A    between atoms: C_3  and  C_14
REMARK    2  A    between atoms: C_5  and  C_11
REMARK    3  A    between atoms: C_14  and  C_15
REMARK                            x       y       z     vdW  Elec       q    Type
REMARK                         _______ _______ _______ _____ _____    ______ ____
ROOT
ATOM      1  C   UNL A   1     -28.016  -0.814  28.878  0.00  0.00    +0.024 C 
ATOM      2  C   UNL A   1     -27.064  -0.119  28.608  0.00  0.00    +0.011 C 
ATOM      3  C   UNL A   1     -26.972   0.714  27.506  0.00  0.00    +0.010 C 
ATOM      4  C   UNL A   1     -25.820   1.491  27.116  0.00  0.00    +0.012 C 
ATOM      5  C   UNL A   1     -24.656   1.424  27.918  0.00  0.00    +0.104 C 
ATOM      6  C   UNL A   1     -24.685   0.590  29.066  0.00  0.00    +0.020 C 
ATOM      7  C   UNL A   1     -25.810  -0.127  29.334  0.00  0.00    +0.079 C 
ATOM      8  C   UNL A   1     -28.054  -1.547  30.189  0.00  0.00    +0.115 C 
ATOM      9  N   UNL A   1     -26.878  -1.747  30.849  0.00  0.00    -0.205 NA
ATOM     10  C   UNL A   1     -25.806  -0.999  30.550  0.00  0.00    +0.241 C 
ATOM     11  O   UNL A   1     -24.739  -1.136  31.209  0.00  0.00    -0.273 OA
ENDROOT
BRANCH   5  12
ATOM     12  C   UNL A   1     -23.452   2.226  27.588  0.00  0.00    +0.364 C 
ATOM     13  O   UNL A   1     -23.268   2.757  26.490  0.00  0.00    -0.246 OA
ATOM     14  O   UNL A   1     -22.388   2.143  28.401  0.00  0.00    -0.246 OA
ENDBRANCH   5  12
BRANCH   3  15
ATOM     15  C   UNL A   1     -28.086   0.800  26.538  0.00  0.00    +0.078 C 
ATOM     16  C   UNL A   1     -27.838   0.575  25.180  0.00  0.00    +0.010 C 
BRANCH  15  17
ATOM     17  C   UNL A   1     -29.148   1.502  26.860  0.00  0.00    +0.241 C 
ATOM     18  O   UNL A   1     -29.408   1.968  28.033  0.00  0.00    -0.273 OA
ATOM     19  N   UNL A   1     -30.166   1.526  26.000  0.00  0.00    -0.203 NA
ATOM     20  C   UNL A   1     -31.482   2.037  26.285  0.00  0.00    +0.139 C 
ENDBRANCH  15  17
ENDBRANCH   3  15
TORSDOF 3
