MODEL 637
MODEL 1
REMARK VINA RESULT:    -4.549      0.000      0.000
REMARK INTER + INTRA:          -4.549
REMARK INTER:                  -4.549
REMARK INTRA:                   0.000
REMARK UNBOUND:                 0.000
REMARK  Name = No_637-gen_results/8p0m/2024-11-26-14-13-15/
REMARK  0 active torsions:
REMARK  status: ('A' for Active; 'I' for Inactive)
REMARK                            x       y       z     vdW  Elec       q    Type
REMARK                         _______ _______ _______ _____ _____    ______ ____
ROOT
ATOM      1  C   UNL A   1      -8.880 -10.667  18.038  0.00  0.00    +0.030 A 
ATOM      2  C   UNL A   1      -9.775 -10.115  18.107  0.00  0.00    +0.140 A 
ATOM      3  C   UNL A   1      -7.904 -10.478  19.124  0.00  0.00    +0.002 A 
ATOM      4  C   UNL A   1      -8.237  -9.697  20.269  0.00  0.00    +0.000 A 
ATOM      5  C   UNL A   1     -10.378  -9.297  19.194  0.00  0.00    +0.030 A 
ATOM      6  C   UNL A   1      -9.500  -9.091  20.215  0.00  0.00    +0.002 A 
ATOM      7  F   UNL A   1     -10.741 -10.307  17.055  0.00  0.00    -0.204 F 
ENDROOT
TORSDOF 0
ENDMDL
ENDMDL
