REMARK  Name = No_638-gen_results/8p0m/2024-11-26-14-13-15/
REMARK  6 active torsions:
REMARK  status: ('A' for Active; 'I' for Inactive)
REMARK    1  A    between atoms: C_3  and  C_4
REMARK    2  A    between atoms: C_10  and  C_11
REMARK    3  A    between atoms: N_14  and  C_15
REMARK    4  A    between atoms: C_20  and  O_22
REMARK    5  A    between atoms: O_22  and  C_23
REMARK    6  A    between atoms: C_23  and  C_24
REMARK                            x       y       z     vdW  Elec       q    Type
REMARK                         _______ _______ _______ _____ _____    ______ ____
ROOT
ATOM      1  C   UNL A   1     -29.085  -2.641  30.243  0.00  0.00    +0.269 C 
ATOM      2  N   UNL A   1     -29.013  -3.968  30.422  0.00  0.00    -0.175 NA
ATOM      3  O   UNL A   1     -30.022  -2.108  30.805  0.00  0.00    -0.268 OA
ENDROOT
BRANCH   1   7
ATOM      4  C   UNL A   1     -28.016  -0.814  28.878  0.00  0.00    +0.005 A 
ATOM      5  C   UNL A   1     -27.064  -0.119  28.608  0.00  0.00    +0.000 A 
ATOM      6  C   UNL A   1     -25.792  -0.430  29.076  0.00  0.00    +0.000 A 
ATOM      7  C   UNL A   1     -27.947  -1.882  29.871  0.00  0.00    +0.055 A 
ATOM      8  C   UNL A   1     -25.589  -1.621  29.879  0.00  0.00    +0.000 A 
ATOM      9  C   UNL A   1     -26.701  -2.272  30.329  0.00  0.00    +0.005 A 
BRANCH   6  10
ATOM     10  C   UNL A   1     -24.546   0.349  28.823  0.00  0.00    +0.000 A 
ATOM     11  C   UNL A   1     -24.659   1.420  27.888  0.00  0.00    +0.000 A 
ATOM     12  C   UNL A   1     -23.540   2.179  27.550  0.00  0.00    +0.000 A 
ATOM     13  C   UNL A   1     -22.293   1.743  28.047  0.00  0.00    +0.000 A 
ATOM     14  C   UNL A   1     -22.171   0.708  28.928  0.00  0.00    +0.000 A 
ATOM     15  C   UNL A   1     -23.334  -0.062  29.308  0.00  0.00    +0.000 A 
ENDBRANCH   6  10
ENDBRANCH   1   7
BRANCH   2  16
ATOM     16  C   UNL A   1     -29.818  -4.674  31.230  0.00  0.00    +0.077 A 
ATOM     17  C   UNL A   1     -29.426  -5.155  32.340  0.00  0.00    +0.017 A 
ATOM     18  C   UNL A   1     -30.164  -5.438  33.223  0.00  0.00    +0.004 A 
ATOM     19  C   UNL A   1     -31.564  -5.636  33.088  0.00  0.00    +0.037 A 
ATOM     20  C   UNL A   1     -32.049  -5.181  31.842  0.00  0.00    +0.140 A 
ATOM     21  C   UNL A   1     -31.149  -4.598  30.960  0.00  0.00    +0.053 A 
BRANCH  20  22
ATOM     22  O   UNL A   1     -33.385  -5.123  31.629  0.00  0.00    -0.475 OA
BRANCH  22  23
ATOM     23  C   UNL A   1     -33.981  -5.569  30.657  0.00  0.00    +0.188 C 
ATOM     24  C   UNL A   1     -35.238  -4.895  30.180  0.00  0.00    +0.052 C 
BRANCH  23  25
ATOM     25  C   UNL A   1     -33.624  -6.579  29.916  0.00  0.00    +0.017 A 
ATOM     26  C   UNL A   1     -32.820  -6.404  29.041  0.00  0.00    -0.001 A 
ATOM     27  C   UNL A   1     -31.988  -7.468  28.430  0.00  0.00    -0.000 A 
ATOM     28  C   UNL A   1     -32.249  -8.771  28.822  0.00  0.00    -0.000 A 
ATOM     29  C   UNL A   1     -33.195  -8.980  29.779  0.00  0.00    -0.000 A 
ATOM     30  C   UNL A   1     -33.773  -7.931  30.377  0.00  0.00    -0.001 A 
ENDBRANCH  23  25
ENDBRANCH  22  23
ENDBRANCH  20  22
ENDBRANCH   2  16
TORSDOF 6
