REMARK  Name = No_639-gen_results/8p0m/2024-11-26-14-13-15/
REMARK  2 active torsions:
REMARK  status: ('A' for Active; 'I' for Inactive)
REMARK    1  A    between atoms: C_3  and  C_12
REMARK    2  A    between atoms: C_5  and  C_7
REMARK                            x       y       z     vdW  Elec       q    Type
REMARK                         _______ _______ _______ _____ _____    ______ ____
ROOT
ATOM      1  C   UNL A   1     -28.016  -0.814  28.878  0.00  0.00    +0.085 A 
ATOM      2  C   UNL A   1     -27.064  -0.119  28.608  0.00  0.00    +0.150 A 
ATOM      3  C   UNL A   1     -26.972   0.714  27.506  0.00  0.00    +0.029 A 
ATOM      4  C   UNL A   1     -28.105   0.774  26.642  0.00  0.00    +0.009 A 
ATOM      5  C   UNL A   1     -29.201   0.104  27.053  0.00  0.00    +0.081 A 
ATOM      6  C   UNL A   1     -29.210  -0.603  28.185  0.00  0.00    +0.020 A 
ATOM      7  F   UNL A   1     -25.857  -0.189  29.378  0.00  0.00    -0.203 F 
ATOM      8 CL   UNL A   1     -28.073  -1.816  30.345  0.00  0.00    -0.080 Cl
ENDROOT
BRANCH   3   9
ATOM      9  C   UNL A   1     -25.662   1.405  27.130  0.00  0.00    +0.002 A 
ATOM     10  C   UNL A   1     -25.174   1.686  26.256  0.00  0.00    +0.000 A 
ATOM     11  C   UNL A   1     -23.831   2.400  26.150  0.00  0.00    +0.000 A 
ATOM     12  C   UNL A   1     -23.192   2.548  27.355  0.00  0.00    +0.000 A 
ATOM     13  C   UNL A   1     -23.778   2.073  28.474  0.00  0.00    +0.000 A 
ATOM     14  C   UNL A   1     -24.985   1.543  28.527  0.00  0.00    +0.000 A 
ENDBRANCH   3   9
BRANCH   5  15
ATOM     15  C   UNL A   1     -30.370   0.226  26.160  0.00  0.00    +0.388 C 
ATOM     16  O   UNL A   1     -31.221  -0.463  26.310  0.00  0.00    -0.241 OA
ATOM     17  O   UNL A   1     -30.168   0.839  24.939  0.00  0.00    -0.241 OA
ENDBRANCH   5  15
TORSDOF 2
