MODEL 639
MODEL 1
REMARK VINA RESULT:    -6.838      0.000      0.000
REMARK INTER + INTRA:          -8.155
REMARK INTER:                  -7.637
REMARK INTRA:                  -0.518
REMARK UNBOUND:                -0.518
REMARK  Name = No_639-gen_results/8p0m/2024-11-26-14-13-15/
REMARK  2 active torsions:
REMARK  status: ('A' for Active; 'I' for Inactive)
REMARK    1  A    between atoms: C_3  and  C_12
REMARK    2  A    between atoms: C_5  and  C_7
REMARK                            x       y       z     vdW  Elec       q    Type
REMARK                         _______ _______ _______ _____ _____    ______ ____
ROOT
ATOM      1  C   UNL A   1     -29.733  -9.705  32.092  0.00  0.00    +0.085 A 
ATOM      2  C   UNL A   1     -29.865 -10.318  31.059  0.00  0.00    +0.150 A 
ATOM      3  C   UNL A   1     -29.088 -11.395  30.666  0.00  0.00    +0.029 A 
ATOM      4  C   UNL A   1     -28.074 -11.827  31.571  0.00  0.00    +0.009 A 
ATOM      5  C   UNL A   1     -28.053 -11.218  32.774  0.00  0.00    +0.081 A 
ATOM      6  C   UNL A   1     -28.910 -10.243  33.084  0.00  0.00    +0.020 A 
ATOM      7  F   UNL A   1     -30.802  -9.892  30.062  0.00  0.00    -0.203 F 
ATOM      8 CL   UNL A   1     -30.810  -8.365  32.543  0.00  0.00    -0.080 Cl
ENDROOT
BRANCH   3   9
ATOM      9  C   UNL A   1     -29.189 -11.988  29.261  0.00  0.00    +0.002 A 
ATOM     10  C   UNL A   1     -28.953 -11.692  28.293  0.00  0.00    +0.000 A 
ATOM     11  C   UNL A   1     -29.150 -12.504  27.018  0.00  0.00    +0.000 A 
ATOM     12  C   UNL A   1     -29.824 -13.683  27.217  0.00  0.00    +0.000 A 
ATOM     13  C   UNL A   1     -30.233 -14.006  28.462  0.00  0.00    +0.000 A 
ATOM     14  C   UNL A   1     -29.958 -13.312  29.550  0.00  0.00    +0.000 A 
ENDBRANCH   3   9
BRANCH   5  15
ATOM     15  C   UNL A   1     -27.023 -11.722  33.704  0.00  0.00    +0.388 C 
ATOM     16  O   UNL A   1     -26.851 -12.812  33.759  0.00  0.00    -0.241 OA
ATOM     17  O   UNL A   1     -26.668 -10.900  34.755  0.00  0.00    -0.241 OA
ENDBRANCH   5  15
TORSDOF 2
ENDMDL
ENDMDL
