MODEL 63
MODEL 1
REMARK VINA RESULT:    -4.405      0.000      0.000
REMARK INTER + INTRA:          -4.405
REMARK INTER:                  -4.405
REMARK INTRA:                   0.000
REMARK UNBOUND:                 0.000
REMARK  Name = No_63-gen_results/8p0m/2024-11-26-14-13-15/
REMARK  0 active torsions:
REMARK  status: ('A' for Active; 'I' for Inactive)
REMARK                            x       y       z     vdW  Elec       q    Type
REMARK                         _______ _______ _______ _____ _____    ______ ____
ROOT
ATOM      1  C   UNL A   1      -9.165  -9.142  20.237  0.00  0.00    +0.011 A 
ATOM      2  C   UNL A   1      -8.159  -9.785  20.044  0.00  0.00    +0.058 A 
ATOM      3  C   UNL A   1      -8.001 -10.541  18.887  0.00  0.00    +0.011 A 
ATOM      4  C   UNL A   1      -9.051 -10.619  17.904  0.00  0.00    +0.001 A 
ATOM      5  C   UNL A   1     -10.188  -9.864  18.219  0.00  0.00    +0.000 A 
ATOM      6  C   UNL A   1     -10.294  -9.179  19.334  0.00  0.00    +0.001 A 
ATOM      7 CL   UNL A   1      -6.833  -9.848  21.126  0.00  0.00    -0.082 Cl
ENDROOT
TORSDOF 0
ENDMDL
ENDMDL
