REMARK  Name = No_64-gen_results/8p0m/2024-11-26-14-13-15/
REMARK  4 active torsions:
REMARK  status: ('A' for Active; 'I' for Inactive)
REMARK    1  A    between atoms: C_2  and  C_11
REMARK    2  A    between atoms: C_3  and  C_4
REMARK    3  A    between atoms: C_6  and  C_14
REMARK    4  A    between atoms: N_15  and  C_16
REMARK                            x       y       z     vdW  Elec       q    Type
REMARK                         _______ _______ _______ _____ _____    ______ ____
ROOT
ATOM      1  C   UNL A   1     -28.016  -0.814  28.878  0.00  0.00    +0.010 A 
ATOM      2  C   UNL A   1     -28.469  -0.785  29.829  0.00  0.00    +0.080 A 
ATOM      3  C   UNL A   1     -27.087   0.290  28.638  0.00  0.00    +0.072 A 
ATOM      4  C   UNL A   1     -28.391   0.104  30.980  0.00  0.00    +0.008 A 
ATOM      5  C   UNL A   1     -27.533   1.167  30.787  0.00  0.00    +0.020 A 
ATOM      6  C   UNL A   1     -26.828   1.256  29.645  0.00  0.00    +0.005 A 
ENDROOT
BRANCH   3   7
ATOM      7  C   UNL A   1     -26.252   0.411  27.422  0.00  0.00    +0.419 C 
ATOM      8  F   UNL A   1     -26.055   1.550  27.314  0.00  0.00    -0.166 F 
ATOM      9  F   UNL A   1     -25.147  -0.330  27.552  0.00  0.00    -0.166 F 
ATOM     10  F   UNL A   1     -26.973  -0.029  26.331  0.00  0.00    -0.166 F 
ENDBRANCH   3   7
BRANCH   2  11
ATOM     11  C   UNL A   1     -29.455  -2.009  30.224  0.00  0.00    +0.388 C 
ATOM     12  O   UNL A   1     -29.064  -3.144  30.397  0.00  0.00    -0.241 OA
ATOM     13  O   UNL A   1     -30.684  -1.771  30.386  0.00  0.00    -0.241 OA
ENDBRANCH   2  11
BRANCH   5  14
ATOM     14  C   UNL A   1     -27.338   2.184  31.857  0.00  0.00    +0.109 C 
ATOM     15  N   UNL A   1     -26.535   2.889  31.962  0.00  0.00    -0.192 NA
BRANCH  15  16
ATOM     16  C   UNL A   1     -25.374   2.911  31.285  0.00  0.00    +0.069 C 
ATOM     17  C   UNL A   1     -24.402   3.304  31.454  0.00  0.00    +0.118 C 
ATOM     18  O   UNL A   1     -24.460   4.239  32.508  0.00  0.00    -0.127 OA
ENDBRANCH  15  16
ENDBRANCH   5  14
TORSDOF 4
