REMARK  Name = No_640-gen_results/8p0m/2024-11-26-14-13-15/
REMARK  0 active torsions:
REMARK  status: ('A' for Active; 'I' for Inactive)
REMARK                            x       y       z     vdW  Elec       q    Type
REMARK                         _______ _______ _______ _____ _____    ______ ____
ROOT
ATOM      1  C   UNL A   1     -28.016  -0.814  28.878  0.00  0.00    -0.000 A 
ATOM      2  C   UNL A   1     -28.469  -0.785  29.829  0.00  0.00    -0.000 A 
ATOM      3  C   UNL A   1     -27.136   0.236  28.535  0.00  0.00    -0.003 A 
ATOM      4  C   UNL A   1     -26.805   1.051  29.276  0.00  0.00    -0.005 A 
ATOM      5  C   UNL A   1     -28.237   0.150  30.930  0.00  0.00    -0.000 A 
ATOM      6  C   UNL A   1     -27.352   1.124  30.607  0.00  0.00    -0.003 A 
ATOM      7  C   UNL A   1     -26.383   0.386  27.165  0.00  0.00    -0.000 C 
ATOM      8  C   UNL A   1     -25.967   1.163  26.654  0.00  0.00    -0.000 C 
ATOM      9  C   UNL A   1     -25.384   2.006  26.926  0.00  0.00    -0.004 C 
ATOM     10  C   UNL A   1     -24.756   2.284  27.777  0.00  0.00    -0.024 C 
ATOM     11  C   UNL A   1     -25.054   2.416  29.242  0.00  0.00    +0.050 C 
ATOM     12  C   UNL A   1     -25.519   2.223  29.299  0.00  0.00    +0.118 C 
ATOM     13  N   UNL A   1     -26.006   2.869  30.357  0.00  0.00    -0.128 NA
ENDROOT
TORSDOF 0
