MODEL 640
MODEL 1
REMARK VINA RESULT:    -6.152      0.000      0.000
REMARK INTER + INTRA:          -6.152
REMARK INTER:                  -6.152
REMARK INTRA:                   0.000
REMARK UNBOUND:                 0.000
REMARK  Name = No_640-gen_results/8p0m/2024-11-26-14-13-15/
REMARK  0 active torsions:
REMARK  status: ('A' for Active; 'I' for Inactive)
REMARK                            x       y       z     vdW  Elec       q    Type
REMARK                         _______ _______ _______ _____ _____    ______ ____
ROOT
ATOM      1  C   UNL A   1     -24.685   1.258  26.416  0.00  0.00    -0.000 A 
ATOM      2  C   UNL A   1     -23.995   1.983  26.085  0.00  0.00    -0.000 A 
ATOM      3  C   UNL A   1     -24.229   0.282  27.329  0.00  0.00    -0.003 A 
ATOM      4  C   UNL A   1     -23.184   0.305  27.810  0.00  0.00    -0.005 A 
ATOM      5  C   UNL A   1     -22.617   2.207  26.522  0.00  0.00    -0.000 A 
ATOM      6  C   UNL A   1     -22.206   1.294  27.435  0.00  0.00    -0.003 A 
ATOM      7  C   UNL A   1     -25.091  -0.890  27.920  0.00  0.00    -0.000 C 
ATOM      8  C   UNL A   1     -24.885  -1.799  28.331  0.00  0.00    -0.000 C 
ATOM      9  C   UNL A   1     -24.153  -2.161  29.008  0.00  0.00    -0.004 C 
ATOM     10  C   UNL A   1     -23.487  -1.719  29.754  0.00  0.00    -0.024 C 
ATOM     11  C   UNL A   1     -22.413  -0.676  29.646  0.00  0.00    +0.050 C 
ATOM     12  C   UNL A   1     -22.459  -0.489  29.178  0.00  0.00    +0.118 C 
ATOM     13  N   UNL A   1     -21.228  -0.081  28.875  0.00  0.00    -0.128 NA
ENDROOT
TORSDOF 0
ENDMDL
ENDMDL
