REMARK  Name = No_641-gen_results/8p0m/2024-11-26-14-13-15/
REMARK  2 active torsions:
REMARK  status: ('A' for Active; 'I' for Inactive)
REMARK    1  A    between atoms: C_3  and  C_14
REMARK    2  A    between atoms: C_5  and  C_11
REMARK                            x       y       z     vdW  Elec       q    Type
REMARK                         _______ _______ _______ _____ _____    ______ ____
ROOT
ATOM      1  C   UNL A   1     -28.016  -0.814  28.878  0.00  0.00    +0.000 A 
ATOM      2  C   UNL A   1     -27.064  -0.119  28.608  0.00  0.00    +0.000 A 
ATOM      3  C   UNL A   1     -26.972   0.714  27.506  0.00  0.00    +0.000 A 
ATOM      4  C   UNL A   1     -25.820   1.491  27.116  0.00  0.00    +0.007 A 
ATOM      5  C   UNL A   1     -24.656   1.424  27.918  0.00  0.00    +0.080 A 
ATOM      6  C   UNL A   1     -24.685   0.590  29.066  0.00  0.00    +0.007 A 
ATOM      7  C   UNL A   1     -25.810  -0.127  29.334  0.00  0.00    +0.000 A 
ATOM      8  C   UNL A   1     -28.044  -1.573  30.169  0.00  0.00    +0.000 A 
ATOM      9  C   UNL A   1     -26.817  -1.760  30.870  0.00  0.00    +0.000 A 
ATOM     10  C   UNL A   1     -25.748  -0.992  30.538  0.00  0.00    +0.000 A 
ENDROOT
BRANCH   3  11
ATOM     11  C   UNL A   1     -28.095   0.809  26.537  0.00  0.00    +0.000 A 
ATOM     12  C   UNL A   1     -27.955   0.697  25.244  0.00  0.00    +0.000 A 
ATOM     13  C   UNL A   1     -29.003   0.517  24.353  0.00  0.00    +0.000 A 
ATOM     14  C   UNL A   1     -30.273   0.452  24.854  0.00  0.00    +0.000 A 
ATOM     15  C   UNL A   1     -30.451   0.547  25.918  0.00  0.00    +0.000 A 
ATOM     16  C   UNL A   1     -29.468   0.646  27.040  0.00  0.00    +0.000 A 
ENDBRANCH   3  11
BRANCH   5  17
ATOM     17  C   UNL A   1     -23.459   2.228  27.584  0.00  0.00    +0.388 C 
ATOM     18  O   UNL A   1     -22.340   1.985  28.143  0.00  0.00    -0.241 OA
ATOM     19  O   UNL A   1     -23.616   3.312  26.931  0.00  0.00    -0.241 OA
ENDBRANCH   5  17
TORSDOF 2
