MODEL 641
MODEL 1
REMARK VINA RESULT:    -7.552      0.000      0.000
REMARK INTER + INTRA:          -8.842
REMARK INTER:                  -8.435
REMARK INTRA:                  -0.406
REMARK UNBOUND:                -0.406
REMARK  Name = No_641-gen_results/8p0m/2024-11-26-14-13-15/
REMARK  2 active torsions:
REMARK  status: ('A' for Active; 'I' for Inactive)
REMARK    1  A    between atoms: C_3  and  C_14
REMARK    2  A    between atoms: C_5  and  C_11
REMARK                            x       y       z     vdW  Elec       q    Type
REMARK                         _______ _______ _______ _____ _____    ______ ____
ROOT
ATOM      1  C   UNL A   1     -22.553  -0.932  28.914  0.00  0.00    +0.000 A 
ATOM      2  C   UNL A   1     -23.465  -0.476  28.263  0.00  0.00    +0.000 A 
ATOM      3  C   UNL A   1     -24.716  -1.055  28.129  0.00  0.00    +0.000 A 
ATOM      4  C   UNL A   1     -25.793  -0.576  27.297  0.00  0.00    +0.007 A 
ATOM      5  C   UNL A   1     -25.589   0.599  26.535  0.00  0.00    +0.080 A 
ATOM      6  C   UNL A   1     -24.328   1.243  26.629  0.00  0.00    +0.007 A 
ATOM      7  C   UNL A   1     -23.364   0.698  27.420  0.00  0.00    +0.000 A 
ATOM      8  C   UNL A   1     -21.290  -0.145  29.083  0.00  0.00    +0.000 A 
ATOM      9  C   UNL A   1     -21.042   0.936  28.188  0.00  0.00    +0.000 A 
ATOM     10  C   UNL A   1     -22.068   1.420  27.443  0.00  0.00    +0.000 A 
ENDROOT
BRANCH   3  11
ATOM     11  C   UNL A   1     -25.030  -2.337  28.811  0.00  0.00    +0.000 A 
ATOM     12  C   UNL A   1     -26.119  -2.551  29.498  0.00  0.00    +0.000 A 
ATOM     13  C   UNL A   1     -26.554  -3.801  29.912  0.00  0.00    +0.000 A 
ATOM     14  C   UNL A   1     -25.797  -4.891  29.582  0.00  0.00    +0.000 A 
ATOM     15  C   UNL A   1     -24.879  -4.774  29.020  0.00  0.00    +0.000 A 
ATOM     16  C   UNL A   1     -24.294  -3.544  28.403  0.00  0.00    +0.000 A 
ENDBRANCH   3  11
BRANCH   5  17
ATOM     17  C   UNL A   1     -26.672   1.153  25.692  0.00  0.00    +0.388 C 
ATOM     18  O   UNL A   1     -26.782   0.808  24.470  0.00  0.00    -0.241 OA
ATOM     19  O   UNL A   1     -27.329   2.156  26.127  0.00  0.00    -0.241 OA
ENDBRANCH   5  17
TORSDOF 2
ENDMDL
ENDMDL
