REMARK  Name = No_642-gen_results/8p0m/2024-11-26-14-13-15/
REMARK  1 active torsions:
REMARK  status: ('A' for Active; 'I' for Inactive)
REMARK    1  A    between atoms: C_2  and  N_7
REMARK                            x       y       z     vdW  Elec       q    Type
REMARK                         _______ _______ _______ _____ _____    ______ ____
ROOT
ATOM      1  N   UNL A   1     -27.106   1.034  27.819  0.00  0.00    -0.286 N 
ATOM      2  C   UNL A   1     -26.261   1.329  26.904  0.00  0.00    +0.061 C 
ATOM      3  C   UNL A   1     -28.239   1.893  27.897  0.00  0.00    +0.096 C 
ATOM      4  C   UNL A   1     -25.348   2.293  27.128  0.00  0.00    -0.010 C 
ATOM      5  C   UNL A   1     -25.431   3.244  27.921  0.00  0.00    +0.027 C 
ATOM      6  C   UNL A   1     -26.351   3.345  28.943  0.00  0.00    +0.006 C 
ATOM      7  C   UNL A   1     -27.708   3.104  28.777  0.00  0.00    +0.022 C 
ENDROOT
BRANCH   1   9
ATOM      8  C   UNL A   1     -28.016  -0.814  28.878  0.00  0.00    +0.015 A 
ATOM      9  C   UNL A   1     -27.064  -0.119  28.608  0.00  0.00    +0.052 A 
ATOM     10  C   UNL A   1     -25.792  -0.430  29.076  0.00  0.00    +0.015 A 
ATOM     11  C   UNL A   1     -25.576  -1.565  29.936  0.00  0.00    +0.001 A 
ATOM     12  C   UNL A   1     -26.735  -2.300  30.217  0.00  0.00    +0.000 A 
ATOM     13  C   UNL A   1     -27.918  -1.954  29.763  0.00  0.00    +0.001 A 
ENDBRANCH   1   9
TORSDOF 1
