MODEL 642
MODEL 1
REMARK VINA RESULT:    -6.435      0.000      0.000
REMARK INTER + INTRA:          -7.282
REMARK INTER:                  -6.811
REMARK INTRA:                  -0.471
REMARK UNBOUND:                -0.471
REMARK  Name = No_642-gen_results/8p0m/2024-11-26-14-13-15/
REMARK  1 active torsions:
REMARK  status: ('A' for Active; 'I' for Inactive)
REMARK    1  A    between atoms: C_2  and  N_7
REMARK                            x       y       z     vdW  Elec       q    Type
REMARK                         _______ _______ _______ _____ _____    ______ ____
ROOT
ATOM      1  N   UNL A   1     -24.500  -1.271  29.511  0.00  0.00    -0.286 N 
ATOM      2  C   UNL A   1     -24.685  -0.391  28.599  0.00  0.00    +0.061 C 
ATOM      3  C   UNL A   1     -24.249  -0.751  30.812  0.00  0.00    +0.096 C 
ATOM      4  C   UNL A   1     -23.623   0.195  28.015  0.00  0.00    -0.010 C 
ATOM      5  C   UNL A   1     -22.484   0.338  28.486  0.00  0.00    +0.027 C 
ATOM      6  C   UNL A   1     -21.993  -0.331  29.587  0.00  0.00    +0.006 C 
ATOM      7  C   UNL A   1     -22.689  -0.453  30.782  0.00  0.00    +0.022 C 
ENDROOT
BRANCH   1   9
ATOM      8  C   UNL A   1     -23.874  -3.396  28.834  0.00  0.00    +0.015 A 
ATOM      9  C   UNL A   1     -24.675  -2.648  29.344  0.00  0.00    +0.052 A 
ATOM     10  C   UNL A   1     -25.888  -3.120  29.835  0.00  0.00    +0.015 A 
ATOM     11  C   UNL A   1     -26.247  -4.509  29.709  0.00  0.00    +0.001 A 
ATOM     12  C   UNL A   1     -25.272  -5.299  29.086  0.00  0.00    +0.000 A 
ATOM     13  C   UNL A   1     -24.149  -4.800  28.624  0.00  0.00    +0.001 A 
ENDBRANCH   1   9
TORSDOF 1
ENDMDL
ENDMDL
