REMARK  Name = No_643-gen_results/8p0m/2024-11-26-14-13-15/
REMARK  6 active torsions:
REMARK  status: ('A' for Active; 'I' for Inactive)
REMARK    1  A    between atoms: C_3  and  C_7
REMARK    2  A    between atoms: C_6  and  O_13
REMARK    3  A    between atoms: C_12  and  C_22
REMARK    4  A    between atoms: O_13  and  C_14
REMARK    5  A    between atoms: C_14  and  C_15
REMARK    6  A    between atoms: C_18  and  C_23
REMARK                            x       y       z     vdW  Elec       q    Type
REMARK                         _______ _______ _______ _____ _____    ______ ____
ROOT
ATOM      1  C   UNL A   1     -28.016  -0.814  28.878  0.00  0.00    +0.038 A 
ATOM      2  C   UNL A   1     -27.064  -0.119  28.608  0.00  0.00    +0.003 A 
ATOM      3  C   UNL A   1     -25.765  -0.390  29.036  0.00  0.00    +0.000 A 
ATOM      4  C   UNL A   1     -25.530  -1.530  29.901  0.00  0.00    +0.003 A 
ATOM      5  C   UNL A   1     -26.689  -2.289  30.181  0.00  0.00    +0.038 A 
ATOM      6  C   UNL A   1     -27.873  -1.951  29.737  0.00  0.00    +0.149 A 
ENDROOT
BRANCH   3   7
ATOM      7  C   UNL A   1     -24.549   0.410  28.734  0.00  0.00    -0.000 A 
ATOM      8  C   UNL A   1     -23.331   0.044  29.057  0.00  0.00    -0.000 A 
ATOM      9  C   UNL A   1     -22.199   0.824  28.707  0.00  0.00    -0.000 A 
ATOM     10  C   UNL A   1     -22.366   1.818  27.696  0.00  0.00    +0.001 A 
ATOM     11  C   UNL A   1     -24.619   1.458  27.756  0.00  0.00    +0.001 A 
ATOM     12  C   UNL A   1     -23.564   2.149  27.316  0.00  0.00    +0.044 A 
BRANCH  12  13
ATOM     13  C   UNL A   1     -23.759   3.268  26.349  0.00  0.00    +0.341 C 
ATOM     14  F   UNL A   1     -24.097   4.346  27.024  0.00  0.00    -0.193 F 
ATOM     15  F   UNL A   1     -23.499   3.167  25.218  0.00  0.00    -0.193 F 
ENDBRANCH  12  13
ENDBRANCH   3   7
BRANCH   6  16
ATOM     16  O   UNL A   1     -28.960  -2.694  30.105  0.00  0.00    -0.421 OA
BRANCH  16  17
ATOM     17  C   UNL A   1     -30.076  -2.127  30.590  0.00  0.00    +0.346 C 
ATOM     18  O   UNL A   1     -30.600  -1.182  30.114  0.00  0.00    -0.244 OA
BRANCH  17  19
ATOM     19  C   UNL A   1     -30.520  -2.827  31.705  0.00  0.00    +0.076 A 
ATOM     20  C   UNL A   1     -31.638  -2.325  32.277  0.00  0.00    +0.006 A 
ATOM     21  C   UNL A   1     -29.872  -3.943  32.100  0.00  0.00    +0.013 A 
ATOM     22  C   UNL A   1     -30.374  -4.712  33.334  0.00  0.00    +0.080 A 
ATOM     23  C   UNL A   1     -32.128  -3.080  33.499  0.00  0.00    +0.000 A 
ATOM     24  C   UNL A   1     -31.480  -4.230  33.947  0.00  0.00    +0.007 A 
BRANCH  22  25
ATOM     25  C   UNL A   1     -29.642  -5.916  33.711  0.00  0.00    +0.388 C 
ATOM     26  O   UNL A   1     -29.088  -5.972  34.694  0.00  0.00    -0.241 OA
ATOM     27  O   UNL A   1     -29.390  -6.771  32.674  0.00  0.00    -0.241 OA
ENDBRANCH  22  25
ENDBRANCH  17  19
ENDBRANCH  16  17
ENDBRANCH   6  16
TORSDOF 6
