MODEL 644
MODEL 1
REMARK VINA RESULT:    -6.489      0.000      0.000
REMARK INTER + INTRA:          -7.186
REMARK INTER:                  -6.868
REMARK INTRA:                  -0.318
REMARK UNBOUND:                -0.318
REMARK  Name = No_644-gen_results/8p0m/2024-11-26-14-13-15/
REMARK  1 active torsions:
REMARK  status: ('A' for Active; 'I' for Inactive)
REMARK    1  A    between atoms: C_3  and  C_7
REMARK                            x       y       z     vdW  Elec       q    Type
REMARK                         _______ _______ _______ _____ _____    ______ ____
ROOT
ATOM      1  C   UNL A   1     -26.530  -3.556  29.937  0.00  0.00    +0.000 A 
ATOM      2  C   UNL A   1     -25.859  -2.579  29.697  0.00  0.00    +0.000 A 
ATOM      3  C   UNL A   1     -24.623  -2.631  29.054  0.00  0.00    +0.000 A 
ATOM      4  C   UNL A   1     -24.067  -3.922  28.696  0.00  0.00    +0.000 A 
ATOM      5  C   UNL A   1     -24.902  -5.017  29.015  0.00  0.00    +0.000 A 
ATOM      6  C   UNL A   1     -26.049  -4.869  29.628  0.00  0.00    +0.000 A 
ENDROOT
BRANCH   3   7
ATOM      7  C   UNL A   1     -23.752  -1.475  28.716  0.00  0.00    +0.000 A 
ATOM      8  C   UNL A   1     -22.590  -1.297  29.291  0.00  0.00    +0.000 A 
ATOM      9  C   UNL A   1     -21.796  -0.138  29.003  0.00  0.00    +0.000 A 
ATOM     10  C   UNL A   1     -22.245   0.898  28.249  0.00  0.00    +0.000 A 
ATOM     11  C   UNL A   1     -24.262  -0.384  27.908  0.00  0.00    +0.000 A 
ATOM     12  C   UNL A   1     -23.487   0.787  27.689  0.00  0.00    +0.000 A 
ENDBRANCH   3   7
TORSDOF 1
ENDMDL
ENDMDL
