MODEL 645
MODEL 1
REMARK VINA RESULT:    -6.451      0.000      0.000
REMARK INTER + INTRA:          -7.149
REMARK INTER:                  -6.829
REMARK INTRA:                  -0.320
REMARK UNBOUND:                -0.320
REMARK  Name = No_645-gen_results/8p0m/2024-11-26-14-13-15/
REMARK  1 active torsions:
REMARK  status: ('A' for Active; 'I' for Inactive)
REMARK    1  A    between atoms: C_3  and  C_7
REMARK                            x       y       z     vdW  Elec       q    Type
REMARK                         _______ _______ _______ _____ _____    ______ ____
ROOT
ATOM      1  C   UNL A   1     -26.511  -3.556  30.012  0.00  0.00    +0.000 A 
ATOM      2  C   UNL A   1     -25.833  -2.587  29.762  0.00  0.00    +0.000 A 
ATOM      3  C   UNL A   1     -24.627  -2.648  29.066  0.00  0.00    +0.000 A 
ATOM      4  C   UNL A   1     -24.110  -3.941  28.662  0.00  0.00    +0.000 A 
ATOM      5  C   UNL A   1     -24.914  -5.033  28.987  0.00  0.00    +0.000 A 
ATOM      6  C   UNL A   1     -26.039  -4.885  29.659  0.00  0.00    +0.000 A 
ENDROOT
BRANCH   3   7
ATOM      7  C   UNL A   1     -23.742  -1.499  28.715  0.00  0.00    +0.000 A 
ATOM      8  C   UNL A   1     -22.573  -1.337  29.259  0.00  0.00    +0.000 A 
ATOM      9  C   UNL A   1     -21.818  -0.185  29.027  0.00  0.00    +0.000 A 
ATOM     10  C   UNL A   1     -22.243   0.870  28.258  0.00  0.00    +0.000 A 
ATOM     11  C   UNL A   1     -24.280  -0.391  27.920  0.00  0.00    +0.000 A 
ATOM     12  C   UNL A   1     -23.495   0.776  27.694  0.00  0.00    +0.000 A 
ENDBRANCH   3   7
TORSDOF 1
ENDMDL
ENDMDL
