MODEL 647
MODEL 1
REMARK VINA RESULT:    -4.279      0.000      0.000
REMARK INTER + INTRA:          -4.279
REMARK INTER:                  -4.279
REMARK INTRA:                   0.000
REMARK UNBOUND:                 0.000
REMARK  Name = No_647-gen_results/8p0m/2024-11-26-14-13-15/
REMARK  0 active torsions:
REMARK  status: ('A' for Active; 'I' for Inactive)
REMARK                            x       y       z     vdW  Elec       q    Type
REMARK                         _______ _______ _______ _____ _____    ______ ____
ROOT
ATOM      1  C   UNL A   1     -26.078  -4.792  29.664  0.00  0.00    +0.000 A 
ATOM      2  C   UNL A   1     -26.183  -3.588  29.707  0.00  0.00    +0.000 A 
ATOM      3  C   UNL A   1     -25.195  -2.719  29.290  0.00  0.00    +0.000 A 
ATOM      4  C   UNL A   1     -24.004  -3.275  28.745  0.00  0.00    +0.000 A 
ATOM      5  C   UNL A   1     -24.003  -4.616  28.561  0.00  0.00    +0.000 A 
ATOM      6  C   UNL A   1     -25.014  -5.368  28.954  0.00  0.00    +0.000 A 
ENDROOT
TORSDOF 0
ENDMDL
ENDMDL
