REMARK  Name = No_648-gen_results/8p0m/2024-11-26-14-13-15/
REMARK  7 active torsions:
REMARK  status: ('A' for Active; 'I' for Inactive)
REMARK    1  A    between atoms: C_3  and  C_8
REMARK    2  A    between atoms: C_6  and  O_7
REMARK    3  A    between atoms: O_7  and  C_14
REMARK    4  A    between atoms: C_14  and  C_15
REMARK    5  A    between atoms: C_14  and  N_18
REMARK    6  A    between atoms: N_18  and  C_20
REMARK    7  A    between atoms: C_21  and  C_22
REMARK                            x       y       z     vdW  Elec       q    Type
REMARK                         _______ _______ _______ _____ _____    ______ ____
ROOT
ATOM      1  C   UNL A   1     -28.016  -0.814  28.878  0.00  0.00    +0.037 A 
ATOM      2  C   UNL A   1     -27.064  -0.119  28.608  0.00  0.00    +0.003 A 
ATOM      3  C   UNL A   1     -25.765  -0.390  29.036  0.00  0.00    +0.000 A 
ATOM      4  C   UNL A   1     -25.530  -1.530  29.901  0.00  0.00    +0.003 A 
ATOM      5  C   UNL A   1     -26.689  -2.289  30.181  0.00  0.00    +0.037 A 
ATOM      6  C   UNL A   1     -27.873  -1.951  29.737  0.00  0.00    +0.141 A 
ENDROOT
BRANCH   3   7
ATOM      7  C   UNL A   1     -24.539   0.421  28.742  0.00  0.00    +0.000 A 
ATOM      8  C   UNL A   1     -23.346   0.114  29.169  0.00  0.00    +0.000 A 
ATOM      9  C   UNL A   1     -22.194   0.874  28.755  0.00  0.00    +0.000 A 
ATOM     10  C   UNL A   1     -22.361   1.834  27.695  0.00  0.00    +0.000 A 
ATOM     11  C   UNL A   1     -24.598   1.358  27.640  0.00  0.00    +0.000 A 
ATOM     12  C   UNL A   1     -23.546   2.083  27.233  0.00  0.00    +0.000 A 
ENDBRANCH   3   7
BRANCH   6  13
ATOM     13  O   UNL A   1     -28.930  -2.730  30.115  0.00  0.00    -0.452 OA
BRANCH  13  14
ATOM     14  C   UNL A   1     -30.063  -2.219  30.576  0.00  0.00    +0.358 C 
BRANCH  14  15
ATOM     15  C   UNL A   1     -31.102  -2.917  30.226  0.00  0.00    +0.456 C 
ATOM     16  F   UNL A   1     -31.952  -2.984  30.844  0.00  0.00    -0.165 F 
ATOM     17  F   UNL A   1     -31.578  -2.480  28.980  0.00  0.00    -0.165 F 
ATOM     18  F   UNL A   1     -30.802  -4.250  29.809  0.00  0.00    -0.165 F 
ENDBRANCH  14  15
BRANCH  14  19
ATOM     19  N   UNL A   1     -29.898  -2.260  32.098  0.00  0.00    -0.191 NA
BRANCH  19  20
ATOM     20  C   UNL A   1     -30.124  -1.191  32.825  0.00  0.00    +0.084 C 
ATOM     21  C   UNL A   1     -30.067   0.055  32.377  0.00  0.00    +0.017 C 
BRANCH  21  22
ATOM     22  C   UNL A   1     -29.967   0.441  31.273  0.00  0.00    -0.003 C 
ATOM     23  C   UNL A   1     -29.865   1.858  30.860  0.00  0.00    -0.026 C 
ATOM     24  C   UNL A   1     -29.870   2.731  31.867  0.00  0.00    +0.031 C 
ENDBRANCH  21  22
ENDBRANCH  19  20
ENDBRANCH  14  19
ENDBRANCH  13  14
ENDBRANCH   6  13
TORSDOF 7
