MODEL 648
MODEL 1
REMARK VINA RESULT:    -6.875      0.000      0.000
REMARK INTER + INTRA:         -11.097
REMARK INTER:                  -9.689
REMARK INTRA:                  -1.408
REMARK UNBOUND:                -1.408
REMARK  Name = No_648-gen_results/8p0m/2024-11-26-14-13-15/
REMARK  7 active torsions:
REMARK  status: ('A' for Active; 'I' for Inactive)
REMARK    1  A    between atoms: C_3  and  C_8
REMARK    2  A    between atoms: C_6  and  O_7
REMARK    3  A    between atoms: O_7  and  C_14
REMARK    4  A    between atoms: C_14  and  C_15
REMARK    5  A    between atoms: C_14  and  N_18
REMARK    6  A    between atoms: N_18  and  C_20
REMARK    7  A    between atoms: C_21  and  C_22
REMARK                            x       y       z     vdW  Elec       q    Type
REMARK                         _______ _______ _______ _____ _____    ______ ____
ROOT
ATOM      1  C   UNL A   1     -24.824   0.311  25.388  0.00  0.00    +0.037 A 
ATOM      2  C   UNL A   1     -25.822  -0.120  24.858  0.00  0.00    +0.003 A 
ATOM      3  C   UNL A   1     -26.995   0.618  24.705  0.00  0.00    +0.000 A 
ATOM      4  C   UNL A   1     -27.063   1.957  25.256  0.00  0.00    +0.003 A 
ATOM      5  C   UNL A   1     -25.865   2.390  25.868  0.00  0.00    +0.037 A 
ATOM      6  C   UNL A   1     -24.811   1.620  25.970  0.00  0.00    +0.141 A 
ENDROOT
BRANCH   3   7
ATOM      7  C   UNL A   1     -28.266   0.153  24.061  0.00  0.00    +0.000 A 
ATOM      8  C   UNL A   1     -28.602  -1.101  23.939  0.00  0.00    +0.000 A 
ATOM      9  C   UNL A   1     -29.890  -1.473  23.411  0.00  0.00    +0.000 A 
ATOM     10  C   UNL A   1     -30.873  -0.437  23.230  0.00  0.00    +0.000 A 
ATOM     11  C   UNL A   1     -29.337   1.116  23.909  0.00  0.00    +0.000 A 
ATOM     12  C   UNL A   1     -30.544   0.802  23.419  0.00  0.00    +0.000 A 
ENDBRANCH   3   7
BRANCH   6  13
ATOM     13  O   UNL A   1     -23.726   2.125  26.629  0.00  0.00    -0.452 OA
BRANCH  13  14
ATOM     14  C   UNL A   1     -22.949   1.378  27.400  0.00  0.00    +0.358 C 
BRANCH  14  15
ATOM     15  C   UNL A   1     -21.693   1.699  27.299  0.00  0.00    +0.456 C 
ATOM     16  F   UNL A   1     -21.281   2.488  27.861  0.00  0.00    -0.165 F 
ATOM     17  F   UNL A   1     -20.888   0.582  27.575  0.00  0.00    -0.165 F 
ATOM     18  F   UNL A   1     -21.238   1.880  25.957  0.00  0.00    -0.165 F 
ENDBRANCH  14  15
BRANCH  14  19
ATOM     19  N   UNL A   1     -23.446   1.665  28.820  0.00  0.00    -0.191 NA
BRANCH  19  20
ATOM     20  C   UNL A   1     -23.385   0.741  29.750  0.00  0.00    +0.084 C 
ATOM     21  C   UNL A   1     -24.140  -0.348  29.786  0.00  0.00    +0.017 C 
BRANCH  21  22
ATOM     22  C   UNL A   1     -24.865  -0.774  28.966  0.00  0.00    -0.003 C 
ATOM     23  C   UNL A   1     -24.895  -2.172  28.483  0.00  0.00    -0.026 C 
ATOM     24  C   UNL A   1     -24.019  -2.982  29.075  0.00  0.00    +0.031 C 
ENDBRANCH  21  22
ENDBRANCH  19  20
ENDBRANCH  14  19
ENDBRANCH  13  14
ENDBRANCH   6  13
TORSDOF 7
ENDMDL
ENDMDL
