REMARK  Name = No_649-gen_results/8p0m/2024-11-26-14-13-15/
REMARK  7 active torsions:
REMARK  status: ('A' for Active; 'I' for Inactive)
REMARK    1  A    between atoms: C_3  and  C_8
REMARK    2  A    between atoms: C_7  and  C_14
REMARK    3  A    between atoms: C_10  and  C_18
REMARK    4  A    between atoms: C_13  and  O_17
REMARK    5  A    between atoms: O_17  and  C_22
REMARK    6  A    between atoms: C_25  and  C_28
REMARK    7  A    between atoms: C_28  and  C_29
REMARK                            x       y       z     vdW  Elec       q    Type
REMARK                         _______ _______ _______ _____ _____    ______ ____
ROOT
ATOM      1  C   UNL A   1     -27.864  -0.113  30.956  0.00  0.00    +0.021 A 
ATOM      2  C   UNL A   1     -29.065   0.701  31.209  0.00  0.00    +0.003 A 
ATOM      3  C   UNL A   1     -29.756   0.295  32.133  0.00  0.00    +0.071 A 
ATOM      4  C   UNL A   1     -29.445  -0.844  33.017  0.00  0.00    +0.007 A 
ATOM      5  C   UNL A   1     -28.346  -1.582  32.695  0.00  0.00    +0.037 A 
ATOM      6  C   UNL A   1     -27.539  -1.242  31.620  0.00  0.00    +0.142 A 
ENDROOT
BRANCH   1   9
ATOM      7  O   UNL A   1     -28.123  -1.335  28.487  0.00  0.00    -0.273 OA
ATOM      8  C   UNL A   1     -27.481  -0.404  28.709  0.00  0.00    +0.245 C 
ATOM      9  C   UNL A   1     -27.190   0.246  29.527  0.00  0.00    +0.104 C 
ATOM     10  N   UNL A   1     -26.687  -0.000  27.442  0.00  0.00    -0.205 NA
ATOM     11  C   UNL A   1     -26.350   1.433  29.742  0.00  0.00    +0.027 C 
ATOM     12  C   UNL A   1     -25.845   1.100  27.399  0.00  0.00    +0.126 C 
ATOM     13  C   UNL A   1     -25.669   1.827  28.608  0.00  0.00    +0.126 C 
BRANCH  13  14
ATOM     14  C   UNL A   1     -24.771   2.990  28.631  0.00  0.00    +0.366 C 
ATOM     15  O   UNL A   1     -24.441   3.472  29.497  0.00  0.00    -0.246 OA
ATOM     16  O   UNL A   1     -24.384   3.455  27.425  0.00  0.00    -0.246 OA
ENDBRANCH  13  14
ENDBRANCH   1   9
BRANCH   3  17
ATOM     17  C   UNL A   1     -30.949   1.152  32.606  0.00  0.00    +0.419 C 
ATOM     18  F   UNL A   1     -31.880   0.975  32.025  0.00  0.00    -0.166 F 
ATOM     19  F   UNL A   1     -31.186   0.847  33.955  0.00  0.00    -0.166 F 
ATOM     20  F   UNL A   1     -30.591   2.433  32.661  0.00  0.00    -0.166 F 
ENDBRANCH   3  17
BRANCH   6  21
ATOM     21  O   UNL A   1     -26.496  -1.954  31.218  0.00  0.00    -0.454 OA
BRANCH  21  22
ATOM     22  C   UNL A   1     -25.214  -1.448  31.362  0.00  0.00    +0.145 A 
ATOM     23  C   UNL A   1     -24.784  -0.727  32.413  0.00  0.00    +0.037 A 
ATOM     24  C   UNL A   1     -24.294  -1.737  30.252  0.00  0.00    +0.034 A 
ATOM     25  C   UNL A   1     -23.383  -1.030  30.012  0.00  0.00    -0.015 A 
ATOM     26  C   UNL A   1     -22.797  -0.151  31.061  0.00  0.00    -0.004 A 
ATOM     27  C   UNL A   1     -23.616   0.092  32.180  0.00  0.00    +0.003 A 
BRANCH  25  28
ATOM     28  C   UNL A   1     -22.434  -1.183  28.843  0.00  0.00    +0.055 C 
BRANCH  28  29
ATOM     29  C   UNL A   1     -21.788   0.114  28.428  0.00  0.00    +0.010 A 
ATOM     30  C   UNL A   1     -22.666   1.092  27.835  0.00  0.00    -0.002 A 
ATOM     31  C   UNL A   1     -21.980   2.200  27.264  0.00  0.00    -0.000 A 
ATOM     32  C   UNL A   1     -20.433   0.278  28.475  0.00  0.00    +0.137 A 
ATOM     33  F   UNL A   1     -19.797  -0.755  29.004  0.00  0.00    -0.204 F 
ATOM     34  C   UNL A   1     -20.574   2.217  27.275  0.00  0.00    +0.002 A 
ATOM     35  C   UNL A   1     -19.871   1.329  27.905  0.00  0.00    +0.029 A 
ENDBRANCH  28  29
ENDBRANCH  25  28
ENDBRANCH  21  22
ENDBRANCH   6  21
TORSDOF 7
