MODEL 649
MODEL 1
REMARK VINA RESULT:    -7.849      0.000      0.000
REMARK INTER + INTRA:         -15.000
REMARK INTER:                 -11.061
REMARK INTRA:                  -3.939
REMARK UNBOUND:                -3.939
REMARK  Name = No_649-gen_results/8p0m/2024-11-26-14-13-15/
REMARK  7 active torsions:
REMARK  status: ('A' for Active; 'I' for Inactive)
REMARK    1  A    between atoms: C_3  and  C_8
REMARK    2  A    between atoms: C_7  and  C_14
REMARK    3  A    between atoms: C_10  and  C_18
REMARK    4  A    between atoms: C_13  and  O_17
REMARK    5  A    between atoms: O_17  and  C_22
REMARK    6  A    between atoms: C_25  and  C_28
REMARK    7  A    between atoms: C_28  and  C_29
REMARK                            x       y       z     vdW  Elec       q    Type
REMARK                         _______ _______ _______ _____ _____    ______ ____
ROOT
ATOM      1  C   UNL A   1     -24.073  -1.243  28.559  0.00  0.00    +0.021 A 
ATOM      2  C   UNL A   1     -24.619  -0.686  27.310  0.00  0.00    +0.003 A 
ATOM      3  C   UNL A   1     -24.177   0.418  27.022  0.00  0.00    +0.071 A 
ATOM      4  C   UNL A   1     -23.132   1.155  27.756  0.00  0.00    +0.007 A 
ATOM      5  C   UNL A   1     -22.708   0.605  28.928  0.00  0.00    +0.037 A 
ATOM      6  C   UNL A   1     -23.203  -0.610  29.375  0.00  0.00    +0.142 A 
ENDROOT
BRANCH   1   9
ATOM      7  O   UNL A   1     -23.561  -3.956  28.384  0.00  0.00    -0.273 OA
ATOM      8  C   UNL A   1     -24.486  -3.480  28.880  0.00  0.00    +0.245 C 
ATOM      9  C   UNL A   1     -24.937  -2.513  29.074  0.00  0.00    +0.104 C 
ATOM     10  N   UNL A   1     -25.465  -4.590  29.337  0.00  0.00    -0.205 NA
ATOM     11  C   UNL A   1     -26.141  -1.972  29.720  0.00  0.00    +0.027 C 
ATOM     12  C   UNL A   1     -26.658  -4.321  29.989  0.00  0.00    +0.126 C 
ATOM     13  C   UNL A   1     -27.002  -2.953  30.168  0.00  0.00    +0.126 C 
BRANCH  13  14
ATOM     14  C   UNL A   1     -28.266  -2.604  30.833  0.00  0.00    +0.366 C 
ATOM     15  O   UNL A   1     -28.342  -2.187  31.788  0.00  0.00    -0.246 OA
ATOM     16  O   UNL A   1     -29.389  -2.878  30.137  0.00  0.00    -0.246 OA
ENDBRANCH  13  14
ENDBRANCH   1   9
BRANCH   3  17
ATOM     17  C   UNL A   1     -24.542   1.035  25.655  0.00  0.00    +0.419 C 
ATOM     18  F   UNL A   1     -25.419   1.716  25.696  0.00  0.00    -0.166 F 
ATOM     19  F   UNL A   1     -23.425   1.752  25.199  0.00  0.00    -0.166 F 
ATOM     20  F   UNL A   1     -24.656   0.073  24.742  0.00  0.00    -0.166 F 
ENDBRANCH   3  17
BRANCH   6  21
ATOM     21  O   UNL A   1     -22.880  -1.165  30.534  0.00  0.00    -0.454 OA
BRANCH  21  22
ATOM     22  C   UNL A   1     -23.474  -0.721  31.705  0.00  0.00    +0.145 A 
ATOM     23  C   UNL A   1     -23.320  -1.295  32.912  0.00  0.00    +0.037 A 
ATOM     24  C   UNL A   1     -24.336   0.462  31.565  0.00  0.00    +0.034 A 
ATOM     25  C   UNL A   1     -25.224   0.663  32.312  0.00  0.00    -0.015 A 
ATOM     26  C   UNL A   1     -25.220   0.086  33.684  0.00  0.00    -0.004 A 
ATOM     27  C   UNL A   1     -24.350  -1.003  33.884  0.00  0.00    +0.003 A 
BRANCH  25  28
ATOM     28  C   UNL A   1     -26.225   1.794  32.205  0.00  0.00    +0.055 C 
BRANCH  28  29
ATOM     29  C   UNL A   1     -26.806   1.945  30.822  0.00  0.00    +0.010 A 
ATOM     30  C   UNL A   1     -27.883   1.045  30.492  0.00  0.00    -0.002 A 
ATOM     31  C   UNL A   1     -28.247   1.075  29.117  0.00  0.00    -0.000 A 
ATOM     32  C   UNL A   1     -26.238   2.778  29.901  0.00  0.00    +0.137 A 
ATOM     33  F   UNL A   1     -25.227   3.483  30.384  0.00  0.00    -0.204 F 
ATOM     34  C   UNL A   1     -27.524   1.895  28.232  0.00  0.00    +0.002 A 
ATOM     35  C   UNL A   1     -26.623   2.733  28.638  0.00  0.00    +0.029 A 
ENDBRANCH  28  29
ENDBRANCH  25  28
ENDBRANCH  21  22
ENDBRANCH   6  21
TORSDOF 7
ENDMDL
ENDMDL
