MODEL 64
MODEL 1
REMARK VINA RESULT:    -5.935      0.000      0.000
REMARK INTER + INTRA:          -7.831
REMARK INTER:                  -7.322
REMARK INTRA:                  -0.509
REMARK UNBOUND:                -0.509
REMARK  Name = No_64-gen_results/8p0m/2024-11-26-14-13-15/
REMARK  4 active torsions:
REMARK  status: ('A' for Active; 'I' for Inactive)
REMARK    1  A    between atoms: C_2  and  C_11
REMARK    2  A    between atoms: C_3  and  C_4
REMARK    3  A    between atoms: C_6  and  C_14
REMARK    4  A    between atoms: N_15  and  C_16
REMARK                            x       y       z     vdW  Elec       q    Type
REMARK                         _______ _______ _______ _____ _____    ______ ____
ROOT
ATOM      1  C   UNL A   1     -24.565  -1.981  31.004  0.00  0.00    +0.010 A 
ATOM      2  C   UNL A   1     -24.010  -1.150  31.339  0.00  0.00    +0.080 A 
ATOM      3  C   UNL A   1     -24.195  -2.431  29.663  0.00  0.00    +0.072 A 
ATOM      4  C   UNL A   1     -22.946  -0.329  30.777  0.00  0.00    +0.008 A 
ATOM      5  C   UNL A   1     -22.577  -0.715  29.505  0.00  0.00    +0.020 A 
ATOM      6  C   UNL A   1     -23.149  -1.796  28.944  0.00  0.00    +0.005 A 
ENDROOT
BRANCH   3   7
ATOM      7  C   UNL A   1     -24.757  -3.639  29.018  0.00  0.00    +0.419 C 
ATOM      8  F   UNL A   1     -24.917  -3.332  27.910  0.00  0.00    -0.166 F 
ATOM      9  F   UNL A   1     -23.929  -4.674  29.189  0.00  0.00    -0.166 F 
ATOM     10  F   UNL A   1     -25.979  -3.931  29.588  0.00  0.00    -0.166 F 
ENDBRANCH   3   7
BRANCH   2  11
ATOM     11  C   UNL A   1     -24.288  -0.624  32.846  0.00  0.00    +0.388 C 
ATOM     12  O   UNL A   1     -23.873  -1.194  33.833  0.00  0.00    -0.241 OA
ATOM     13  O   UNL A   1     -24.944   0.442  33.006  0.00  0.00    -0.241 OA
ENDBRANCH   2  11
BRANCH   5  14
ATOM     14  C   UNL A   1     -21.510   0.020  28.772  0.00  0.00    +0.109 C 
ATOM     15  N   UNL A   1     -21.612   0.892  28.153  0.00  0.00    -0.192 NA
BRANCH  15  16
ATOM     16  C   UNL A   1     -22.750   1.437  27.691  0.00  0.00    +0.069 C 
ATOM     17  C   UNL A   1     -23.082   1.833  26.763  0.00  0.00    +0.118 C 
ATOM     18  O   UNL A   1     -21.964   2.074  25.939  0.00  0.00    -0.127 OA
ENDBRANCH  15  16
ENDBRANCH   5  14
TORSDOF 4
ENDMDL
ENDMDL
