REMARK  Name = No_650-gen_results/8p0m/2024-11-26-14-13-15/
REMARK  4 active torsions:
REMARK  status: ('A' for Active; 'I' for Inactive)
REMARK    1  A    between atoms: C_4  and  C_8
REMARK    2  A    between atoms: C_8  and  C_9
REMARK    3  A    between atoms: C_10  and  C_11
REMARK    4  A    between atoms: C_11  and  C_12
REMARK                            x       y       z     vdW  Elec       q    Type
REMARK                         _______ _______ _______ _____ _____    ______ ____
ROOT
ATOM      1  C   UNL A   1     -23.791   0.529  30.153  0.00  0.00    +0.036 C 
ATOM      2  C   UNL A   1     -24.221   1.593  30.546  0.00  0.00    -0.014 C 
ATOM      3 CL   UNL A   1     -22.065   0.399  29.501  0.00  0.00    -0.087 Cl
ENDROOT
BRANCH   1   4
ATOM      4  C   UNL A   1     -24.380  -0.830  30.152  0.00  0.00    +0.066 C 
BRANCH   4   8
ATOM      5  C   UNL A   1     -28.016  -0.814  28.878  0.00  0.00    +0.059 A 
ATOM      6  C   UNL A   1     -28.469  -0.785  29.829  0.00  0.00    +0.142 A 
ATOM      7  C   UNL A   1     -26.504  -0.778  28.877  0.00  0.00    +0.139 A 
ATOM      8  C   UNL A   1     -25.810  -0.853  30.103  0.00  0.00    +0.011 A 
ATOM      9  C   UNL A   1     -27.991  -0.892  31.226  0.00  0.00    +0.029 A 
ATOM     10  C   UNL A   1     -26.604  -0.868  31.265  0.00  0.00    +0.001 A 
ATOM     11  F   UNL A   1     -29.922  -0.731  29.685  0.00  0.00    -0.204 F 
ATOM     12  F   UNL A   1     -25.753  -0.757  27.774  0.00  0.00    -0.204 F 
ENDBRANCH   4   8
ENDBRANCH   1   4
BRANCH   2  13
ATOM     13  C   UNL A   1     -25.506   1.662  31.171  0.00  0.00    +0.053 C 
BRANCH  13  14
ATOM     14  C   UNL A   1     -25.915   3.049  31.643  0.00  0.00    -0.018 A 
ATOM     15  C   UNL A   1     -27.061   3.228  32.417  0.00  0.00    -0.004 A 
ATOM     16  C   UNL A   1     -27.447   4.491  32.697  0.00  0.00    -0.000 A 
ATOM     17  C   UNL A   1     -26.780   5.611  32.232  0.00  0.00    -0.000 A 
ATOM     18  C   UNL A   1     -25.654   5.461  31.485  0.00  0.00    -0.000 A 
ATOM     19  C   UNL A   1     -25.193   4.175  31.174  0.00  0.00    -0.004 A 
ENDBRANCH  13  14
ENDBRANCH   2  13
TORSDOF 4
