MODEL 650
MODEL 1
REMARK VINA RESULT:    -6.689      0.000      0.000
REMARK INTER + INTRA:          -9.787
REMARK INTER:                  -8.254
REMARK INTRA:                  -1.534
REMARK UNBOUND:                -1.534
REMARK  Name = No_650-gen_results/8p0m/2024-11-26-14-13-15/
REMARK  4 active torsions:
REMARK  status: ('A' for Active; 'I' for Inactive)
REMARK    1  A    between atoms: C_4  and  C_8
REMARK    2  A    between atoms: C_8  and  C_9
REMARK    3  A    between atoms: C_10  and  C_11
REMARK    4  A    between atoms: C_11  and  C_12
REMARK                            x       y       z     vdW  Elec       q    Type
REMARK                         _______ _______ _______ _____ _____    ______ ____
ROOT
ATOM      1  C   UNL A   1     -22.232   0.184  29.413  0.00  0.00    +0.036 C 
ATOM      2  C   UNL A   1     -22.330  -0.644  30.294  0.00  0.00    -0.014 C 
ATOM      3 CL   UNL A   1     -20.740   0.219  28.321  0.00  0.00    -0.087 Cl
ENDROOT
BRANCH   1   4
ATOM      4  C   UNL A   1     -23.172   1.223  28.930  0.00  0.00    +0.066 C 
BRANCH   4   8
ATOM      5  C   UNL A   1     -24.254   1.086  25.235  0.00  0.00    +0.059 A 
ATOM      6  C   UNL A   1     -25.078   0.446  25.382  0.00  0.00    +0.142 A 
ATOM      7  C   UNL A   1     -23.509   1.484  26.489  0.00  0.00    +0.139 A 
ATOM      8  C   UNL A   1     -23.854   0.884  27.718  0.00  0.00    +0.011 A 
ATOM      9  C   UNL A   1     -25.617  -0.331  26.521  0.00  0.00    +0.029 A 
ATOM     10  C   UNL A   1     -24.952   0.004  27.692  0.00  0.00    +0.001 A 
ATOM     11  F   UNL A   1     -25.761   0.216  24.111  0.00  0.00    -0.204 F 
ATOM     12  F   UNL A   1     -22.472   2.324  26.513  0.00  0.00    -0.204 F 
ENDBRANCH   4   8
ENDBRANCH   1   4
BRANCH   2  13
ATOM     13  C   UNL A   1     -23.542  -0.752  31.047  0.00  0.00    +0.053 C 
BRANCH  13  14
ATOM     14  C   UNL A   1     -24.487  -1.850  30.586  0.00  0.00    -0.018 A 
ATOM     15  C   UNL A   1     -24.035  -2.877  29.759  0.00  0.00    -0.004 A 
ATOM     16  C   UNL A   1     -24.944  -3.750  29.275  0.00  0.00    -0.000 A 
ATOM     17  C   UNL A   1     -26.300  -3.658  29.536  0.00  0.00    -0.000 A 
ATOM     18  C   UNL A   1     -26.763  -2.672  30.348  0.00  0.00    -0.000 A 
ATOM     19  C   UNL A   1     -25.867  -1.744  30.895  0.00  0.00    -0.004 A 
ENDBRANCH  13  14
ENDBRANCH   2  13
TORSDOF 4
ENDMDL
ENDMDL
