MODEL 651
MODEL 1
REMARK VINA RESULT:    -4.540      0.000      0.000
REMARK INTER + INTRA:          -4.540
REMARK INTER:                  -4.540
REMARK INTRA:                   0.000
REMARK UNBOUND:                 0.000
REMARK  Name = No_651-gen_results/8p0m/2024-11-26-14-13-15/
REMARK  0 active torsions:
REMARK  status: ('A' for Active; 'I' for Inactive)
REMARK                            x       y       z     vdW  Elec       q    Type
REMARK                         _______ _______ _______ _____ _____    ______ ____
ROOT
ATOM      1  C   UNL A   1     -10.264  -9.134  19.478  0.00  0.00    +0.002 A 
ATOM      2  C   UNL A   1      -9.397  -9.144  20.321  0.00  0.00    +0.030 A 
ATOM      3  C   UNL A   1      -8.177  -9.800  20.163  0.00  0.00    +0.140 A 
ATOM      4  C   UNL A   1      -7.937 -10.565  18.955  0.00  0.00    +0.030 A 
ATOM      5  C   UNL A   1      -8.996 -10.514  18.021  0.00  0.00    +0.002 A 
ATOM      6  C   UNL A   1     -10.113  -9.874  18.261  0.00  0.00    +0.000 A 
ATOM      7  F   UNL A   1      -7.209  -9.849  21.074  0.00  0.00    -0.204 F 
ENDROOT
TORSDOF 0
ENDMDL
ENDMDL
