REMARK  Name = No_652-gen_results/8p0m/2024-11-26-14-13-15/
REMARK  7 active torsions:
REMARK  status: ('A' for Active; 'I' for Inactive)
REMARK    1  A    between atoms: C_3  and  C_8
REMARK    2  A    between atoms: C_6  and  O_7
REMARK    3  A    between atoms: O_7  and  C_14
REMARK    4  A    between atoms: C_14  and  C_15
REMARK    5  A    between atoms: C_15  and  C_16
REMARK    6  A    between atoms: C_15  and  C_25
REMARK    7  A    between atoms: C_20  and  C_22
REMARK                            x       y       z     vdW  Elec       q    Type
REMARK                         _______ _______ _______ _____ _____    ______ ____
ROOT
ATOM      1  O   UNL A   1     -28.930  -2.730  30.115  0.00  0.00    -0.475 OA
ENDROOT
BRANCH   1   7
ATOM      2  C   UNL A   1     -28.016  -0.814  28.878  0.00  0.00    +0.037 A 
ATOM      3  C   UNL A   1     -27.064  -0.119  28.608  0.00  0.00    +0.003 A 
ATOM      4  C   UNL A   1     -25.765  -0.390  29.036  0.00  0.00    +0.000 A 
ATOM      5  C   UNL A   1     -25.530  -1.530  29.901  0.00  0.00    +0.003 A 
ATOM      6  C   UNL A   1     -26.689  -2.289  30.181  0.00  0.00    +0.037 A 
ATOM      7  C   UNL A   1     -27.873  -1.951  29.737  0.00  0.00    +0.139 A 
BRANCH   4   8
ATOM      8  C   UNL A   1     -24.539   0.421  28.742  0.00  0.00    +0.000 A 
ATOM      9  C   UNL A   1     -23.346   0.114  29.169  0.00  0.00    +0.000 A 
ATOM     10  C   UNL A   1     -22.194   0.874  28.755  0.00  0.00    +0.000 A 
ATOM     11  C   UNL A   1     -22.361   1.834  27.695  0.00  0.00    +0.000 A 
ATOM     12  C   UNL A   1     -24.598   1.358  27.640  0.00  0.00    +0.000 A 
ATOM     13  C   UNL A   1     -23.546   2.083  27.233  0.00  0.00    +0.000 A 
ENDBRANCH   4   8
ENDBRANCH   1   7
BRANCH   1  14
ATOM     14  C   UNL A   1     -29.305  -2.758  31.455  0.00  0.00    +0.217 C 
BRANCH  14  15
ATOM     15  C   UNL A   1     -30.679  -2.624  31.645  0.00  0.00    +0.131 C 
BRANCH  15  16
ATOM     16  C   UNL A   1     -31.434  -2.252  30.648  0.00  0.00    -0.011 A 
ATOM     17  C   UNL A   1     -32.769  -2.420  30.773  0.00  0.00    -0.004 A 
ATOM     18  C   UNL A   1     -33.659  -1.605  30.048  0.00  0.00    -0.000 A 
ATOM     19  C   UNL A   1     -33.156  -0.882  28.921  0.00  0.00    +0.007 A 
ATOM     20  C   UNL A   1     -31.774  -0.746  28.753  0.00  0.00    +0.080 A 
ATOM     21  C   UNL A   1     -30.920  -1.417  29.639  0.00  0.00    +0.003 A 
BRANCH  20  22
ATOM     22  C   UNL A   1     -31.290   0.131  27.646  0.00  0.00    +0.388 C 
ATOM     23  O   UNL A   1     -30.769   1.114  27.937  0.00  0.00    -0.241 OA
ATOM     24  O   UNL A   1     -31.330  -0.379  26.472  0.00  0.00    -0.241 OA
ENDBRANCH  20  22
ENDBRANCH  15  16
BRANCH  15  25
ATOM     25  C   UNL A   1     -31.194  -2.908  32.967  0.00  0.00    +0.215 C 
ATOM     26  O   UNL A   1     -31.049  -4.007  33.428  0.00  0.00    -0.288 OA
ENDBRANCH  15  25
ENDBRANCH  14  15
ENDBRANCH   1  14
TORSDOF 7
