MODEL 652
MODEL 1
REMARK VINA RESULT:    -7.716      0.000      0.000
REMARK INTER + INTRA:         -12.359
REMARK INTER:                 -10.873
REMARK INTRA:                  -1.486
REMARK UNBOUND:                -1.486
REMARK  Name = No_652-gen_results/8p0m/2024-11-26-14-13-15/
REMARK  7 active torsions:
REMARK  status: ('A' for Active; 'I' for Inactive)
REMARK    1  A    between atoms: C_3  and  C_8
REMARK    2  A    between atoms: C_6  and  O_7
REMARK    3  A    between atoms: O_7  and  C_14
REMARK    4  A    between atoms: C_14  and  C_15
REMARK    5  A    between atoms: C_15  and  C_16
REMARK    6  A    between atoms: C_15  and  C_25
REMARK    7  A    between atoms: C_20  and  C_22
REMARK                            x       y       z     vdW  Elec       q    Type
REMARK                         _______ _______ _______ _____ _____    ______ ____
ROOT
ATOM      1  O   UNL A   1     -23.394   0.927  26.856  0.00  0.00    -0.475 OA
ENDROOT
BRANCH   1   7
ATOM      2  C   UNL A   1     -25.520   2.046  26.340  0.00  0.00    +0.037 A 
ATOM      3  C   UNL A   1     -26.565   2.047  25.732  0.00  0.00    +0.003 A 
ATOM      4  C   UNL A   1     -27.003   0.979  24.950  0.00  0.00    +0.000 A 
ATOM      5  C   UNL A   1     -26.147  -0.182  24.798  0.00  0.00    +0.003 A 
ATOM      6  C   UNL A   1     -24.940  -0.107  25.529  0.00  0.00    +0.037 A 
ATOM      7  C   UNL A   1     -24.611   0.945  26.234  0.00  0.00    +0.139 A 
BRANCH   4   8
ATOM      8  C   UNL A   1     -28.282   0.905  24.172  0.00  0.00    +0.000 A 
ATOM      9  C   UNL A   1     -29.068  -0.135  24.163  0.00  0.00    +0.000 A 
ATOM     10  C   UNL A   1     -30.338  -0.096  23.483  0.00  0.00    +0.000 A 
ATOM     11  C   UNL A   1     -30.813   1.177  23.007  0.00  0.00    +0.000 A 
ATOM     12  C   UNL A   1     -28.868   2.149  23.719  0.00  0.00    +0.000 A 
ATOM     13  C   UNL A   1     -30.045   2.219  23.081  0.00  0.00    +0.000 A 
ENDBRANCH   4   8
ENDBRANCH   1   7
BRANCH   1  14
ATOM     14  C   UNL A   1     -23.344   0.995  28.246  0.00  0.00    +0.217 C 
BRANCH  14  15
ATOM     15  C   UNL A   1     -22.905  -0.187  28.839  0.00  0.00    +0.131 C 
BRANCH  15  16
ATOM     16  C   UNL A   1     -23.776  -1.084  29.211  0.00  0.00    -0.011 A 
ATOM     17  C   UNL A   1     -25.006  -0.655  29.571  0.00  0.00    -0.004 A 
ATOM     18  C   UNL A   1     -26.118  -1.512  29.464  0.00  0.00    -0.000 A 
ATOM     19  C   UNL A   1     -25.884  -2.918  29.345  0.00  0.00    +0.007 A 
ATOM     20  C   UNL A   1     -24.602  -3.377  29.024  0.00  0.00    +0.080 A 
ATOM     21  C   UNL A   1     -23.558  -2.446  28.935  0.00  0.00    +0.003 A 
BRANCH  20  22
ATOM     22  C   UNL A   1     -24.428  -4.838  28.771  0.00  0.00    +0.388 C 
ATOM     23  O   UNL A   1     -23.585  -5.156  28.057  0.00  0.00    -0.241 OA
ATOM     24  O   UNL A   1     -25.114  -5.619  29.519  0.00  0.00    -0.241 OA
ENDBRANCH  20  22
ENDBRANCH  15  16
BRANCH  15  25
ATOM     25  C   UNL A   1     -21.477  -0.348  29.013  0.00  0.00    +0.215 C 
ATOM     26  O   UNL A   1     -20.729   0.239  28.280  0.00  0.00    -0.288 OA
ENDBRANCH  15  25
ENDBRANCH  14  15
ENDBRANCH   1  14
TORSDOF 7
ENDMDL
ENDMDL
