REMARK  Name = No_653-gen_results/8p0m/2024-11-26-14-13-15/
REMARK  2 active torsions:
REMARK  status: ('A' for Active; 'I' for Inactive)
REMARK    1  A    between atoms: C_5  and  C_11
REMARK    2  A    between atoms: C_10  and  C_18
REMARK                            x       y       z     vdW  Elec       q    Type
REMARK                         _______ _______ _______ _____ _____    ______ ____
ROOT
ATOM      1  C   UNL A   1     -28.016  -0.814  28.878  0.00  0.00    +0.026 C 
ATOM      2  C   UNL A   1     -27.064  -0.119  28.608  0.00  0.00    -0.026 A 
ATOM      3  C   UNL A   1     -26.876   1.133  28.913  0.00  0.00    -0.026 A 
ATOM      4  C   UNL A   1     -25.688   1.952  28.567  0.00  0.00    +0.002 A 
ATOM      5  C   UNL A   1     -24.639   1.283  27.875  0.00  0.00    +0.079 A 
ATOM      6  C   UNL A   1     -24.807  -0.051  27.604  0.00  0.00    +0.006 A 
ATOM      7  C   UNL A   1     -25.902  -0.767  27.951  0.00  0.00    -0.004 A 
ATOM      8  C   UNL A   1     -28.639  -0.512  30.240  0.00  0.00    +0.005 C 
ATOM      9  C   UNL A   1     -28.873   0.822  30.484  0.00  0.00    +0.004 C 
ATOM     10  C   UNL A   1     -27.687   1.664  30.065  0.00  0.00    +0.019 C 
ATOM     11  C   UNL A   1     -30.145   1.254  29.995  0.00  0.00    +0.000 C 
ATOM     12  C   UNL A   1     -30.350   2.121  29.019  0.00  0.00    +0.000 C 
ATOM     13  C   UNL A   1     -29.550   3.151  28.899  0.00  0.00    +0.000 C 
ATOM     14  C   UNL A   1     -28.283   3.042  29.576  0.00  0.00    +0.004 C 
ENDROOT
BRANCH   5  15
ATOM     15  C   UNL A   1     -23.474   1.974  27.366  0.00  0.00    +0.388 C 
ATOM     16  O   UNL A   1     -22.331   1.736  27.792  0.00  0.00    -0.241 OA
ATOM     17  O   UNL A   1     -23.702   3.163  26.798  0.00  0.00    -0.241 OA
ENDBRANCH   5  15
BRANCH  10  18
ATOM     18  C   UNL A   1     -26.962   2.092  31.404  0.00  0.00    +0.004 C 
ATOM     19  C   UNL A   1     -27.587   2.418  32.499  0.00  0.00    +0.000 C 
ATOM     20  C   UNL A   1     -25.482   1.889  31.383  0.00  0.00    +0.000 C 
ENDBRANCH  10  18
TORSDOF 2
