MODEL 653
MODEL 1
REMARK VINA RESULT:    -7.071      0.000      0.000
REMARK INTER + INTRA:          -8.640
REMARK INTER:                  -7.898
REMARK INTRA:                  -0.742
REMARK UNBOUND:                -0.742
REMARK  Name = No_653-gen_results/8p0m/2024-11-26-14-13-15/
REMARK  2 active torsions:
REMARK  status: ('A' for Active; 'I' for Inactive)
REMARK    1  A    between atoms: C_5  and  C_11
REMARK    2  A    between atoms: C_10  and  C_18
REMARK                            x       y       z     vdW  Elec       q    Type
REMARK                         _______ _______ _______ _____ _____    ______ ____
ROOT
ATOM      1  C   UNL A   1     -22.147   1.886  27.067  0.00  0.00    +0.026 C 
ATOM      2  C   UNL A   1     -22.789   1.044  27.651  0.00  0.00    -0.026 A 
ATOM      3  C   UNL A   1     -24.082   0.886  27.657  0.00  0.00    -0.026 A 
ATOM      4  C   UNL A   1     -24.834  -0.166  28.384  0.00  0.00    +0.002 A 
ATOM      5  C   UNL A   1     -24.056  -1.116  29.105  0.00  0.00    +0.079 A 
ATOM      6  C   UNL A   1     -22.691  -0.988  29.054  0.00  0.00    +0.006 A 
ATOM      7  C   UNL A   1     -22.042  -0.021  28.364  0.00  0.00    -0.004 A 
ATOM      8  C   UNL A   1     -22.724   2.274  25.706  0.00  0.00    +0.005 C 
ATOM      9  C   UNL A   1     -24.073   2.546  25.708  0.00  0.00    +0.004 C 
ATOM     10  C   UNL A   1     -24.832   1.510  26.510  0.00  0.00    +0.019 C 
ATOM     11  C   UNL A   1     -24.357   3.910  26.028  0.00  0.00    +0.000 C 
ATOM     12  C   UNL A   1     -24.984   4.341  27.108  0.00  0.00    +0.000 C 
ATOM     13  C   UNL A   1     -25.982   3.643  27.590  0.00  0.00    +0.000 C 
ATOM     14  C   UNL A   1     -26.055   2.271  27.156  0.00  0.00    +0.004 C 
ENDROOT
BRANCH   5  15
ATOM     15  C   UNL A   1     -24.647  -2.124  29.958  0.00  0.00    +0.388 C 
ATOM     16  O   UNL A   1     -25.087  -1.853  31.088  0.00  0.00    -0.241 OA
ATOM     17  O   UNL A   1     -24.286  -3.387  29.707  0.00  0.00    -0.241 OA
ENDBRANCH   5  15
BRANCH  10  18
ATOM     18  C   UNL A   1     -25.559   0.587  25.452  0.00  0.00    +0.004 C 
ATOM     19  C   UNL A   1     -24.970  -0.368  24.791  0.00  0.00    +0.000 C 
ATOM     20  C   UNL A   1     -27.043   0.755  25.420  0.00  0.00    +0.000 C 
ENDBRANCH  10  18
TORSDOF 2
ENDMDL
ENDMDL
