REMARK  Name = No_654-gen_results/8p0m/2024-11-26-14-13-15/
REMARK  4 active torsions:
REMARK  status: ('A' for Active; 'I' for Inactive)
REMARK    1  A    between atoms: C_4  and  C_8
REMARK    2  A    between atoms: C_8  and  C_9
REMARK    3  A    between atoms: C_12  and  C_15
REMARK    4  A    between atoms: C_15  and  C_16
REMARK                            x       y       z     vdW  Elec       q    Type
REMARK                         _______ _______ _______ _____ _____    ______ ____
ROOT
ATOM      1  C   UNL A   1     -23.595  -0.555  29.094  0.00  0.00    +0.039 A 
ATOM      2  C   UNL A   1     -22.170  -0.548  29.246  0.00  0.00    +0.003 A 
ATOM      3  C   UNL A   1     -24.010  -0.226  27.850  0.00  0.00    -0.001 A 
ATOM      4  C   UNL A   1     -23.277   0.669  27.018  0.00  0.00    -0.018 A 
ATOM      5  C   UNL A   1     -21.340   0.257  28.444  0.00  0.00    -0.000 A 
ATOM      6  C   UNL A   1     -21.928   0.970  27.368  0.00  0.00    -0.004 A 
ENDROOT
BRANCH   1   7
ATOM      7  C   UNL A   1     -24.369  -1.119  30.064  0.00  0.00    +0.196 C 
ATOM      8  O   UNL A   1     -23.867  -1.638  31.143  0.00  0.00    -0.287 OA
BRANCH   7  12
ATOM      9  C   UNL A   1     -28.016  -0.814  28.878  0.00  0.00    +0.011 A 
ATOM     10  C   UNL A   1     -28.469  -0.785  29.829  0.00  0.00    +0.058 A 
ATOM     11  C   UNL A   1     -26.546  -0.876  28.850  0.00  0.00    +0.004 A 
ATOM     12  C   UNL A   1     -25.804  -1.032  30.057  0.00  0.00    +0.039 A 
ATOM     13  C   UNL A   1     -27.944  -0.987  31.207  0.00  0.00    +0.011 A 
ATOM     14  C   UNL A   1     -26.582  -1.039  31.223  0.00  0.00    +0.004 A 
ATOM     15 CL   UNL A   1     -30.281  -0.723  29.883  0.00  0.00    -0.082 Cl
ENDBRANCH   7  12
ENDBRANCH   1   7
BRANCH   4  16
ATOM     16  C   UNL A   1     -23.923   1.409  25.922  0.00  0.00    +0.044 C 
ATOM     17  C   UNL A   1     -24.553   0.684  24.987  0.00  0.00    +0.009 C 
BRANCH  16  18
ATOM     18  C   UNL A   1     -23.969   2.845  25.981  0.00  0.00    -0.027 C 
ATOM     19  C   UNL A   1     -25.206   3.537  26.314  0.00  0.00    -0.030 C 
ATOM     20  C   UNL A   1     -25.114   4.847  26.881  0.00  0.00    +0.030 C 
ENDBRANCH  16  18
ENDBRANCH   4  16
TORSDOF 4
