MODEL 655
MODEL 1
REMARK VINA RESULT:    -4.510      0.000      0.000
REMARK INTER + INTRA:          -4.510
REMARK INTER:                  -4.510
REMARK INTRA:                   0.000
REMARK UNBOUND:                 0.000
REMARK  Name = No_655-gen_results/8p0m/2024-11-26-14-13-15/
REMARK  0 active torsions:
REMARK  status: ('A' for Active; 'I' for Inactive)
REMARK                            x       y       z     vdW  Elec       q    Type
REMARK                         _______ _______ _______ _____ _____    ______ ____
ROOT
ATOM      1  C   UNL A   1      -9.215  -9.196  20.092  0.00  0.00    +0.030 A 
ATOM      2  C   UNL A   1      -8.344  -9.760  19.907  0.00  0.00    +0.140 A 
ATOM      3  C   UNL A   1     -10.258  -9.235  19.056  0.00  0.00    +0.002 A 
ATOM      4  C   UNL A   1     -10.136 -10.109  17.936  0.00  0.00    +0.000 A 
ATOM      5  C   UNL A   1      -7.996 -10.776  18.875  0.00  0.00    +0.030 A 
ATOM      6  C   UNL A   1      -8.937 -10.833  17.890  0.00  0.00    +0.002 A 
ATOM      7  F   UNL A   1      -7.324  -9.739  20.925  0.00  0.00    -0.204 F 
ENDROOT
TORSDOF 0
ENDMDL
ENDMDL
