REMARK  Name = No_656-gen_results/8p0m/2024-11-26-14-13-15/
REMARK  10 active torsions:
REMARK  status: ('A' for Active; 'I' for Inactive)
REMARK    1  A    between atoms: C_2  and  C_21
REMARK    2  A    between atoms: C_3  and  O_14
REMARK    3  A    between atoms: C_4  and  C_6
REMARK    4  A    between atoms: C_6  and  C_8
REMARK    5  A    between atoms: O_14  and  C_15
REMARK    6  A    between atoms: C_21  and  O_23
REMARK    7  A    between atoms: O_23  and  C_25
REMARK    8  A    between atoms: C_25  and  C_26
REMARK    9  A    between atoms: C_28  and  O_32
REMARK   10  A    between atoms: O_32  and  C_34
REMARK                            x       y       z     vdW  Elec       q    Type
REMARK                         _______ _______ _______ _____ _____    ______ ____
ROOT
ATOM      1  C   UNL A   1     -28.016  -0.814  28.878  0.00  0.00    +0.044 A 
ATOM      2  C   UNL A   1     -28.469  -0.785  29.829  0.00  0.00    +0.079 A 
ATOM      3  C   UNL A   1     -26.546  -0.876  28.850  0.00  0.00    +0.142 A 
ATOM      4  C   UNL A   1     -25.804  -1.032  30.057  0.00  0.00    +0.017 A 
ATOM      5  C   UNL A   1     -27.944  -0.987  31.207  0.00  0.00    +0.006 A 
ATOM      6  C   UNL A   1     -26.561  -1.075  31.227  0.00  0.00    -0.001 A 
ENDROOT
BRANCH   2   7
ATOM      7  C   UNL A   1     -30.056  -0.801  30.054  0.00  0.00    +0.341 C 
ATOM      8  O   UNL A   1     -30.675  -1.403  30.646  0.00  0.00    -0.245 OA
BRANCH   7   9
ATOM      9  O   UNL A   1     -30.634   0.064  29.149  0.00  0.00    -0.443 OA
BRANCH   9  10
ATOM     10  C   UNL A   1     -31.817   0.458  29.189  0.00  0.00    +0.242 C 
BRANCH  10  11
ATOM     11  C   UNL A   1     -32.297   0.701  28.044  0.00  0.00    +0.203 C 
ATOM     12  O   UNL A   1     -31.658   1.222  27.143  0.00  0.00    -0.331 OA
ATOM     13  C   UNL A   1     -33.003  -0.609  27.365  0.00  0.00    +0.231 C 
ATOM     14  C   UNL A   1     -32.568  -0.905  26.223  0.00  0.00    +0.239 C 
ATOM     15  C   UNL A   1     -31.675   0.086  25.663  0.00  0.00    +0.241 C 
ATOM     16  N   UNL A   1     -31.750   0.670  24.424  0.00  0.00    -0.097 NA
ATOM     17  O   UNL A   1     -31.799  -2.116  26.030  0.00  0.00    -0.215 OA
BRANCH  13  18
ATOM     18  O   UNL A   1     -34.421  -0.498  27.483  0.00  0.00    -0.471 OA
BRANCH  18  19
ATOM     19  C   UNL A   1     -35.058  -1.319  28.196  0.00  0.00    +0.172 C 
ATOM     20  C   UNL A   1     -36.160  -1.371  28.270  0.00  0.00    +0.043 C 
ENDBRANCH  18  19
ENDBRANCH  13  18
ENDBRANCH  10  11
ENDBRANCH   9  10
ENDBRANCH   7   9
ENDBRANCH   2   7
BRANCH   4  21
ATOM     21  C   UNL A   1     -24.401  -1.097  30.096  0.00  0.00    +0.056 C 
BRANCH  21  22
ATOM     22  C   UNL A   1     -23.719   0.112  29.858  0.00  0.00    -0.015 A 
ATOM     23  C   UNL A   1     -23.934   1.236  30.483  0.00  0.00    -0.004 A 
ATOM     24  C   UNL A   1     -23.412   2.484  30.024  0.00  0.00    +0.003 A 
ATOM     25  C   UNL A   1     -22.699   2.450  28.820  0.00  0.00    +0.042 A 
ATOM     26  C   UNL A   1     -22.881   0.271  28.667  0.00  0.00    +0.038 A 
ATOM     27  C   UNL A   1     -22.346   1.357  28.256  0.00  0.00    +0.195 A 
ATOM     28  O   UNL A   1     -21.639   1.449  27.086  0.00  0.00    -0.287 OA
ENDBRANCH  21  22
ENDBRANCH   4  21
BRANCH   3  29
ATOM     29  O   UNL A   1     -25.824  -0.785  27.707  0.00  0.00    -0.454 OA
BRANCH  29  30
ATOM     30  C   UNL A   1     -26.176   0.083  26.747  0.00  0.00    +0.145 A 
ATOM     31  C   UNL A   1     -25.582  -0.054  25.494  0.00  0.00    +0.037 A 
ATOM     32  C   UNL A   1     -26.891   1.274  26.959  0.00  0.00    +0.037 A 
ATOM     33  C   UNL A   1     -27.054   2.213  25.975  0.00  0.00    +0.003 A 
ATOM     34  C   UNL A   1     -26.583   1.940  24.738  0.00  0.00    +0.000 A 
ATOM     35  C   UNL A   1     -25.879   0.833  24.410  0.00  0.00    +0.003 A 
ENDBRANCH  29  30
ENDBRANCH   3  29
TORSDOF 10
