MODEL 656
MODEL 1
REMARK VINA RESULT:    -7.772      0.000      0.000
REMARK INTER + INTRA:         -14.289
REMARK INTER:                 -12.316
REMARK INTRA:                  -1.974
REMARK UNBOUND:                -1.974
REMARK  Name = No_656-gen_results/8p0m/2024-11-26-14-13-15/
REMARK  10 active torsions:
REMARK  status: ('A' for Active; 'I' for Inactive)
REMARK    1  A    between atoms: C_2  and  C_21
REMARK    2  A    between atoms: C_3  and  O_14
REMARK    3  A    between atoms: C_4  and  C_6
REMARK    4  A    between atoms: C_6  and  C_8
REMARK    5  A    between atoms: O_14  and  C_15
REMARK    6  A    between atoms: C_21  and  O_23
REMARK    7  A    between atoms: O_23  and  C_25
REMARK    8  A    between atoms: C_25  and  C_26
REMARK    9  A    between atoms: C_28  and  O_32
REMARK   10  A    between atoms: O_32  and  C_34
REMARK                            x       y       z     vdW  Elec       q    Type
REMARK                         _______ _______ _______ _____ _____    ______ ____
ROOT
ATOM      1  C   UNL A   1     -11.291   1.195  36.132  0.00  0.00    +0.044 A 
ATOM      2  C   UNL A   1     -11.342   1.644  35.180  0.00  0.00    +0.079 A 
ATOM      3  C   UNL A   1      -9.951   0.822  36.613  0.00  0.00    +0.142 A 
ATOM      4  C   UNL A   1      -8.788   1.188  35.875  0.00  0.00    +0.017 A 
ATOM      5  C   UNL A   1     -10.305   2.174  34.253  0.00  0.00    +0.006 A 
ATOM      6  C   UNL A   1      -9.023   1.867  34.680  0.00  0.00    -0.001 A 
ENDROOT
BRANCH   2   7
ATOM      7  C   UNL A   1     -12.702   2.191  34.531  0.00  0.00    +0.341 C 
ATOM      8  O   UNL A   1     -12.917   2.603  33.593  0.00  0.00    -0.245 OA
BRANCH   7   9
ATOM      9  O   UNL A   1     -13.670   2.226  35.513  0.00  0.00    -0.443 OA
BRANCH   9  10
ATOM     10  C   UNL A   1     -14.457   3.173  35.710  0.00  0.00    +0.242 C 
BRANCH  10  11
ATOM     11  C   UNL A   1     -14.451   3.580  36.908  0.00  0.00    +0.203 C 
ATOM     12  O   UNL A   1     -13.733   4.483  37.309  0.00  0.00    -0.331 OA
ATOM     13  C   UNL A   1     -15.948   3.950  37.455  0.00  0.00    +0.231 C 
ATOM     14  C   UNL A   1     -16.064   5.113  37.918  0.00  0.00    +0.239 C 
ATOM     15  C   UNL A   1     -14.806   5.817  38.052  0.00  0.00    +0.241 C 
ATOM     16  N   UNL A   1     -14.327   6.462  39.163  0.00  0.00    -0.097 NA
ATOM     17  O   UNL A   1     -16.862   6.097  37.218  0.00  0.00    -0.215 OA
BRANCH  13  18
ATOM     18  O   UNL A   1     -16.420   2.895  38.294  0.00  0.00    -0.471 OA
BRANCH  18  19
ATOM     19  C   UNL A   1     -17.135   3.162  39.296  0.00  0.00    +0.172 C 
ATOM     20  C   UNL A   1     -17.432   2.435  40.074  0.00  0.00    +0.043 C 
ENDBRANCH  18  19
ENDBRANCH  13  18
ENDBRANCH  10  11
ENDBRANCH   9  10
ENDBRANCH   7   9
ENDBRANCH   2   7
BRANCH   4  21
ATOM     21  C   UNL A   1      -7.483   0.861  36.281  0.00  0.00    +0.056 C 
BRANCH  21  22
ATOM     22  C   UNL A   1      -6.781  -0.030  35.447  0.00  0.00    -0.015 A 
ATOM     23  C   UNL A   1      -7.296  -1.067  34.847  0.00  0.00    -0.004 A 
ATOM     24  C   UNL A   1      -6.494  -2.081  34.239  0.00  0.00    +0.003 A 
ATOM     25  C   UNL A   1      -5.108  -1.937  34.374  0.00  0.00    +0.042 A 
ATOM     26  C   UNL A   1      -5.316  -0.016  35.409  0.00  0.00    +0.038 A 
ATOM     27  C   UNL A   1      -4.565  -0.871  34.826  0.00  0.00    +0.195 A 
ATOM     28  O   UNL A   1      -3.197  -0.840  34.900  0.00  0.00    -0.287 OA
ENDBRANCH  21  22
ENDBRANCH   4  21
BRANCH   3  29
ATOM     29  O   UNL A   1      -9.744   0.121  37.754  0.00  0.00    -0.454 OA
BRANCH  29  30
ATOM     30  C   UNL A   1     -10.666  -0.747  38.196  0.00  0.00    +0.145 A 
ATOM     31  C   UNL A   1     -11.020  -0.694  39.542  0.00  0.00    +0.037 A 
ATOM     32  C   UNL A   1     -11.117  -1.874  37.488  0.00  0.00    +0.037 A 
ATOM     33  C   UNL A   1     -11.913  -2.828  38.064  0.00  0.00    +0.003 A 
ATOM     34  C   UNL A   1     -12.346  -2.630  39.329  0.00  0.00    +0.000 A 
ATOM     35  C   UNL A   1     -11.981  -1.590  40.112  0.00  0.00    +0.003 A 
ENDBRANCH  29  30
ENDBRANCH   3  29
TORSDOF 10
ENDMDL
ENDMDL
