REMARK  Name = No_657-gen_results/8p0m/2024-11-26-14-13-15/
REMARK  1 active torsions:
REMARK  status: ('A' for Active; 'I' for Inactive)
REMARK    1  A    between atoms: N_13  and  C_15
REMARK                            x       y       z     vdW  Elec       q    Type
REMARK                         _______ _______ _______ _____ _____    ______ ____
ROOT
ATOM      1  O   UNL A   1     -28.123  -1.335  28.487  0.00  0.00    -0.275 OA
ATOM      2  C   UNL A   1     -28.521  -0.436  29.078  0.00  0.00    +0.227 C 
ATOM      3  C   UNL A   1     -29.698   0.051  28.976  0.00  0.00    +0.103 C 
ATOM      4  N   UNL A   1     -27.706  -0.022  30.163  0.00  0.00    -0.278 N 
ATOM      5  C   UNL A   1     -26.395  -0.354  30.365  0.00  0.00    +0.115 C 
ATOM      6  C   UNL A   1     -30.774  -0.541  29.565  0.00  0.00    +0.083 C 
ATOM      7  N   UNL A   1     -30.585  -1.249  30.509  0.00  0.00    -0.258 NA
ATOM      8  C   UNL A   1     -31.105  -2.175  31.110  0.00  0.00    +0.073 C 
ATOM      9  C   UNL A   1     -30.597  -2.879  32.306  0.00  0.00    +0.018 C 
ATOM     10  C   UNL A   1     -29.285  -2.471  32.579  0.00  0.00    +0.005 C 
ATOM     11  C   UNL A   1     -28.703  -1.706  32.225  0.00  0.00    +0.037 C 
ATOM     12  C   UNL A   1     -29.171  -0.942  30.957  0.00  0.00    +0.134 C 
ATOM     13  N   UNL A   1     -28.904  -0.025  31.444  0.00  0.00    -0.298 N 
ATOM     14  C   UNL A   1     -27.491   1.533  29.977  0.00  0.00    +0.095 C 
ATOM     15  C   UNL A   1     -29.516   0.967  30.829  0.00  0.00    +0.076 C 
ATOM     16  C   UNL A   1     -28.890   2.091  30.353  0.00  0.00    +0.041 C 
ATOM     17  C   UNL A   1     -30.966   1.327  31.070  0.00  0.00    +0.021 C 
ENDROOT
BRANCH  13  18
ATOM     18  C   UNL A   1     -28.906   0.802  32.280  0.00  0.00    +0.049 A 
ATOM     19  C   UNL A   1     -28.263   2.041  32.724  0.00  0.00    +0.015 A 
ATOM     20  C   UNL A   1     -29.697   0.427  33.535  0.00  0.00    +0.015 A 
ATOM     21  C   UNL A   1     -29.711   1.165  34.707  0.00  0.00    +0.001 A 
ATOM     22  C   UNL A   1     -28.041   2.526  34.112  0.00  0.00    +0.001 A 
ATOM     23  C   UNL A   1     -28.813   2.100  35.035  0.00  0.00    +0.000 A 
ENDBRANCH  13  18
TORSDOF 1
