MODEL 657
MODEL 1
REMARK VINA RESULT:    -7.453      0.000      0.000
REMARK INTER + INTRA:          -4.752
REMARK INTER:                  -7.889
REMARK INTRA:                   3.136
REMARK UNBOUND:                 3.136
REMARK  Name = No_657-gen_results/8p0m/2024-11-26-14-13-15/
REMARK  1 active torsions:
REMARK  status: ('A' for Active; 'I' for Inactive)
REMARK    1  A    between atoms: N_13  and  C_15
REMARK                            x       y       z     vdW  Elec       q    Type
REMARK                         _______ _______ _______ _____ _____    ______ ____
ROOT
ATOM      1  O   UNL A   1     -24.801   2.615  30.368  0.00  0.00    -0.275 OA
ATOM      2  C   UNL A   1     -25.237   1.740  29.768  0.00  0.00    +0.227 C 
ATOM      3  C   UNL A   1     -25.314   1.685  28.494  0.00  0.00    +0.103 C 
ATOM      4  N   UNL A   1     -25.467   0.555  30.515  0.00  0.00    -0.278 N 
ATOM      5  C   UNL A   1     -25.533   0.455  31.877  0.00  0.00    +0.115 C 
ATOM      6  C   UNL A   1     -24.230   1.395  27.721  0.00  0.00    +0.083 C 
ATOM      7  N   UNL A   1     -23.329   0.784  28.214  0.00  0.00    -0.258 NA
ATOM      8  C   UNL A   1     -22.132   0.594  28.072  0.00  0.00    +0.073 C 
ATOM      9  C   UNL A   1     -21.247  -0.262  28.890  0.00  0.00    +0.018 C 
ATOM     10  C   UNL A   1     -21.932  -0.707  30.028  0.00  0.00    +0.005 C 
ATOM     11  C   UNL A   1     -22.918  -0.686  30.303  0.00  0.00    +0.037 C 
ATOM     12  C   UNL A   1     -23.895   0.212  29.497  0.00  0.00    +0.134 C 
ATOM     13  N   UNL A   1     -24.603  -0.594  29.510  0.00  0.00    -0.298 N 
ATOM     14  C   UNL A   1     -26.960   0.133  30.212  0.00  0.00    +0.095 C 
ATOM     15  C   UNL A   1     -25.492  -0.382  28.560  0.00  0.00    +0.076 C 
ATOM     16  C   UNL A   1     -26.850  -0.385  28.752  0.00  0.00    +0.041 C 
ATOM     17  C   UNL A   1     -25.243  -0.698  27.101  0.00  0.00    +0.021 C 
ENDROOT
BRANCH  13  18
ATOM     18  C   UNL A   1     -25.016  -1.680  29.330  0.00  0.00    +0.049 A 
ATOM     19  C   UNL A   1     -26.098  -2.607  29.668  0.00  0.00    +0.015 A 
ATOM     20  C   UNL A   1     -24.012  -2.637  28.686  0.00  0.00    +0.015 A 
ATOM     21  C   UNL A   1     -24.212  -3.998  28.526  0.00  0.00    +0.001 A 
ATOM     22  C   UNL A   1     -26.044  -4.087  29.802  0.00  0.00    +0.001 A 
ATOM     23  C   UNL A   1     -25.128  -4.721  29.180  0.00  0.00    +0.000 A 
ENDBRANCH  13  18
TORSDOF 1
ENDMDL
ENDMDL
