REMARK  Name = No_658-gen_results/8p0m/2024-11-26-14-13-15/
REMARK  5 active torsions:
REMARK  status: ('A' for Active; 'I' for Inactive)
REMARK    1  A    between atoms: C_3  and  C_8
REMARK    2  A    between atoms: N_4  and  C_11
REMARK    3  A    between atoms: C_6  and  C_12
REMARK    4  A    between atoms: C_11  and  C_15
REMARK    5  A    between atoms: C_15  and  C_16
REMARK                            x       y       z     vdW  Elec       q    Type
REMARK                         _______ _______ _______ _____ _____    ______ ____
ROOT
ATOM      1  O   UNL A   1     -28.123  -1.335  28.487  0.00  0.00    -0.274 OA
ATOM      2  C   UNL A   1     -27.064  -0.824  28.869  0.00  0.00    +0.238 C 
ATOM      3  C   UNL A   1     -26.402  -0.062  28.622  0.00  0.00    +0.180 C 
ATOM      4  N   UNL A   1     -26.265  -1.867  29.761  0.00  0.00    -0.252 N 
ATOM      5  C   UNL A   1     -25.044   0.392  29.066  0.00  0.00    +0.034 C 
ATOM      6  C   UNL A   1     -24.473  -0.544  29.987  0.00  0.00    +0.124 C 
ATOM      7  C   UNL A   1     -25.133  -1.670  30.289  0.00  0.00    +0.107 C 
ENDROOT
BRANCH   3   8
ATOM      8  C   UNL A   1     -26.910   1.110  27.661  0.00  0.00    +0.373 C 
ATOM      9  O   UNL A   1     -26.273   1.555  26.804  0.00  0.00    -0.245 OA
ATOM     10  O   UNL A   1     -28.169   1.317  27.797  0.00  0.00    -0.245 OA
ENDBRANCH   3   8
BRANCH   6  11
ATOM     11  C   UNL A   1     -23.090  -0.225  30.500  0.00  0.00    +0.366 C 
ATOM     12  O   UNL A   1     -22.581   0.838  30.266  0.00  0.00    -0.246 OA
ATOM     13  O   UNL A   1     -22.515  -1.041  31.396  0.00  0.00    -0.246 OA
ENDBRANCH   6  11
BRANCH   4  14
ATOM     14  C   UNL A   1     -27.040  -3.090  30.161  0.00  0.00    +0.244 C 
ATOM     15  F   UNL A   1     -26.464  -4.095  29.721  0.00  0.00    -0.214 F 
BRANCH  14  16
ATOM     16  C   UNL A   1     -28.288  -2.987  30.823  0.00  0.00    +0.083 C 
BRANCH  16  17
ATOM     17  C   UNL A   1     -28.651  -1.850  31.378  0.00  0.00    -0.018 A 
ATOM     18  C   UNL A   1     -29.910  -1.747  32.066  0.00  0.00    -0.004 A 
ATOM     19  C   UNL A   1     -30.366  -0.524  32.590  0.00  0.00    -0.000 A 
ATOM     20  C   UNL A   1     -29.621   0.676  32.359  0.00  0.00    -0.000 A 
ATOM     21  C   UNL A   1     -28.396   0.565  31.645  0.00  0.00    -0.000 A 
ATOM     22  C   UNL A   1     -27.986  -0.639  31.220  0.00  0.00    -0.004 A 
ENDBRANCH  16  17
ENDBRANCH  14  16
ENDBRANCH   4  14
TORSDOF 5
