MODEL 658
MODEL 1
REMARK VINA RESULT:    -6.907      0.000      0.000
REMARK INTER + INTRA:          -9.940
REMARK INTER:                  -8.925
REMARK INTRA:                  -1.015
REMARK UNBOUND:                -1.015
REMARK  Name = No_658-gen_results/8p0m/2024-11-26-14-13-15/
REMARK  5 active torsions:
REMARK  status: ('A' for Active; 'I' for Inactive)
REMARK    1  A    between atoms: C_3  and  C_8
REMARK    2  A    between atoms: N_4  and  C_11
REMARK    3  A    between atoms: C_6  and  C_12
REMARK    4  A    between atoms: C_11  and  C_15
REMARK    5  A    between atoms: C_15  and  C_16
REMARK                            x       y       z     vdW  Elec       q    Type
REMARK                         _______ _______ _______ _____ _____    ______ ____
ROOT
ATOM      1  O   UNL A   1     -11.904   2.298  38.410  0.00  0.00    -0.274 OA
ATOM      2  C   UNL A   1     -12.362   2.400  37.266  0.00  0.00    +0.238 C 
ATOM      3  C   UNL A   1     -13.243   2.639  36.769  0.00  0.00    +0.180 C 
ATOM      4  N   UNL A   1     -11.478   1.542  36.264  0.00  0.00    -0.252 N 
ATOM      5  C   UNL A   1     -13.751   2.588  35.360  0.00  0.00    +0.034 C 
ATOM      6  C   UNL A   1     -12.809   1.928  34.506  0.00  0.00    +0.124 C 
ATOM      7  C   UNL A   1     -11.686   1.412  35.024  0.00  0.00    +0.107 C 
ENDROOT
BRANCH   3   8
ATOM      8  C   UNL A   1     -14.372   3.448  37.561  0.00  0.00    +0.373 C 
ATOM      9  O   UNL A   1     -15.182   2.943  38.214  0.00  0.00    -0.245 OA
ATOM     10  O   UNL A   1     -14.121   4.707  37.581  0.00  0.00    -0.245 OA
ENDBRANCH   3   8
BRANCH   6  11
ATOM     11  C   UNL A   1     -13.202   1.782  33.056  0.00  0.00    +0.366 C 
ATOM     12  O   UNL A   1     -14.023   2.512  32.569  0.00  0.00    -0.246 OA
ATOM     13  O   UNL A   1     -12.483   0.982  32.256  0.00  0.00    -0.246 OA
ENDBRANCH   6  11
BRANCH   4  14
ATOM     14  C   UNL A   1     -10.182   1.035  36.831  0.00  0.00    +0.244 C 
ATOM     15  F   UNL A   1      -9.413   1.992  36.999  0.00  0.00    -0.214 F 
BRANCH  14  16
ATOM     16  C   UNL A   1      -9.939  -0.352  36.985  0.00  0.00    +0.083 C 
BRANCH  16  17
ATOM     17  C   UNL A   1     -10.530  -1.024  37.951  0.00  0.00    -0.018 A 
ATOM     18  C   UNL A   1     -11.500  -2.039  37.640  0.00  0.00    -0.004 A 
ATOM     19  C   UNL A   1     -12.214  -2.710  38.650  0.00  0.00    -0.000 A 
ATOM     20  C   UNL A   1     -12.056  -2.321  40.018  0.00  0.00    -0.000 A 
ATOM     21  C   UNL A   1     -11.119  -1.290  40.307  0.00  0.00    -0.000 A 
ATOM     22  C   UNL A   1     -10.427  -0.727  39.305  0.00  0.00    -0.004 A 
ENDBRANCH  16  17
ENDBRANCH  14  16
ENDBRANCH   4  14
TORSDOF 5
ENDMDL
ENDMDL
