REMARK  Name = No_659-gen_results/8p0m/2024-11-26-14-13-15/
REMARK  3 active torsions:
REMARK  status: ('A' for Active; 'I' for Inactive)
REMARK    1  A    between atoms: C_3  and  C_4
REMARK    2  A    between atoms: C_7  and  C_13
REMARK    3  A    between atoms: N_14  and  C_15
REMARK                            x       y       z     vdW  Elec       q    Type
REMARK                         _______ _______ _______ _____ _____    ______ ____
ROOT
ATOM      1  C   UNL A   1     -28.016  -0.814  28.878  0.00  0.00    +0.005 A 
ATOM      2  C   UNL A   1     -27.064  -0.119  28.608  0.00  0.00    +0.000 A 
ATOM      3  C   UNL A   1     -25.792  -0.430  29.076  0.00  0.00    +0.000 A 
ATOM      4  C   UNL A   1     -27.905  -1.898  29.873  0.00  0.00    +0.055 A 
ATOM      5  C   UNL A   1     -26.680  -2.314  30.318  0.00  0.00    +0.005 A 
ATOM      6  C   UNL A   1     -25.520  -1.556  29.977  0.00  0.00    +0.000 A 
ENDROOT
BRANCH   3   7
ATOM      7  C   UNL A   1     -24.546   0.349  28.823  0.00  0.00    +0.000 A 
ATOM      8  C   UNL A   1     -23.241   0.022  29.332  0.00  0.00    +0.000 A 
ATOM      9  C   UNL A   1     -22.136   0.769  29.006  0.00  0.00    +0.000 A 
ATOM     10  C   UNL A   1     -22.116   1.734  28.026  0.00  0.00    +0.000 A 
ATOM     11  C   UNL A   1     -24.522   1.391  27.791  0.00  0.00    +0.000 A 
ATOM     12  C   UNL A   1     -23.325   2.052  27.447  0.00  0.00    +0.000 A 
ENDBRANCH   3   7
BRANCH   4  13
ATOM     13  C   UNL A   1     -29.060  -2.715  30.296  0.00  0.00    +0.269 C 
ATOM     14  N   UNL A   1     -28.965  -3.980  30.588  0.00  0.00    -0.175 NA
ATOM     15  O   UNL A   1     -30.096  -2.088  30.633  0.00  0.00    -0.268 OA
BRANCH  14  16
ATOM     16  C   UNL A   1     -29.966  -4.891  30.312  0.00  0.00    +0.074 A 
ATOM     17  C   UNL A   1     -30.690  -4.791  29.181  0.00  0.00    +0.017 A 
ATOM     18  C   UNL A   1     -31.459  -5.963  28.787  0.00  0.00    +0.001 A 
ATOM     19  C   UNL A   1     -31.537  -7.069  29.592  0.00  0.00    +0.000 A 
ATOM     20  C   UNL A   1     -30.821  -7.149  30.770  0.00  0.00    +0.001 A 
ATOM     21  C   UNL A   1     -29.927  -6.079  31.134  0.00  0.00    +0.017 A 
ENDBRANCH  14  16
ENDBRANCH   4  13
TORSDOF 3
