MODEL 659
MODEL 1
REMARK VINA RESULT:    -6.987      0.000      0.000
REMARK INTER + INTRA:          -8.953
REMARK INTER:                  -8.212
REMARK INTRA:                  -0.741
REMARK UNBOUND:                -0.741
REMARK  Name = No_659-gen_results/8p0m/2024-11-26-14-13-15/
REMARK  3 active torsions:
REMARK  status: ('A' for Active; 'I' for Inactive)
REMARK    1  A    between atoms: C_3  and  C_4
REMARK    2  A    between atoms: C_7  and  C_13
REMARK    3  A    between atoms: N_14  and  C_15
REMARK                            x       y       z     vdW  Elec       q    Type
REMARK                         _______ _______ _______ _____ _____    ______ ____
ROOT
ATOM      1  C   UNL A   1     -28.062   1.966  24.449  0.00  0.00    +0.005 A 
ATOM      2  C   UNL A   1     -29.066   2.277  23.853  0.00  0.00    +0.000 A 
ATOM      3  C   UNL A   1     -29.909   1.311  23.314  0.00  0.00    +0.000 A 
ATOM      4  C   UNL A   1     -27.585   0.569  24.456  0.00  0.00    +0.055 A 
ATOM      5  C   UNL A   1     -28.392  -0.445  24.017  0.00  0.00    +0.005 A 
ATOM      6  C   UNL A   1     -29.616  -0.126  23.357  0.00  0.00    +0.000 A 
ENDROOT
BRANCH   3   7
ATOM      7  C   UNL A   1     -31.165   1.565  22.551  0.00  0.00    +0.000 A 
ATOM      8  C   UNL A   1     -31.357   2.615  21.586  0.00  0.00    +0.000 A 
ATOM      9  C   UNL A   1     -32.534   2.744  20.892  0.00  0.00    +0.000 A 
ATOM     10  C   UNL A   1     -33.532   1.799  20.878  0.00  0.00    +0.000 A 
ATOM     11  C   UNL A   1     -32.241   0.568  22.545  0.00  0.00    +0.000 A 
ATOM     12  C   UNL A   1     -33.382   0.729  21.732  0.00  0.00    +0.000 A 
ENDBRANCH   3   7
BRANCH   4  13
ATOM     13  C   UNL A   1     -26.320   0.160  25.098  0.00  0.00    +0.269 C 
ATOM     14  N   UNL A   1     -25.881   0.692  26.202  0.00  0.00    -0.175 NA
ATOM     15  O   UNL A   1     -25.810  -0.915  24.694  0.00  0.00    -0.268 OA
BRANCH  14  16
ATOM     16  C   UNL A   1     -24.537   0.887  26.458  0.00  0.00    +0.074 A 
ATOM     17  C   UNL A   1     -23.826   1.778  25.741  0.00  0.00    +0.017 A 
ATOM     18  C   UNL A   1     -22.542   2.188  26.290  0.00  0.00    +0.001 A 
ATOM     19  C   UNL A   1     -22.029   1.605  27.419  0.00  0.00    +0.000 A 
ATOM     20  C   UNL A   1     -22.749   0.664  28.128  0.00  0.00    +0.001 A 
ATOM     21  C   UNL A   1     -24.088   0.330  27.713  0.00  0.00    +0.017 A 
ENDBRANCH  14  16
ENDBRANCH   4  13
TORSDOF 3
ENDMDL
ENDMDL
