MODEL 65
MODEL 1
REMARK VINA RESULT:    -4.899      0.000      0.000
REMARK INTER + INTRA:          -5.128
REMARK INTER:                  -5.185
REMARK INTRA:                   0.057
REMARK UNBOUND:                 0.057
REMARK  Name = No_65-gen_results/8p0m/2024-11-26-14-13-15/
REMARK  1 active torsions:
REMARK  status: ('A' for Active; 'I' for Inactive)
REMARK    1  A    between atoms: C_2  and  C_7
REMARK                            x       y       z     vdW  Elec       q    Type
REMARK                         _______ _______ _______ _____ _____    ______ ____
ROOT
ATOM      1  C   UNL A   1     -23.855  -3.465  28.631  0.00  0.00    -0.000 A 
ATOM      2  C   UNL A   1     -24.607  -2.607  29.029  0.00  0.00    -0.000 A 
ATOM      3  C   UNL A   1     -25.823  -2.935  29.618  0.00  0.00    -0.000 A 
ATOM      4  C   UNL A   1     -26.245  -4.307  29.732  0.00  0.00    -0.000 A 
ATOM      5  C   UNL A   1     -25.325  -5.233  29.224  0.00  0.00    -0.000 A 
ATOM      6  C   UNL A   1     -24.196  -4.871  28.661  0.00  0.00    -0.000 A 
ENDROOT
BRANCH   2   7
ATOM      7  C   UNL A   1     -24.204  -1.218  28.810  0.00  0.00    -0.005 C 
ATOM      8  C   UNL A   1     -23.677  -0.546  29.873  0.00  0.00    -0.026 C 
ATOM      9  C   UNL A   1     -23.466  -1.237  31.189  0.00  0.00    +0.031 C 
ENDBRANCH   2   7
TORSDOF 1
ENDMDL
ENDMDL
