REMARK  Name = No_66-gen_results/8p0m/2024-11-26-14-13-15/
REMARK  2 active torsions:
REMARK  status: ('A' for Active; 'I' for Inactive)
REMARK    1  A    between atoms: C_3  and  C_14
REMARK    2  A    between atoms: C_5  and  C_11
REMARK                            x       y       z     vdW  Elec       q    Type
REMARK                         _______ _______ _______ _____ _____    ______ ____
ROOT
ATOM      1  C   UNL A   1     -28.016  -0.814  28.878  0.00  0.00    +0.000 A 
ATOM      2  C   UNL A   1     -27.064  -0.119  28.608  0.00  0.00    +0.001 A 
ATOM      3  C   UNL A   1     -26.972   0.714  27.506  0.00  0.00    +0.018 A 
ATOM      4  C   UNL A   1     -25.820   1.491  27.116  0.00  0.00    +0.007 A 
ATOM      5  C   UNL A   1     -24.656   1.424  27.918  0.00  0.00    +0.068 A 
ATOM      6  C   UNL A   1     -24.685   0.590  29.066  0.00  0.00    +0.006 A 
ATOM      7  C   UNL A   1     -25.810  -0.127  29.334  0.00  0.00    +0.000 A 
ATOM      8  C   UNL A   1     -28.044  -1.573  30.169  0.00  0.00    +0.000 A 
ATOM      9  C   UNL A   1     -26.817  -1.760  30.870  0.00  0.00    +0.000 A 
ATOM     10  C   UNL A   1     -25.748  -0.992  30.538  0.00  0.00    +0.000 A 
ENDROOT
BRANCH   3  11
ATOM     11  C   UNL A   1     -28.094   0.812  26.537  0.00  0.00    +0.077 A 
ATOM     12  N   UNL A   1     -27.973   0.808  25.324  0.00  0.00    -0.244 NA
ATOM     13  C   UNL A   1     -29.432   0.897  27.039  0.00  0.00    +0.002 A 
ATOM     14  C   UNL A   1     -30.424   0.980  26.135  0.00  0.00    +0.054 A 
ATOM     15  C   UNL A   1     -28.829   0.895  24.361  0.00  0.00    +0.099 A 
ATOM     16  C   UNL A   1     -31.803   1.029  26.570  0.00  0.00    +0.265 C 
ATOM     17  C   UNL A   1     -30.096   0.974  24.798  0.00  0.00    +0.025 A 
ATOM     18  N   UNL A   1     -32.082   1.229  27.796  0.00  0.00    -0.201 NA
ATOM     19  O   UNL A   1     -32.686   0.838  25.747  0.00  0.00    -0.268 OA
ATOM     20  C   UNL A   1     -31.283   1.572  28.897  0.00  0.00    +0.120 C 
ATOM     21  C   UNL A   1     -29.852   1.390  28.544  0.00  0.00    +0.051 C 
ENDBRANCH   3  11
BRANCH   5  22
ATOM     22  C   UNL A   1     -23.459   2.228  27.584  0.00  0.00    +0.333 C 
ATOM     23  O   UNL A   1     -23.527   3.169  26.845  0.00  0.00    -0.254 OA
ATOM     24  F   UNL A   1     -22.508   2.280  28.456  0.00  0.00    -0.159 F 
ENDBRANCH   5  22
TORSDOF 2
