REMARK  Name = No_660-gen_results/8p0m/2024-11-26-14-13-15/
REMARK  4 active torsions:
REMARK  status: ('A' for Active; 'I' for Inactive)
REMARK    1  A    between atoms: C_4  and  C_8
REMARK    2  A    between atoms: C_8  and  C_9
REMARK    3  A    between atoms: C_13  and  C_15
REMARK    4  A    between atoms: C_15  and  C_16
REMARK                            x       y       z     vdW  Elec       q    Type
REMARK                         _______ _______ _______ _____ _____    ______ ____
ROOT
ATOM      1  C   UNL A   1     -23.632  -0.359  29.100  0.00  0.00    -0.019 A 
ATOM      2  C   UNL A   1     -22.186  -0.310  29.238  0.00  0.00    -0.004 A 
ATOM      3  C   UNL A   1     -21.436   0.237  28.175  0.00  0.00    -0.001 A 
ATOM      4  C   UNL A   1     -22.068   1.143  27.313  0.00  0.00    -0.004 A 
ATOM      5  C   UNL A   1     -23.468   1.337  27.341  0.00  0.00    -0.018 A 
ATOM      6  C   UNL A   1     -24.238   0.689  28.291  0.00  0.00    -0.008 A 
ENDROOT
BRANCH   1   7
ATOM      7  C   UNL A   1     -24.370  -0.821  30.139  0.00  0.00    +0.045 C 
ATOM      8  C   UNL A   1     -23.965  -2.347  30.363  0.00  0.00    +0.009 C 
BRANCH   7  12
ATOM      9  C   UNL A   1     -28.016  -0.814  28.878  0.00  0.00    +0.011 A 
ATOM     10  C   UNL A   1     -28.469  -0.785  29.829  0.00  0.00    +0.058 A 
ATOM     11  C   UNL A   1     -26.504  -0.778  28.877  0.00  0.00    -0.003 A 
ATOM     12  C   UNL A   1     -25.810  -0.853  30.103  0.00  0.00    -0.018 A 
ATOM     13  C   UNL A   1     -27.991  -0.892  31.226  0.00  0.00    +0.011 A 
ATOM     14  C   UNL A   1     -26.604  -0.868  31.265  0.00  0.00    -0.003 A 
ATOM     15 CL   UNL A   1     -30.294  -0.838  29.835  0.00  0.00    -0.082 Cl
ENDBRANCH   7  12
ENDBRANCH   1   7
BRANCH   5  16
ATOM     16  C   UNL A   1     -24.010   2.336  26.413  0.00  0.00    +0.053 C 
BRANCH  16  17
ATOM     17  C   UNL A   1     -25.084   3.039  26.867  0.00  0.00    -0.018 A 
ATOM     18  C   UNL A   1     -26.251   2.393  26.889  0.00  0.00    -0.004 A 
ATOM     19  C   UNL A   1     -27.326   3.328  27.340  0.00  0.00    -0.000 A 
ATOM     20  C   UNL A   1     -27.118   4.599  27.694  0.00  0.00    -0.000 A 
ATOM     21  C   UNL A   1     -24.947   4.466  27.204  0.00  0.00    -0.004 A 
ATOM     22  C   UNL A   1     -25.948   5.226  27.565  0.00  0.00    -0.000 A 
ENDBRANCH  16  17
ENDBRANCH   5  16
TORSDOF 4
