MODEL 660
MODEL 1
REMARK VINA RESULT:    -7.736      0.000      0.000
REMARK INTER + INTRA:         -10.954
REMARK INTER:                  -9.545
REMARK INTRA:                  -1.409
REMARK UNBOUND:                -1.409
REMARK  Name = No_660-gen_results/8p0m/2024-11-26-14-13-15/
REMARK  4 active torsions:
REMARK  status: ('A' for Active; 'I' for Inactive)
REMARK    1  A    between atoms: C_4  and  C_8
REMARK    2  A    between atoms: C_8  and  C_9
REMARK    3  A    between atoms: C_13  and  C_15
REMARK    4  A    between atoms: C_15  and  C_16
REMARK                            x       y       z     vdW  Elec       q    Type
REMARK                         _______ _______ _______ _____ _____    ______ ____
ROOT
ATOM      1  C   UNL A   1     -23.214   1.872  27.330  0.00  0.00    -0.019 A 
ATOM      2  C   UNL A   1     -21.853   1.528  26.955  0.00  0.00    -0.004 A 
ATOM      3  C   UNL A   1     -21.031   0.917  27.926  0.00  0.00    -0.001 A 
ATOM      4  C   UNL A   1     -21.646   0.215  28.971  0.00  0.00    -0.004 A 
ATOM      5  C   UNL A   1     -23.039   0.301  29.200  0.00  0.00    -0.018 A 
ATOM      6  C   UNL A   1     -23.840   1.023  28.333  0.00  0.00    -0.008 A 
ENDROOT
BRANCH   1   7
ATOM      7  C   UNL A   1     -24.035   2.399  26.389  0.00  0.00    +0.045 C 
ATOM      8  C   UNL A   1     -24.725   3.685  27.032  0.00  0.00    +0.009 C 
BRANCH   7  12
ATOM      9  C   UNL A   1     -26.117  -0.312  24.600  0.00  0.00    +0.011 A 
ATOM     10  C   UNL A   1     -27.038   0.198  24.647  0.00  0.00    +0.058 A 
ATOM     11  C   UNL A   1     -24.931   0.435  25.169  0.00  0.00    -0.003 A 
ATOM     12  C   UNL A   1     -25.142   1.661  25.835  0.00  0.00    -0.018 A 
ATOM     13  C   UNL A   1     -27.525   1.434  25.300  0.00  0.00    +0.011 A 
ATOM     14  C   UNL A   1     -26.463   2.145  25.841  0.00  0.00    -0.003 A 
ATOM     15 CL   UNL A   1     -28.474  -0.704  23.970  0.00  0.00    -0.082 Cl
ENDBRANCH   7  12
ENDBRANCH   1   7
BRANCH   5  16
ATOM     16  C   UNL A   1     -23.572  -0.505  30.304  0.00  0.00    +0.053 C 
BRANCH  16  17
ATOM     17  C   UNL A   1     -24.282  -1.608  29.938  0.00  0.00    -0.018 A 
ATOM     18  C   UNL A   1     -25.505  -1.727  30.458  0.00  0.00    -0.004 A 
ATOM     19  C   UNL A   1     -26.108  -3.020  30.013  0.00  0.00    -0.000 A 
ATOM     20  C   UNL A   1     -25.508  -3.888  29.194  0.00  0.00    -0.000 A 
ATOM     21  C   UNL A   1     -23.659  -2.645  29.098  0.00  0.00    -0.004 A 
ATOM     22  C   UNL A   1     -24.247  -3.767  28.775  0.00  0.00    -0.000 A 
ENDBRANCH  16  17
ENDBRANCH   5  16
TORSDOF 4
ENDMDL
ENDMDL
