REMARK  Name = No_661-gen_results/8p0m/2024-11-26-14-13-15/
REMARK  3 active torsions:
REMARK  status: ('A' for Active; 'I' for Inactive)
REMARK    1  A    between atoms: C_3  and  C_7
REMARK    2  A    between atoms: C_10  and  C_11
REMARK    3  A    between atoms: C_11  and  C_14
REMARK                            x       y       z     vdW  Elec       q    Type
REMARK                         _______ _______ _______ _____ _____    ______ ____
ROOT
ATOM      1  C   UNL A   1     -27.445   0.487  26.773  0.00  0.00    -0.004 A 
ATOM      2  C   UNL A   1     -27.863   0.805  25.756  0.00  0.00    -0.000 A 
ATOM      3  C   UNL A   1     -27.080   0.768  24.500  0.00  0.00    -0.000 A 
ATOM      4  C   UNL A   1     -26.030   0.128  26.819  0.00  0.00    -0.018 A 
ATOM      5  C   UNL A   1     -25.727   0.440  24.560  0.00  0.00    -0.000 A 
ATOM      6  C   UNL A   1     -25.185   0.176  25.747  0.00  0.00    -0.004 A 
ENDROOT
BRANCH   1   9
ATOM      7  C   UNL A   1     -28.016  -0.814  28.878  0.00  0.00    -0.000 A 
ATOM      8  C   UNL A   1     -28.469  -0.785  29.829  0.00  0.00    -0.000 A 
ATOM      9  C   UNL A   1     -28.182   0.428  28.113  0.00  0.00    -0.000 A 
ATOM     10  C   UNL A   1     -28.984   1.415  28.515  0.00  0.00    -0.000 A 
ATOM     11  C   UNL A   1     -29.380   0.138  30.461  0.00  0.00    -0.000 A 
ATOM     12  C   UNL A   1     -29.541   1.274  29.724  0.00  0.00    -0.000 A 
ENDBRANCH   1   9
BRANCH   4  13
ATOM     13  C   UNL A   1     -25.338  -0.168  28.150  0.00  0.00    +0.052 C 
BRANCH  13  14
ATOM     14  C   UNL A   1     -24.513   0.841  28.689  0.00  0.00    -0.026 C 
ATOM     15  C   UNL A   1     -23.746   0.525  29.759  0.00  0.00    -0.030 C 
ATOM     16  C   UNL A   1     -22.799   1.423  30.354  0.00  0.00    +0.030 C 
ENDBRANCH  13  14
ENDBRANCH   4  13
TORSDOF 3
