MODEL 661
MODEL 1
REMARK VINA RESULT:    -6.743      0.000      0.000
REMARK INTER + INTRA:          -9.029
REMARK INTER:                  -7.926
REMARK INTRA:                  -1.104
REMARK UNBOUND:                -1.104
REMARK  Name = No_661-gen_results/8p0m/2024-11-26-14-13-15/
REMARK  3 active torsions:
REMARK  status: ('A' for Active; 'I' for Inactive)
REMARK    1  A    between atoms: C_3  and  C_7
REMARK    2  A    between atoms: C_10  and  C_11
REMARK    3  A    between atoms: C_11  and  C_14
REMARK                            x       y       z     vdW  Elec       q    Type
REMARK                         _______ _______ _______ _____ _____    ______ ____
ROOT
ATOM      1  C   UNL A   1     -24.383  -2.692  28.954  0.00  0.00    -0.004 A 
ATOM      2  C   UNL A   1     -24.041  -3.752  28.690  0.00  0.00    -0.000 A 
ATOM      3  C   UNL A   1     -24.863  -4.961  28.925  0.00  0.00    -0.000 A 
ATOM      4  C   UNL A   1     -25.660  -2.568  29.651  0.00  0.00    -0.018 A 
ATOM      5  C   UNL A   1     -26.071  -4.831  29.606  0.00  0.00    -0.000 A 
ATOM      6  C   UNL A   1     -26.442  -3.624  30.027  0.00  0.00    -0.004 A 
ENDROOT
BRANCH   1   9
ATOM      7  C   UNL A   1     -24.285  -0.458  27.751  0.00  0.00    -0.000 A 
ATOM      8  C   UNL A   1     -23.790   0.469  27.664  0.00  0.00    -0.000 A 
ATOM      9  C   UNL A   1     -23.643  -1.377  28.698  0.00  0.00    -0.000 A 
ATOM     10  C   UNL A   1     -22.453  -1.125  29.246  0.00  0.00    -0.000 A 
ATOM     11  C   UNL A   1     -22.513   0.953  28.129  0.00  0.00    -0.000 A 
ATOM     12  C   UNL A   1     -21.921   0.075  28.987  0.00  0.00    -0.000 A 
ENDBRANCH   1   9
BRANCH   4  13
ATOM     13  C   UNL A   1     -26.138  -1.215  30.179  0.00  0.00    +0.052 C 
BRANCH  13  14
ATOM     14  C   UNL A   1     -26.039  -0.990  31.568  0.00  0.00    -0.026 C 
ATOM     15  C   UNL A   1     -24.800  -0.927  32.110  0.00  0.00    -0.030 C 
ATOM     16  C   UNL A   1     -24.547  -0.619  33.488  0.00  0.00    +0.030 C 
ENDBRANCH  13  14
ENDBRANCH   4  13
TORSDOF 3
ENDMDL
ENDMDL
