REMARK  Name = No_662-gen_results/8p0m/2024-11-26-14-13-15/
REMARK  6 active torsions:
REMARK  status: ('A' for Active; 'I' for Inactive)
REMARK    1  A    between atoms: C_1  and  C_2
REMARK    2  A    between atoms: C_1  and  C_8
REMARK    3  A    between atoms: C_3  and  C_18
REMARK    4  A    between atoms: C_5  and  C_10
REMARK    5  A    between atoms: C_8  and  N_9
REMARK    6  A    between atoms: C_22  and  C_24
REMARK                            x       y       z     vdW  Elec       q    Type
REMARK                         _______ _______ _______ _____ _____    ______ ____
ROOT
ATOM      1  C   UNL A   1     -27.064  -0.119  28.608  0.00  0.00    -0.021 A 
ATOM      2  C   UNL A   1     -26.972   0.714  27.506  0.00  0.00    -0.004 A 
ATOM      3  C   UNL A   1     -25.820   1.491  27.116  0.00  0.00    +0.003 A 
ATOM      4  C   UNL A   1     -24.656   1.424  27.918  0.00  0.00    +0.035 A 
ATOM      5  C   UNL A   1     -24.685   0.590  29.066  0.00  0.00    +0.003 A 
ATOM      6  C   UNL A   1     -25.810  -0.127  29.334  0.00  0.00    -0.004 A 
ENDROOT
BRANCH   2   7
ATOM      7  C   UNL A   1     -28.166   0.799  26.637  0.00  0.00    -0.000 A 
ATOM      8  C   UNL A   1     -28.063   0.893  25.404  0.00  0.00    -0.000 A 
ATOM      9  C   UNL A   1     -29.164   0.926  24.484  0.00  0.00    +0.000 A 
ATOM     10  C   UNL A   1     -30.414   0.752  24.977  0.00  0.00    +0.007 A 
ATOM     11  C   UNL A   1     -30.561   0.638  26.377  0.00  0.00    +0.080 A 
ATOM     12  C   UNL A   1     -29.480   0.636  27.223  0.00  0.00    +0.007 A 
BRANCH  11  13
ATOM     13  C   UNL A   1     -31.960   0.476  26.890  0.00  0.00    +0.388 C 
ATOM     14  O   UNL A   1     -32.243   0.773  28.020  0.00  0.00    -0.241 OA
ATOM     15  O   UNL A   1     -32.773  -0.126  26.136  0.00  0.00    -0.241 OA
ENDBRANCH  11  13
ENDBRANCH   2   7
BRANCH   4  16
ATOM     16  C   UNL A   1     -23.463   2.190  27.597  0.00  0.00    +0.173 C 
ATOM     17  C   UNL A   1     -22.358   1.502  27.312  0.00  0.00    +0.077 C 
ATOM     18  O   UNL A   1     -23.638   3.451  27.307  0.00  0.00    -0.291 OA
ENDBRANCH   4  16
BRANCH   1  19
ATOM     19  C   UNL A   1     -28.016  -0.814  28.878  0.00  0.00    +0.044 C 
BRANCH  19  20
ATOM     20  C   UNL A   1     -28.694  -0.473  30.159  0.00  0.00    +0.077 C 
BRANCH  20  21
ATOM     21  N   UNL A   1     -29.707  -1.292  30.630  0.00  0.00    -0.272 NA
ATOM     22  C   UNL A   1     -29.870  -1.667  31.736  0.00  0.00    +0.072 C 
ATOM     23  C   UNL A   1     -30.814  -2.688  32.061  0.00  0.00    +0.017 C 
ATOM     24  C   UNL A   1     -31.110  -3.486  31.270  0.00  0.00    +0.003 C 
ATOM     25  C   UNL A   1     -30.836  -3.294  29.843  0.00  0.00    +0.017 C 
ATOM     26  C   UNL A   1     -30.187  -2.134  29.602  0.00  0.00    +0.072 C 
ENDBRANCH  20  21
ENDBRANCH  19  20
ENDBRANCH   1  19
TORSDOF 6
