REMARK  Name = No_663-gen_results/8p0m/2024-11-26-14-13-15/
REMARK  7 active torsions:
REMARK  status: ('A' for Active; 'I' for Inactive)
REMARK    1  A    between atoms: C_3  and  N_6
REMARK    2  A    between atoms: N_4  and  C_9
REMARK    3  A    between atoms: N_6  and  C_20
REMARK    4  A    between atoms: C_9  and  C_10
REMARK    5  A    between atoms: C_12  and  C_16
REMARK    6  A    between atoms: N_28  and  C_29
REMARK    7  A    between atoms: C_29  and  C_30
REMARK                            x       y       z     vdW  Elec       q    Type
REMARK                         _______ _______ _______ _____ _____    ______ ____
ROOT
ATOM      1  O   UNL A   1     -28.123  -1.335  28.487  0.00  0.00    -0.273 OA
ATOM      2  C   UNL A   1     -28.521  -0.436  29.078  0.00  0.00    +0.244 C 
ATOM      3  C   UNL A   1     -29.698   0.051  28.976  0.00  0.00    +0.158 C 
ATOM      4  N   UNL A   1     -27.541   0.176  30.005  0.00  0.00    -0.274 N 
ATOM      5  C   UNL A   1     -27.889   1.266  30.818  0.00  0.00    +0.094 C 
ATOM      6  C   UNL A   1     -30.083   1.282  29.816  0.00  0.00    +0.031 C 
ATOM      7  C   UNL A   1     -29.383   1.763  30.451  0.00  0.00    +0.024 C 
ENDROOT
BRANCH   3   8
ATOM      8  N   UNL A   1     -30.529  -0.322  28.207  0.00  0.00    -0.235 N 
ATOM      9  C   UNL A   1     -31.404  -1.439  28.679  0.00  0.00    +0.328 C 
ATOM     10  O   UNL A   1     -32.221  -1.976  28.156  0.00  0.00    -0.250 OA
ATOM     11  N   UNL A   1     -31.355  -1.585  30.091  0.00  0.00    -0.183 NA
BRANCH   8  12
ATOM     12  C   UNL A   1     -30.740   0.083  26.950  0.00  0.00    +0.056 A 
ATOM     13  C   UNL A   1     -31.600  -0.664  26.081  0.00  0.00    +0.015 A 
ATOM     14  C   UNL A   1     -30.063   1.173  26.363  0.00  0.00    +0.015 A 
ATOM     15  C   UNL A   1     -30.233   1.523  25.036  0.00  0.00    +0.001 A 
ATOM     16  C   UNL A   1     -31.746  -0.329  24.715  0.00  0.00    +0.001 A 
ATOM     17  C   UNL A   1     -31.091   0.773  24.239  0.00  0.00    +0.000 A 
ENDBRANCH   8  12
BRANCH  11  18
ATOM     18  C   UNL A   1     -32.018  -2.644  30.790  0.00  0.00    +0.143 C 
BRANCH  18  19
ATOM     19  C   UNL A   1     -31.731  -3.094  31.645  0.00  0.00    -0.001 A 
ATOM     20  C   UNL A   1     -30.737  -2.954  32.181  0.00  0.00    -0.003 A 
ATOM     21  C   UNL A   1     -30.179  -3.565  33.464  0.00  0.00    -0.000 A 
ATOM     22  C   UNL A   1     -30.961  -4.527  33.902  0.00  0.00    -0.000 A 
ATOM     23  C   UNL A   1     -32.092  -4.941  33.342  0.00  0.00    -0.000 A 
ATOM     24  C   UNL A   1     -32.477  -4.263  32.205  0.00  0.00    -0.003 A 
ENDBRANCH  18  19
ENDBRANCH  11  18
ENDBRANCH   3   8
BRANCH   4  25
ATOM     25  C   UNL A   1     -26.234  -0.387  30.220  0.00  0.00    +0.120 C 
BRANCH  25  26
ATOM     26  C   UNL A   1     -25.188   0.589  30.324  0.00  0.00    -0.006 A 
ATOM     27  C   UNL A   1     -24.554   0.927  29.079  0.00  0.00    +0.004 A 
ATOM     28  C   UNL A   1     -23.393   1.573  29.129  0.00  0.00    +0.080 A 
ATOM     29  C   UNL A   1     -22.755   1.977  30.340  0.00  0.00    +0.006 A 
ATOM     30  C   UNL A   1     -23.548   1.787  31.515  0.00  0.00    -0.004 A 
ATOM     31  C   UNL A   1     -24.675   1.025  31.497  0.00  0.00    -0.024 A 
ATOM     32  C   UNL A   1     -25.362   0.774  32.799  0.00  0.00    +0.031 C 
BRANCH  28  33
ATOM     33  C   UNL A   1     -22.596   1.902  27.869  0.00  0.00    +0.388 C 
ATOM     34  O   UNL A   1     -21.371   1.789  27.879  0.00  0.00    -0.241 OA
ATOM     35  O   UNL A   1     -23.285   2.288  26.859  0.00  0.00    -0.241 OA
ENDBRANCH  28  33
ENDBRANCH  25  26
ENDBRANCH   4  25
TORSDOF 7
