REMARK  Name = No_665-gen_results/8p0m/2024-11-26-14-13-15/
REMARK  2 active torsions:
REMARK  status: ('A' for Active; 'I' for Inactive)
REMARK    1  A    between atoms: C_2  and  C_5
REMARK    2  A    between atoms: C_6  and  C_7
REMARK                            x       y       z     vdW  Elec       q    Type
REMARK                         _______ _______ _______ _____ _____    ______ ____
ROOT
ATOM      1  C   UNL A   1     -28.016  -0.814  28.878  0.00  0.00    +0.007 A 
ATOM      2  C   UNL A   1     -28.469  -0.785  29.829  0.00  0.00    +0.080 A 
ATOM      3  C   UNL A   1     -28.182   0.428  28.113  0.00  0.00    +0.000 A 
ATOM      4  C   UNL A   1     -28.984   1.415  28.515  0.00  0.00    +0.000 A 
ATOM      5  C   UNL A   1     -29.561   1.293  29.742  0.00  0.00    +0.000 A 
ATOM      6  C   UNL A   1     -29.236   0.121  30.433  0.00  0.00    +0.007 A 
ENDROOT
BRANCH   5   7
ATOM      7  C   UNL A   1     -30.370   2.294  30.281  0.00  0.00    +0.000 A 
ATOM      8  C   UNL A   1     -31.205   2.849  29.736  0.00  0.00    +0.000 A 
ATOM      9  C   UNL A   1     -32.059   3.700  30.025  0.00  0.00    +0.000 A 
ATOM     10  C   UNL A   1     -32.042   4.074  31.479  0.00  0.00    +0.000 A 
ATOM     11  C   UNL A   1     -31.122   3.450  32.266  0.00  0.00    +0.000 A 
ATOM     12  C   UNL A   1     -30.278   2.532  31.743  0.00  0.00    +0.000 A 
ENDBRANCH   5   7
BRANCH   2  13
ATOM     13  C   UNL A   1     -28.337  -2.048  30.787  0.00  0.00    +0.388 C 
ATOM     14  O   UNL A   1     -27.657  -2.058  31.653  0.00  0.00    -0.241 OA
ATOM     15  O   UNL A   1     -28.943  -3.170  30.343  0.00  0.00    -0.241 OA
ENDBRANCH   2  13
TORSDOF 2
