MODEL 666
MODEL 1
REMARK VINA RESULT:    -4.435      0.000      0.000
REMARK INTER + INTRA:          -4.435
REMARK INTER:                  -4.435
REMARK INTRA:                   0.000
REMARK UNBOUND:                 0.000
REMARK  Name = No_666-gen_results/8p0m/2024-11-26-14-13-15/
REMARK  0 active torsions:
REMARK  status: ('A' for Active; 'I' for Inactive)
REMARK                            x       y       z     vdW  Elec       q    Type
REMARK                         _______ _______ _______ _____ _____    ______ ____
ROOT
ATOM      1  C   UNL A   1      -9.165  -9.221  20.019  0.00  0.00    +0.011 A 
ATOM      2  C   UNL A   1      -8.326  -9.800  19.755  0.00  0.00    +0.058 A 
ATOM      3  C   UNL A   1     -10.304  -9.235  19.024  0.00  0.00    +0.001 A 
ATOM      4  C   UNL A   1     -10.240 -10.103  17.914  0.00  0.00    +0.000 A 
ATOM      5  C   UNL A   1      -8.024 -10.797  18.703  0.00  0.00    +0.011 A 
ATOM      6  C   UNL A   1      -9.051 -10.842  17.772  0.00  0.00    +0.001 A 
ATOM      7 CL   UNL A   1      -6.953  -9.793  20.959  0.00  0.00    -0.082 Cl
ENDROOT
TORSDOF 0
ENDMDL
ENDMDL
