REMARK  Name = No_667-gen_results/8p0m/2024-11-26-14-13-15/
REMARK  8 active torsions:
REMARK  status: ('A' for Active; 'I' for Inactive)
REMARK    1  A    between atoms: N_1  and  C_2
REMARK    2  A    between atoms: N_1  and  C_8
REMARK    3  A    between atoms: C_3  and  C_18
REMARK    4  A    between atoms: C_5  and  C_14
REMARK    5  A    between atoms: C_10  and  C_22
REMARK    6  A    between atoms: C_22  and  O_24
REMARK    7  A    between atoms: O_24  and  C_25
REMARK    8  A    between atoms: C_25  and  C_26
REMARK                            x       y       z     vdW  Elec       q    Type
REMARK                         _______ _______ _______ _____ _____    ______ ____
ROOT
ATOM      1  C   UNL A   1     -28.987  -0.629  29.700  0.00  0.00    +0.071 A 
ATOM      2  C   UNL A   1     -29.976  -0.743  29.833  0.00  0.00    +0.023 A 
ATOM      3  C   UNL A   1     -30.844  -0.290  30.944  0.00  0.00    +0.077 A 
ATOM      4  C   UNL A   1     -30.216   0.416  31.952  0.00  0.00    +0.006 A 
ATOM      5  C   UNL A   1     -28.249   0.091  30.800  0.00  0.00    +0.017 A 
ATOM      6  C   UNL A   1     -28.928   0.533  31.899  0.00  0.00    +0.002 A 
ENDROOT
BRANCH   3   7
ATOM      7  C   UNL A   1     -32.340  -0.539  30.945  0.00  0.00    +0.342 C 
ATOM      8  O   UNL A   1     -32.900  -1.143  30.308  0.00  0.00    -0.245 OA
BRANCH   7   9
ATOM      9  O   UNL A   1     -33.041   0.332  31.796  0.00  0.00    -0.440 OA
BRANCH   9  10
ATOM     10  C   UNL A   1     -34.300   0.223  31.974  0.00  0.00    +0.235 C 
BRANCH  10  11
ATOM     11  C   UNL A   1     -34.779  -0.531  33.009  0.00  0.00    +0.021 A 
ATOM     12  C   UNL A   1     -36.017  -0.873  33.129  0.00  0.00    -0.001 A 
ATOM     13  C   UNL A   1     -36.512  -1.710  34.196  0.00  0.00    -0.000 A 
ATOM     14  C   UNL A   1     -35.555  -2.180  35.149  0.00  0.00    -0.000 A 
ATOM     15  C   UNL A   1     -34.220  -1.834  35.007  0.00  0.00    -0.000 A 
ATOM     16  C   UNL A   1     -33.796  -1.032  33.996  0.00  0.00    -0.001 A 
ENDBRANCH  10  11
ENDBRANCH   9  10
ENDBRANCH   7   9
ENDBRANCH   3   7
BRANCH   1  17
ATOM     17  N   UNL A   1     -28.054  -1.050  28.725  0.00  0.00    -0.210 NA
BRANCH  17  18
ATOM     18  C   UNL A   1     -26.966  -0.472  28.771  0.00  0.00    +0.102 A 
ATOM     19  C   UNL A   1     -25.929  -1.020  29.506  0.00  0.00    +0.089 A 
ATOM     20  C   UNL A   1     -24.584  -0.444  29.660  0.00  0.00    +0.012 A 
ATOM     21  C   UNL A   1     -24.361   0.779  28.969  0.00  0.00    +0.082 A 
ATOM     22  C   UNL A   1     -25.424   1.303  28.183  0.00  0.00    +0.037 A 
ATOM     23  C   UNL A   1     -26.640   0.711  28.078  0.00  0.00    +0.155 A 
ATOM     24  F   UNL A   1     -27.608   1.315  27.445  0.00  0.00    -0.203 F 
BRANCH  19  25
ATOM     25  C   UNL A   1     -26.026  -2.259  30.363  0.00  0.00    +0.420 C 
ATOM     26  F   UNL A   1     -26.777  -3.103  29.659  0.00  0.00    -0.166 F 
ATOM     27  F   UNL A   1     -26.699  -1.959  31.494  0.00  0.00    -0.166 F 
ATOM     28  F   UNL A   1     -24.868  -2.731  30.600  0.00  0.00    -0.166 F 
ENDBRANCH  19  25
BRANCH  21  29
ATOM     29  C   UNL A   1     -23.024   1.320  29.033  0.00  0.00    +0.388 C 
ATOM     30  O   UNL A   1     -22.179   0.935  28.262  0.00  0.00    -0.241 OA
ATOM     31  O   UNL A   1     -22.939   2.589  29.524  0.00  0.00    -0.241 OA
ENDBRANCH  21  29
ENDBRANCH  17  18
ENDBRANCH   1  17
TORSDOF 8
