MODEL 668
MODEL 1
REMARK VINA RESULT:    -6.614      0.000      0.000
REMARK INTER + INTRA:          -8.177
REMARK INTER:                  -7.774
REMARK INTRA:                  -0.404
REMARK UNBOUND:                -0.404
REMARK  Name = No_668-gen_results/8p0m/2024-11-26-14-13-15/
REMARK  3 active torsions:
REMARK  status: ('A' for Active; 'I' for Inactive)
REMARK    1  A    between atoms: C_2  and  O_7
REMARK    2  A    between atoms: O_7  and  C_8
REMARK    3  A    between atoms: C_8  and  C_9
REMARK                            x       y       z     vdW  Elec       q    Type
REMARK                         _______ _______ _______ _____ _____    ______ ____
ROOT
ATOM      1  O   UNL A   1     -25.001  -1.247  29.138  0.00  0.00    -0.471 OA
ENDROOT
BRANCH   1   3
ATOM      2  C   UNL A   1     -26.044  -3.051  29.660  0.00  0.00    +0.037 A 
ATOM      3  C   UNL A   1     -25.180  -2.707  29.166  0.00  0.00    +0.139 A 
ATOM      4  C   UNL A   1     -26.223  -4.553  29.685  0.00  0.00    +0.003 A 
ATOM      5  C   UNL A   1     -25.191  -5.380  29.195  0.00  0.00    +0.000 A 
ATOM      6  C   UNL A   1     -23.960  -3.339  28.615  0.00  0.00    +0.037 A 
ATOM      7  C   UNL A   1     -24.085  -4.721  28.627  0.00  0.00    +0.003 A 
ENDBRANCH   1   3
BRANCH   1   8
ATOM      8  C   UNL A   1     -23.815  -0.817  28.898  0.00  0.00    +0.232 C 
BRANCH   8   9
ATOM      9  C   UNL A   1     -23.511   0.210  28.142  0.00  0.00    +0.021 A 
ATOM     10  C   UNL A   1     -24.397   0.401  27.004  0.00  0.00    -0.001 A 
ATOM     11  C   UNL A   1     -24.078   1.394  25.983  0.00  0.00    -0.000 A 
ATOM     12  C   UNL A   1     -22.841   2.110  26.135  0.00  0.00    -0.000 A 
ATOM     13  C   UNL A   1     -21.992   1.885  27.197  0.00  0.00    -0.000 A 
ATOM     14  C   UNL A   1     -22.296   0.888  28.175  0.00  0.00    -0.001 A 
ENDBRANCH   8   9
ENDBRANCH   1   8
TORSDOF 3
ENDMDL
ENDMDL
