MODEL 66
MODEL 1
REMARK VINA RESULT:    -7.925      0.000      0.000
REMARK INTER + INTRA:          -9.745
REMARK INTER:                  -8.851
REMARK INTRA:                  -0.894
REMARK UNBOUND:                -0.894
REMARK  Name = No_66-gen_results/8p0m/2024-11-26-14-13-15/
REMARK  2 active torsions:
REMARK  status: ('A' for Active; 'I' for Inactive)
REMARK    1  A    between atoms: C_3  and  C_14
REMARK    2  A    between atoms: C_5  and  C_11
REMARK                            x       y       z     vdW  Elec       q    Type
REMARK                         _______ _______ _______ _____ _____    ______ ____
ROOT
ATOM      1  C   UNL A   1     -24.107  -3.206  28.660  0.00  0.00    +0.000 A 
ATOM      2  C   UNL A   1     -25.153  -2.849  29.151  0.00  0.00    +0.001 A 
ATOM      3  C   UNL A   1     -25.518  -1.533  29.382  0.00  0.00    +0.018 A 
ATOM      4  C   UNL A   1     -26.721  -1.083  30.039  0.00  0.00    +0.007 A 
ATOM      5  C   UNL A   1     -27.643  -2.053  30.500  0.00  0.00    +0.068 A 
ATOM      6  C   UNL A   1     -27.331  -3.421  30.292  0.00  0.00    +0.006 A 
ATOM      7  C   UNL A   1     -26.156  -3.747  29.687  0.00  0.00    +0.000 A 
ATOM      8  C   UNL A   1     -23.886  -4.653  28.344  0.00  0.00    +0.000 A 
ATOM      9  C   UNL A   1     -24.738  -5.617  28.958  0.00  0.00    +0.000 A 
ATOM     10  C   UNL A   1     -25.896  -5.199  29.531  0.00  0.00    +0.000 A 
ENDROOT
BRANCH   3  11
ATOM     11  C   UNL A   1     -24.601  -0.421  29.022  0.00  0.00    +0.077 A 
ATOM     12  N   UNL A   1     -23.864   0.159  29.801  0.00  0.00    -0.244 NA
ATOM     13  C   UNL A   1     -24.544   0.010  27.657  0.00  0.00    +0.002 A 
ATOM     14  C   UNL A   1     -23.701   1.016  27.365  0.00  0.00    +0.054 A 
ATOM     15  C   UNL A   1     -23.031   1.134  29.653  0.00  0.00    +0.099 A 
ATOM     16  C   UNL A   1     -23.563   1.476  26.000  0.00  0.00    +0.265 C 
ATOM     17  C   UNL A   1     -22.951   1.561  28.382  0.00  0.00    +0.025 A 
ATOM     18  N   UNL A   1     -24.394   1.103  25.110  0.00  0.00    -0.201 NA
ATOM     19  O   UNL A   1     -22.616   2.194  25.715  0.00  0.00    -0.268 OA
ATOM     20  C   UNL A   1     -25.596   0.384  25.190  0.00  0.00    +0.120 C 
ATOM     21  C   UNL A   1     -25.711  -0.237  26.534  0.00  0.00    +0.051 C 
ENDBRANCH   3  11
BRANCH   5  22
ATOM     22  C   UNL A   1     -28.910  -1.645  31.148  0.00  0.00    +0.333 C 
ATOM     23  O   UNL A   1     -29.972  -1.885  30.647  0.00  0.00    -0.254 OA
ATOM     24  F   UNL A   1     -28.919  -1.540  32.436  0.00  0.00    -0.159 F 
ENDBRANCH   5  22
TORSDOF 2
ENDMDL
ENDMDL
