REMARK  Name = No_670-gen_results/8p0m/2024-11-26-14-13-15/
REMARK  9 active torsions:
REMARK  status: ('A' for Active; 'I' for Inactive)
REMARK    1  A    between atoms: C_3  and  C_4
REMARK    2  A    between atoms: C_6  and  O_14
REMARK    3  A    between atoms: O_14  and  C_15
REMARK    4  A    between atoms: C_15  and  C_16
REMARK    5  A    between atoms: C_19  and  C_20
REMARK    6  A    between atoms: C_20  and  O_24
REMARK    7  A    between atoms: O_24  and  C_25
REMARK    8  A    between atoms: C_27  and  N_31
REMARK    9  A    between atoms: N_31  and  C_32
REMARK                            x       y       z     vdW  Elec       q    Type
REMARK                         _______ _______ _______ _____ _____    ______ ____
ROOT
ATOM      1  C   UNL A   1     -25.537   4.341  27.293  0.00  0.00    +0.103 A 
ATOM      2  N   UNL A   1     -26.740   4.768  27.336  0.00  0.00    -0.244 NA
ATOM      3  C   UNL A   1     -27.311   5.380  28.398  0.00  0.00    +0.105 A 
ATOM      4  C   UNL A   1     -27.054   5.176  29.478  0.00  0.00    +0.095 A 
ATOM      5  C   UNL A   1     -25.847   4.401  29.735  0.00  0.00    +0.009 A 
ATOM      6  C   UNL A   1     -25.116   3.952  28.665  0.00  0.00    +0.019 A 
ENDROOT
BRANCH   4   7
ATOM      7  C   UNL A   1     -27.659   5.739  30.691  0.00  0.00    +0.347 C 
ATOM      8  O   UNL A   1     -28.672   5.686  30.987  0.00  0.00    -0.244 OA
BRANCH   7   9
ATOM      9  O   UNL A   1     -26.764   6.406  31.532  0.00  0.00    -0.421 OA
BRANCH   9  10
ATOM     10  C   UNL A   1     -26.070   7.170  31.502  0.00  0.00    +0.150 A 
ATOM     11  C   UNL A   1     -24.812   7.030  32.021  0.00  0.00    +0.052 A 
ATOM     12  C   UNL A   1     -23.717   7.996  31.853  0.00  0.00    +0.055 A 
ATOM     13  C   UNL A   1     -23.986   9.115  31.026  0.00  0.00    +0.015 A 
ATOM     14  C   UNL A   1     -26.238   8.331  30.623  0.00  0.00    +0.038 A 
ATOM     15  C   UNL A   1     -25.217   9.286  30.446  0.00  0.00    +0.004 A 
BRANCH  12  16
ATOM     16  N   UNL A   1     -22.517   7.859  32.493  0.00  0.00    -0.284 N 
ATOM     17  C   UNL A   1     -22.233   6.710  33.274  0.00  0.00    +0.117 C 
BRANCH  16  18
ATOM     18  C   UNL A   1     -21.468   8.706  32.345  0.00  0.00    +0.061 C 
ATOM     19  C   UNL A   1     -20.306   8.500  33.156  0.00  0.00    -0.010 C 
ATOM     20  C   UNL A   1     -19.278   9.537  33.007  0.00  0.00    +0.032 C 
ENDBRANCH  16  18
ENDBRANCH  12  16
ENDBRANCH   9  10
ENDBRANCH   7   9
ENDBRANCH   4   7
BRANCH   1  21
ATOM     21  C   UNL A   1     -25.003   3.730  26.393  0.00  0.00    +0.251 C 
BRANCH  21  22
ATOM     22  O   UNL A   1     -23.655   3.194  26.577  0.00  0.00    -0.469 OA
BRANCH  22  25
ATOM     23  C   UNL A   1     -24.552   0.406  28.765  0.00  0.00    +0.003 A 
ATOM     24  C   UNL A   1     -24.696   1.448  27.799  0.00  0.00    +0.037 A 
ATOM     25  C   UNL A   1     -23.582   2.217  27.463  0.00  0.00    +0.139 A 
ATOM     26  C   UNL A   1     -22.321   1.824  27.981  0.00  0.00    +0.037 A 
ATOM     27  C   UNL A   1     -22.178   0.817  28.888  0.00  0.00    +0.003 A 
ATOM     28  C   UNL A   1     -23.318   0.042  29.260  0.00  0.00    +0.000 A 
BRANCH  23  31
ATOM     29  C   UNL A   1     -28.016  -0.814  28.878  0.00  0.00    +0.011 A 
ATOM     30  C   UNL A   1     -27.064  -0.119  28.608  0.00  0.00    +0.001 A 
ATOM     31  C   UNL A   1     -25.765  -0.390  29.036  0.00  0.00    +0.000 A 
ATOM     32  C   UNL A   1     -27.897  -1.895  29.859  0.00  0.00    +0.058 A 
ATOM     33  C   UNL A   1     -26.653  -2.340  30.273  0.00  0.00    +0.011 A 
ATOM     34  C   UNL A   1     -25.533  -1.557  29.909  0.00  0.00    +0.001 A 
ATOM     35 CL   UNL A   1     -29.251  -2.845  30.283  0.00  0.00    -0.082 Cl
ENDBRANCH  23  31
ENDBRANCH  22  25
ENDBRANCH  21  22
ENDBRANCH   1  21
TORSDOF 9
