MODEL 670
MODEL 1
REMARK VINA RESULT:    -8.013      0.000      0.000
REMARK INTER + INTRA:         -13.493
REMARK INTER:                 -12.229
REMARK INTRA:                  -1.264
REMARK UNBOUND:                -1.264
REMARK  Name = No_670-gen_results/8p0m/2024-11-26-14-13-15/
REMARK  9 active torsions:
REMARK  status: ('A' for Active; 'I' for Inactive)
REMARK    1  A    between atoms: C_3  and  C_4
REMARK    2  A    between atoms: C_6  and  O_14
REMARK    3  A    between atoms: O_14  and  C_15
REMARK    4  A    between atoms: C_15  and  C_16
REMARK    5  A    between atoms: C_19  and  C_20
REMARK    6  A    between atoms: C_20  and  O_24
REMARK    7  A    between atoms: O_24  and  C_25
REMARK    8  A    between atoms: C_27  and  N_31
REMARK    9  A    between atoms: N_31  and  C_32
REMARK                            x       y       z     vdW  Elec       q    Type
REMARK                         _______ _______ _______ _____ _____    ______ ____
ROOT
ATOM      1  C   UNL A   1     -29.831   1.591  23.910  0.00  0.00    +0.103 A 
ATOM      2  N   UNL A   1     -29.204   0.578  23.447  0.00  0.00    -0.244 NA
ATOM      3  C   UNL A   1     -28.022   0.116  23.913  0.00  0.00    +0.105 A 
ATOM      4  C   UNL A   1     -27.211   0.755  24.369  0.00  0.00    +0.095 A 
ATOM      5  C   UNL A   1     -27.569   2.123  24.722  0.00  0.00    +0.009 A 
ATOM      6  C   UNL A   1     -28.844   2.555  24.463  0.00  0.00    +0.019 A 
ENDROOT
BRANCH   4   7
ATOM      7  C   UNL A   1     -25.879   0.357  24.840  0.00  0.00    +0.347 C 
ATOM      8  O   UNL A   1     -25.282  -0.437  24.479  0.00  0.00    -0.244 OA
BRANCH   7   9
ATOM      9  O   UNL A   1     -25.370   1.143  25.877  0.00  0.00    -0.421 OA
BRANCH   9  10
ATOM     10  C   UNL A   1     -24.606   1.136  26.573  0.00  0.00    +0.150 A 
ATOM     11  C   UNL A   1     -24.540   0.203  27.570  0.00  0.00    +0.052 A 
ATOM     12  C   UNL A   1     -23.398   0.015  28.476  0.00  0.00    +0.055 A 
ATOM     13  C   UNL A   1     -22.261   0.826  28.233  0.00  0.00    +0.015 A 
ATOM     14  C   UNL A   1     -23.368   1.893  26.366  0.00  0.00    +0.038 A 
ATOM     15  C   UNL A   1     -22.256   1.751  27.220  0.00  0.00    +0.004 A 
BRANCH  12  16
ATOM     16  N   UNL A   1     -23.436  -0.855  29.530  0.00  0.00    -0.284 N 
ATOM     17  C   UNL A   1     -22.662  -0.624  30.696  0.00  0.00    +0.117 C 
BRANCH  16  18
ATOM     18  C   UNL A   1     -24.281  -1.911  29.621  0.00  0.00    +0.061 C 
ATOM     19  C   UNL A   1     -23.883  -3.156  29.035  0.00  0.00    -0.010 C 
ATOM     20  C   UNL A   1     -24.914  -4.199  29.083  0.00  0.00    +0.032 C 
ENDBRANCH  16  18
ENDBRANCH  12  16
ENDBRANCH   9  10
ENDBRANCH   7   9
ENDBRANCH   4   7
BRANCH   1  21
ATOM     21  C   UNL A   1     -30.855   2.081  23.486  0.00  0.00    +0.251 C 
BRANCH  21  22
ATOM     22  O   UNL A   1     -30.894   2.625  22.130  0.00  0.00    -0.469 OA
BRANCH  22  25
ATOM     23  C   UNL A   1     -33.530   2.587  19.597  0.00  0.00    +0.003 A 
ATOM     24  C   UNL A   1     -32.334   2.970  20.277  0.00  0.00    +0.037 A 
ATOM     25  C   UNL A   1     -31.988   2.313  21.458  0.00  0.00    +0.139 A 
ATOM     26  C   UNL A   1     -32.760   1.187  21.844  0.00  0.00    +0.037 A 
ATOM     27  C   UNL A   1     -33.891   0.807  21.185  0.00  0.00    +0.003 A 
ATOM     28  C   UNL A   1     -34.269   1.492  19.991  0.00  0.00    +0.000 A 
BRANCH  23  31
ATOM     29  C   UNL A   1     -34.009   3.416  16.049  0.00  0.00    +0.011 A 
ATOM     30  C   UNL A   1     -33.780   2.767  17.044  0.00  0.00    +0.001 A 
ATOM     31  C   UNL A   1     -33.806   3.298  18.333  0.00  0.00    +0.000 A 
ATOM     32  C   UNL A   1     -34.130   4.873  16.119  0.00  0.00    +0.058 A 
ATOM     33  C   UNL A   1     -34.286   5.512  17.338  0.00  0.00    +0.011 A 
ATOM     34  C   UNL A   1     -34.075   4.739  18.504  0.00  0.00    +0.001 A 
ATOM     35 CL   UNL A   1     -34.400   5.798  14.709  0.00  0.00    -0.082 Cl
ENDBRANCH  23  31
ENDBRANCH  22  25
ENDBRANCH  21  22
ENDBRANCH   1  21
TORSDOF 9
ENDMDL
ENDMDL
