REMARK  Name = No_671-gen_results/8p0m/2024-11-26-14-13-15/
REMARK  1 active torsions:
REMARK  status: ('A' for Active; 'I' for Inactive)
REMARK    1  A    between atoms: C_2  and  C_8
REMARK                            x       y       z     vdW  Elec       q    Type
REMARK                         _______ _______ _______ _____ _____    ______ ____
ROOT
ATOM      1  C   UNL A   1     -28.016  -0.814  28.878  0.00  0.00    +0.009 A 
ATOM      2  C   UNL A   1     -28.469  -0.785  29.829  0.00  0.00    +0.080 A 
ATOM      3  C   UNL A   1     -26.504  -0.778  28.877  0.00  0.00    +0.030 A 
ATOM      4  C   UNL A   1     -25.810  -0.853  30.103  0.00  0.00    +0.140 A 
ATOM      5  C   UNL A   1     -27.991  -0.892  31.226  0.00  0.00    +0.009 A 
ATOM      6  C   UNL A   1     -26.604  -0.868  31.265  0.00  0.00    +0.030 A 
ATOM      7  F   UNL A   1     -24.553  -0.787  30.141  0.00  0.00    -0.204 F 
ENDROOT
BRANCH   2   8
ATOM      8  C   UNL A   1     -30.095  -0.841  29.850  0.00  0.00    +0.388 C 
ATOM      9  O   UNL A   1     -30.739  -1.668  30.174  0.00  0.00    -0.241 OA
ATOM     10  O   UNL A   1     -30.616   0.248  29.307  0.00  0.00    -0.241 OA
ENDBRANCH   2   8
TORSDOF 1
