MODEL 671
MODEL 1
REMARK VINA RESULT:    -5.106      0.000      0.000
REMARK INTER + INTRA:          -5.447
REMARK INTER:                  -5.404
REMARK INTRA:                  -0.043
REMARK UNBOUND:                -0.043
REMARK  Name = No_671-gen_results/8p0m/2024-11-26-14-13-15/
REMARK  1 active torsions:
REMARK  status: ('A' for Active; 'I' for Inactive)
REMARK    1  A    between atoms: C_2  and  C_8
REMARK                            x       y       z     vdW  Elec       q    Type
REMARK                         _______ _______ _______ _____ _____    ______ ____
ROOT
ATOM      1  C   UNL A   1     -28.882 -10.504  32.771  0.00  0.00    +0.009 A 
ATOM      2  C   UNL A   1     -28.178 -11.244  32.512  0.00  0.00    +0.080 A 
ATOM      3  C   UNL A   1     -29.759 -10.016  31.639  0.00  0.00    +0.030 A 
ATOM      4  C   UNL A   1     -29.688 -10.658  30.385  0.00  0.00    +0.140 A 
ATOM      5  C   UNL A   1     -27.926 -12.085  31.321  0.00  0.00    +0.009 A 
ATOM      6  C   UNL A   1     -28.718 -11.670  30.260  0.00  0.00    +0.030 A 
ATOM      7  F   UNL A   1     -30.375 -10.253  29.410  0.00  0.00    -0.204 F 
ENDROOT
BRANCH   2   8
ATOM      8  C   UNL A   1     -27.239 -11.794  33.722  0.00  0.00    +0.388 C 
ATOM      9  O   UNL A   1     -26.796 -12.791  33.835  0.00  0.00    -0.241 OA
ATOM     10  O   UNL A   1     -27.126 -10.892  34.684  0.00  0.00    -0.241 OA
ENDBRANCH   2   8
TORSDOF 1
ENDMDL
ENDMDL
