MODEL 672
MODEL 1
REMARK VINA RESULT:    -7.037      0.000      0.000
REMARK INTER + INTRA:         -13.628
REMARK INTER:                 -11.151
REMARK INTRA:                  -2.478
REMARK UNBOUND:                -2.478
REMARK  Name = No_672-gen_results/8p0m/2024-11-26-14-13-15/
REMARK  10 active torsions:
REMARK  status: ('A' for Active; 'I' for Inactive)
REMARK    1  A    between atoms: C_2  and  C_11
REMARK    2  A    between atoms: C_4  and  C_7
REMARK    3  A    between atoms: C_7  and  O_9
REMARK    4  A    between atoms: O_9  and  C_10
REMARK    5  A    between atoms: C_10  and  C_14
REMARK    6  A    between atoms: C_16  and  C_19
REMARK    7  A    between atoms: C_17  and  O_29
REMARK    8  A    between atoms: C_19  and  O_22
REMARK    9  A    between atoms: O_22  and  C_23
REMARK   10  A    between atoms: O_29  and  C_30
REMARK                            x       y       z     vdW  Elec       q    Type
REMARK                         _______ _______ _______ _____ _____    ______ ____
ROOT
ATOM      1  C   UNL A   1     -22.915   1.285  29.020  0.00  0.00    +0.286 C 
ATOM      2  O   UNL A   1     -22.903   0.520  30.025  0.00  0.00    -0.311 OA
ATOM      3  C   UNL A   1     -23.627   0.699  31.178  0.00  0.00    +0.316 C 
ATOM      4  C   UNL A   1     -24.481   1.620  31.042  0.00  0.00    +0.413 C 
ATOM      5  O   UNL A   1     -24.231   2.252  29.857  0.00  0.00    -0.268 OA
ATOM      6  F   UNL A   1     -24.343   2.613  31.917  0.00  0.00    -0.164 F 
ENDROOT
BRANCH   3   7
ATOM      7  C   UNL A   1     -24.186  -0.786  31.575  0.00  0.00    +0.359 C 
ATOM      8  O   UNL A   1     -24.986  -0.792  32.396  0.00  0.00    -0.247 OA
BRANCH   7   9
ATOM      9  O   UNL A   1     -23.626  -1.826  31.077  0.00  0.00    -0.422 OA
BRANCH   9  10
ATOM     10  C   UNL A   1     -24.343  -2.550  30.085  0.00  0.00    +0.148 A 
ATOM     11  C   UNL A   1     -25.707  -2.600  30.378  0.00  0.00    +0.038 A 
ATOM     12  C   UNL A   1     -26.345  -3.771  29.917  0.00  0.00    +0.003 A 
ATOM     13  C   UNL A   1     -25.663  -4.641  29.065  0.00  0.00    +0.000 A 
ATOM     14  C   UNL A   1     -24.282  -4.507  28.899  0.00  0.00    +0.003 A 
ATOM     15  C   UNL A   1     -23.825  -2.854  28.902  0.00  0.00    +0.038 A 
ENDBRANCH   9  10
ENDBRANCH   7   9
ENDBRANCH   3   7
BRANCH   1  16
ATOM     16  C   UNL A   1     -23.078   0.587  27.758  0.00  0.00    +0.270 C 
BRANCH  16  17
ATOM     17  O   UNL A   1     -22.648   1.225  26.713  0.00  0.00    -0.440 OA
BRANCH  17  18
ATOM     18  C   UNL A   1     -23.390   2.036  25.947  0.00  0.00    +0.341 C 
ATOM     19  O   UNL A   1     -22.992   2.808  25.364  0.00  0.00    -0.245 OA
BRANCH  18  23
ATOM     20  C   UNL A   1     -26.301  -0.146  24.712  0.00  0.00    +0.007 A 
ATOM     21  C   UNL A   1     -27.074   0.543  24.907  0.00  0.00    +0.080 A 
ATOM     22  C   UNL A   1     -24.929   0.305  24.997  0.00  0.00    +0.007 A 
ATOM     23  C   UNL A   1     -24.697   1.557  25.638  0.00  0.00    +0.076 A 
ATOM     24  C   UNL A   1     -27.108   1.855  25.609  0.00  0.00    +0.007 A 
ATOM     25  C   UNL A   1     -25.853   2.311  25.882  0.00  0.00    +0.007 A 
BRANCH  21  26
ATOM     26  C   UNL A   1     -28.585   0.074  24.548  0.00  0.00    +0.388 C 
ATOM     27  O   UNL A   1     -29.540   0.671  25.085  0.00  0.00    -0.241 OA
ATOM     28  O   UNL A   1     -28.688  -0.564  23.466  0.00  0.00    -0.241 OA
ENDBRANCH  21  26
ENDBRANCH  18  23
ENDBRANCH  17  18
ENDBRANCH  16  17
ENDBRANCH   1  16
BRANCH   4  29
ATOM     29  O   UNL A   1     -25.873   1.373  30.914  0.00  0.00    -0.431 OA
BRANCH  29  30
ATOM     30  C   UNL A   1     -26.616   1.436  29.824  0.00  0.00    +0.144 A 
ATOM     31  C   UNL A   1     -26.801   0.279  29.199  0.00  0.00    +0.037 A 
ATOM     32  C   UNL A   1     -27.992   0.004  28.448  0.00  0.00    +0.003 A 
ATOM     33  C   UNL A   1     -29.022   0.937  28.597  0.00  0.00    +0.000 A 
ATOM     34  C   UNL A   1     -28.765   2.238  29.143  0.00  0.00    +0.003 A 
ATOM     35  C   UNL A   1     -27.626   2.450  29.772  0.00  0.00    +0.037 A 
ENDBRANCH  29  30
ENDBRANCH   4  29
TORSDOF 10
ENDMDL
ENDMDL
