REMARK  Name = No_673-gen_results/8p0m/2024-11-26-14-13-15/
REMARK  3 active torsions:
REMARK  status: ('A' for Active; 'I' for Inactive)
REMARK    1  A    between atoms: C_7  and  C_8
REMARK    2  A    between atoms: C_9  and  C_10
REMARK    3  A    between atoms: C_11  and  C_12
REMARK                            x       y       z     vdW  Elec       q    Type
REMARK                         _______ _______ _______ _____ _____    ______ ____
ROOT
ATOM      1  C   UNL A   1     -28.016  -0.814  28.878  0.00  0.00    +0.030 A 
ATOM      2  C   UNL A   1     -27.064  -0.119  28.608  0.00  0.00    +0.140 A 
ATOM      3  F   UNL A   1     -25.884  -0.525  28.784  0.00  0.00    -0.204 F 
ATOM      4  C   UNL A   1     -27.101   1.156  27.891  0.00  0.00    +0.030 A 
ATOM      5  C   UNL A   1     -29.345  -0.195  28.797  0.00  0.00    +0.002 A 
ATOM      6  C   UNL A   1     -28.375   1.688  27.689  0.00  0.00    +0.002 A 
ATOM      7  C   UNL A   1     -29.469   0.986  28.127  0.00  0.00    +0.000 A 
ENDROOT
BRANCH   7   8
ATOM      8  C   UNL A   1     -30.804   1.562  27.902  0.00  0.00    +0.000 C 
ATOM      9  C   UNL A   1     -31.706   1.445  28.761  0.00  0.00    +0.000 C 
BRANCH   9  10
ATOM     10  C   UNL A   1     -32.692   1.754  29.040  0.00  0.00    +0.000 C 
ATOM     11  C   UNL A   1     -33.621   1.360  30.150  0.00  0.00    +0.000 C 
BRANCH  11  12
ATOM     12  C   UNL A   1     -33.061   0.376  30.957  0.00  0.00    +0.000 C 
ATOM     13  C   UNL A   1     -31.886  -0.161  30.751  0.00  0.00    +0.000 C 
ENDBRANCH  11  12
ENDBRANCH   9  10
ENDBRANCH   7   8
TORSDOF 3
