MODEL 673
MODEL 1
REMARK VINA RESULT:    -5.875      0.000      0.000
REMARK INTER + INTRA:          -7.411
REMARK INTER:                  -6.905
REMARK INTRA:                  -0.505
REMARK UNBOUND:                -0.505
REMARK  Name = No_673-gen_results/8p0m/2024-11-26-14-13-15/
REMARK  3 active torsions:
REMARK  status: ('A' for Active; 'I' for Inactive)
REMARK    1  A    between atoms: C_7  and  C_8
REMARK    2  A    between atoms: C_9  and  C_10
REMARK    3  A    between atoms: C_11  and  C_12
REMARK                            x       y       z     vdW  Elec       q    Type
REMARK                         _______ _______ _______ _____ _____    ______ ____
ROOT
ATOM      1  C   UNL A   1     -25.347  -4.840  29.302  0.00  0.00    +0.030 A 
ATOM      2  C   UNL A   1     -26.344  -4.268  29.679  0.00  0.00    +0.140 A 
ATOM      3  F   UNL A   1     -27.401  -4.900  29.948  0.00  0.00    -0.204 F 
ATOM      4  C   UNL A   1     -26.440  -2.858  30.058  0.00  0.00    +0.030 A 
ATOM      5  C   UNL A   1     -24.223  -4.007  28.855  0.00  0.00    +0.002 A 
ATOM      6  C   UNL A   1     -25.318  -2.084  29.759  0.00  0.00    +0.002 A 
ATOM      7  C   UNL A   1     -24.226  -2.684  29.185  0.00  0.00    +0.000 A 
ENDROOT
BRANCH   7   8
ATOM      8  C   UNL A   1     -23.052  -1.852  28.880  0.00  0.00    +0.000 C 
ATOM      9  C   UNL A   1     -23.117  -0.604  28.941  0.00  0.00    +0.000 C 
BRANCH   9  10
ATOM     10  C   UNL A   1     -22.550   0.303  28.906  0.00  0.00    +0.000 C 
ATOM     11  C   UNL A   1     -22.544   1.480  27.976  0.00  0.00    +0.000 C 
BRANCH  11  12
ATOM     12  C   UNL A   1     -23.468   1.321  26.949  0.00  0.00    +0.000 C 
ATOM     13  C   UNL A   1     -23.432   1.983  25.821  0.00  0.00    +0.000 C 
ENDBRANCH  11  12
ENDBRANCH   9  10
ENDBRANCH   7   8
TORSDOF 3
ENDMDL
ENDMDL
