REMARK  Name = No_674-gen_results/8p0m/2024-11-26-14-13-15/
REMARK  3 active torsions:
REMARK  status: ('A' for Active; 'I' for Inactive)
REMARK    1  A    between atoms: C_5  and  C_11
REMARK    2  A    between atoms: N_15  and  C_16
REMARK    3  A    between atoms: C_16  and  C_19
REMARK                            x       y       z     vdW  Elec       q    Type
REMARK                         _______ _______ _______ _____ _____    ______ ____
ROOT
ATOM      1  C   UNL A   1     -28.016  -0.814  28.878  0.00  0.00    +0.029 C 
ATOM      2  C   UNL A   1     -27.064  -0.119  28.608  0.00  0.00    +0.023 C 
ATOM      3  C   UNL A   1     -26.876   1.133  28.913  0.00  0.00    +0.075 C 
ATOM      4  C   UNL A   1     -25.688   1.952  28.567  0.00  0.00    +0.031 C 
ATOM      5  C   UNL A   1     -24.639   1.283  27.875  0.00  0.00    +0.105 C 
ATOM      6  C   UNL A   1     -24.807  -0.051  27.604  0.00  0.00    +0.011 C 
ATOM      7  C   UNL A   1     -25.902  -0.767  27.951  0.00  0.00    +0.003 C 
ATOM      8  C   UNL A   1     -28.645  -0.528  30.243  0.00  0.00    -0.009 A 
ATOM      9  C   UNL A   1     -29.554  -1.030  30.649  0.00  0.00    -0.003 A 
ATOM     10  C   UNL A   1     -30.166  -0.838  31.938  0.00  0.00    -0.000 A 
ATOM     11  C   UNL A   1     -29.641   0.165  32.747  0.00  0.00    +0.001 A 
ATOM     12  C   UNL A   1     -28.503   0.812  32.285  0.00  0.00    +0.014 A 
ATOM     13  C   UNL A   1     -27.986   0.493  31.099  0.00  0.00    +0.045 A 
ATOM     14  N   UNL A   1     -27.455   1.598  30.185  0.00  0.00    -0.295 N 
ENDROOT
BRANCH   5  15
ATOM     15  C   UNL A   1     -23.453   1.990  27.457  0.00  0.00    +0.364 C 
ATOM     16  O   UNL A   1     -22.311   1.695  27.846  0.00  0.00    -0.246 OA
ATOM     17  O   UNL A   1     -23.637   3.035  26.660  0.00  0.00    -0.246 OA
ENDBRANCH   5  15
BRANCH  14  18
ATOM     18  C   UNL A   1     -27.523   2.927  30.548  0.00  0.00    +0.177 C 
ATOM     19 CL   UNL A   1     -26.259   3.398  31.570  0.00  0.00    -0.088 Cl
BRANCH  18  20
ATOM     20  C   UNL A   1     -28.553   3.718  30.075  0.00  0.00    +0.011 A 
ATOM     21  C   UNL A   1     -29.529   3.364  29.377  0.00  0.00    -0.001 A 
ATOM     22  C   UNL A   1     -30.502   4.169  28.885  0.00  0.00    -0.000 A 
ATOM     23  C   UNL A   1     -30.459   5.507  29.263  0.00  0.00    -0.000 A 
ATOM     24  C   UNL A   1     -29.470   5.997  30.031  0.00  0.00    -0.000 A 
ATOM     25  C   UNL A   1     -28.439   5.145  30.491  0.00  0.00    -0.001 A 
ENDBRANCH  18  20
ENDBRANCH  14  18
TORSDOF 3
