REMARK  Name = No_675-gen_results/8p0m/2024-11-26-14-13-15/
REMARK  2 active torsions:
REMARK  status: ('A' for Active; 'I' for Inactive)
REMARK    1  A    between atoms: C_2  and  C_3
REMARK    2  A    between atoms: C_8  and  C_11
REMARK                            x       y       z     vdW  Elec       q    Type
REMARK                         _______ _______ _______ _____ _____    ______ ____
ROOT
ATOM      1  C   UNL A   1     -26.402  -0.062  28.622  0.00  0.00    +0.054 A 
ATOM      2  C   UNL A   1     -26.777   1.057  27.790  0.00  0.00    +0.004 A 
ATOM      3  C   UNL A   1     -25.913   1.979  27.218  0.00  0.00    +0.000 A 
ATOM      4  C   UNL A   1     -24.524   2.031  27.699  0.00  0.00    +0.007 A 
ATOM      5  C   UNL A   1     -24.106   1.048  28.558  0.00  0.00    +0.080 A 
ATOM      6  C   UNL A   1     -24.906   0.067  28.986  0.00  0.00    +0.011 A 
ENDROOT
BRANCH   1   8
ATOM      7  O   UNL A   1     -28.123  -1.335  28.487  0.00  0.00    -0.270 OA
ATOM      8  C   UNL A   1     -27.064  -0.824  28.869  0.00  0.00    +0.249 C 
ATOM      9  N   UNL A   1     -26.381  -1.799  29.962  0.00  0.00    -0.273 N 
ATOM     10  C   UNL A   1     -27.134  -3.044  30.209  0.00  0.00    +0.115 C 
ATOM     11  C   UNL A   1     -26.171  -1.202  31.268  0.00  0.00    +0.115 C 
ENDBRANCH   1   8
BRANCH   5  12
ATOM     12  C   UNL A   1     -22.655   1.077  28.941  0.00  0.00    +0.388 C 
ATOM     13  O   UNL A   1     -22.366   0.446  29.956  0.00  0.00    -0.241 OA
ATOM     14  O   UNL A   1     -21.734   1.278  28.038  0.00  0.00    -0.241 OA
ENDBRANCH   5  12
TORSDOF 2
