MODEL 675
MODEL 1
REMARK VINA RESULT:    -5.640      0.000      0.000
REMARK INTER + INTRA:          -6.460
REMARK INTER:                  -6.299
REMARK INTRA:                  -0.160
REMARK UNBOUND:                -0.160
REMARK  Name = No_675-gen_results/8p0m/2024-11-26-14-13-15/
REMARK  2 active torsions:
REMARK  status: ('A' for Active; 'I' for Inactive)
REMARK    1  A    between atoms: C_2  and  C_3
REMARK    2  A    between atoms: C_8  and  C_11
REMARK                            x       y       z     vdW  Elec       q    Type
REMARK                         _______ _______ _______ _____ _____    ______ ____
ROOT
ATOM      1  C   UNL A   1     -24.447  -2.225  29.308  0.00  0.00    +0.054 A 
ATOM      2  C   UNL A   1     -23.864  -3.488  28.924  0.00  0.00    +0.004 A 
ATOM      3  C   UNL A   1     -24.525  -4.704  28.837  0.00  0.00    +0.000 A 
ATOM      4  C   UNL A   1     -25.858  -4.823  29.449  0.00  0.00    +0.007 A 
ATOM      5  C   UNL A   1     -26.454  -3.679  29.913  0.00  0.00    +0.080 A 
ATOM      6  C   UNL A   1     -25.871  -2.478  29.852  0.00  0.00    +0.011 A 
ENDROOT
BRANCH   1   8
ATOM      7  O   UNL A   1     -23.522  -0.584  28.282  0.00  0.00    -0.270 OA
ATOM      8  C   UNL A   1     -23.957  -1.318  29.177  0.00  0.00    +0.249 C 
ATOM      9  N   UNL A   1     -23.970  -0.492  30.566  0.00  0.00    -0.273 N 
ATOM     10  C   UNL A   1     -23.513   0.905  30.438  0.00  0.00    +0.115 C 
ATOM     11  C   UNL A   1     -23.169  -1.071  31.629  0.00  0.00    +0.115 C 
ENDBRANCH   1   8
BRANCH   5  12
ATOM     12  C   UNL A   1     -27.854  -3.827  30.432  0.00  0.00    +0.388 C 
ATOM     13  O   UNL A   1     -28.642  -2.951  30.078  0.00  0.00    -0.241 OA
ATOM     14  O   UNL A   1     -28.321  -5.001  30.760  0.00  0.00    -0.241 OA
ENDBRANCH   5  12
TORSDOF 2
ENDMDL
ENDMDL
