REMARK  Name = No_676-gen_results/8p0m/2024-11-26-14-13-15/
REMARK  1 active torsions:
REMARK  status: ('A' for Active; 'I' for Inactive)
REMARK    1  A    between atoms: C_4  and  C_8
REMARK                            x       y       z     vdW  Elec       q    Type
REMARK                         _______ _______ _______ _____ _____    ______ ____
ROOT
ATOM      1  C   UNL A   1     -28.016  -0.814  28.878  0.00  0.00    +0.011 A 
ATOM      2  C   UNL A   1     -28.469  -0.785  29.829  0.00  0.00    +0.058 A 
ATOM      3  C   UNL A   1     -26.504  -0.778  28.877  0.00  0.00    +0.001 A 
ATOM      4  C   UNL A   1     -25.810  -0.853  30.103  0.00  0.00    +0.000 A 
ATOM      5  C   UNL A   1     -27.991  -0.892  31.226  0.00  0.00    +0.011 A 
ATOM      6  C   UNL A   1     -26.604  -0.868  31.265  0.00  0.00    +0.001 A 
ATOM      7 CL   UNL A   1     -30.294  -0.838  29.835  0.00  0.00    -0.082 Cl
ENDROOT
BRANCH   4   8
ATOM      8  C   UNL A   1     -24.370  -0.821  30.139  0.00  0.00    +0.000 A 
ATOM      9  C   UNL A   1     -23.662  -1.327  30.749  0.00  0.00    +0.000 A 
ATOM     10  C   UNL A   1     -23.774   0.147  29.120  0.00  0.00    +0.000 A 
ATOM     11  C   UNL A   1     -22.383   0.206  28.996  0.00  0.00    +0.000 A 
ATOM     12  C   UNL A   1     -22.207  -1.277  30.873  0.00  0.00    +0.000 A 
ATOM     13  C   UNL A   1     -21.623  -0.491  29.860  0.00  0.00    +0.000 A 
ENDBRANCH   4   8
TORSDOF 1
