MODEL 676
MODEL 1
REMARK VINA RESULT:    -6.017      0.000      0.000
REMARK INTER + INTRA:          -6.701
REMARK INTER:                  -6.369
REMARK INTRA:                  -0.333
REMARK UNBOUND:                -0.333
REMARK  Name = No_676-gen_results/8p0m/2024-11-26-14-13-15/
REMARK  1 active torsions:
REMARK  status: ('A' for Active; 'I' for Inactive)
REMARK    1  A    between atoms: C_4  and  C_8
REMARK                            x       y       z     vdW  Elec       q    Type
REMARK                         _______ _______ _______ _____ _____    ______ ____
ROOT
ATOM      1  C   UNL A   1     -26.413  -2.269  29.689  0.00  0.00    +0.011 A 
ATOM      2  C   UNL A   1     -26.098  -3.275  29.687  0.00  0.00    +0.058 A 
ATOM      3  C   UNL A   1     -25.343  -1.252  29.359  0.00  0.00    +0.001 A 
ATOM      4  C   UNL A   1     -24.071  -1.698  28.941  0.00  0.00    +0.000 A 
ATOM      5  C   UNL A   1     -24.875  -3.994  29.265  0.00  0.00    +0.011 A 
ATOM      6  C   UNL A   1     -23.869  -3.091  28.948  0.00  0.00    +0.001 A 
ATOM      7 CL   UNL A   1     -27.389  -4.506  30.074  0.00  0.00    -0.082 Cl
ENDROOT
BRANCH   4   8
ATOM      8  C   UNL A   1     -23.028  -0.758  28.620  0.00  0.00    +0.000 A 
ATOM      9  C   UNL A   1     -21.981  -0.765  28.804  0.00  0.00    +0.000 A 
ATOM     10  C   UNL A   1     -23.552   0.486  27.905  0.00  0.00    +0.000 A 
ATOM     11  C   UNL A   1     -22.627   1.435  27.463  0.00  0.00    +0.000 A 
ATOM     12  C   UNL A   1     -20.900   0.188  28.565  0.00  0.00    +0.000 A 
ATOM     13  C   UNL A   1     -21.331   1.284  27.793  0.00  0.00    +0.000 A 
ENDBRANCH   4   8
TORSDOF 1
ENDMDL
ENDMDL
