MODEL 677
MODEL 1
REMARK VINA RESULT:    -5.971      0.000      0.000
REMARK INTER + INTRA:          -7.427
REMARK INTER:                  -7.018
REMARK INTRA:                  -0.409
REMARK UNBOUND:                -0.409
REMARK  Name = No_677-gen_results/8p0m/2024-11-26-14-13-15/
REMARK  3 active torsions:
REMARK  status: ('A' for Active; 'I' for Inactive)
REMARK    1  A    between atoms: C_3  and  C_4
REMARK    2  A    between atoms: C_4  and  C_8
REMARK    3  A    between atoms: C_9  and  C_10
REMARK                            x       y       z     vdW  Elec       q    Type
REMARK                         _______ _______ _______ _____ _____    ______ ____
ROOT
ATOM      1  C   UNL A   1     -26.168  -3.583  29.678  0.00  0.00    -0.004 A 
ATOM      2  C   UNL A   1     -26.067  -4.631  29.649  0.00  0.00    -0.000 A 
ATOM      3  C   UNL A   1     -25.034  -2.797  29.166  0.00  0.00    -0.018 A 
ATOM      4  C   UNL A   1     -25.067  -5.505  28.991  0.00  0.00    -0.000 A 
ATOM      5  C   UNL A   1     -23.963  -4.836  28.474  0.00  0.00    -0.000 A 
ATOM      6  C   UNL A   1     -23.900  -3.459  28.510  0.00  0.00    -0.004 A 
ENDROOT
BRANCH   3   7
ATOM      7  C   UNL A   1     -24.862  -1.354  29.230  0.00  0.00    +0.052 C 
BRANCH   7   8
ATOM      8  C   UNL A   1     -23.619  -0.789  28.927  0.00  0.00    -0.021 C 
ATOM      9  C   UNL A   1     -23.525   0.462  28.518  0.00  0.00    -0.005 C 
BRANCH   9  10
ATOM     10  C   UNL A   1     -22.246   1.000  28.200  0.00  0.00    -0.005 C 
ATOM     11  C   UNL A   1     -22.150   1.818  27.029  0.00  0.00    -0.026 C 
ATOM     12  C   UNL A   1     -23.336   2.201  26.321  0.00  0.00    +0.031 C 
ENDBRANCH   9  10
ENDBRANCH   7   8
ENDBRANCH   3   7
TORSDOF 3
ENDMDL
ENDMDL
