REMARK  Name = No_678-gen_results/8p0m/2024-11-26-14-13-15/
REMARK  1 active torsions:
REMARK  status: ('A' for Active; 'I' for Inactive)
REMARK    1  A    between atoms: C_1  and  C_2
REMARK                            x       y       z     vdW  Elec       q    Type
REMARK                         _______ _______ _______ _____ _____    ______ ____
ROOT
ATOM      1  C   UNL A   1     -28.016  -0.814  28.878  0.00  0.00    +0.163 C 
ATOM      2  C   UNL A   1     -29.244  -0.077  29.201  0.00  0.00    +0.246 C 
ATOM      3  C   UNL A   1     -30.371  -0.803  29.689  0.00  0.00    +0.287 C 
ATOM      4  N   UNL A   1     -30.129  -1.913  30.270  0.00  0.00    -0.261 N 
ATOM      5  O   UNL A   1     -31.533  -0.574  29.279  0.00  0.00    -0.267 OA
ATOM      6  C   UNL A   1     -31.222  -2.858  30.659  0.00  0.00    +0.095 C 
ATOM      7  O   UNL A   1     -29.360   1.182  29.066  0.00  0.00    -0.285 OA
ATOM      8  C   UNL A   1     -30.910  -3.813  30.983  0.00  0.00    +0.022 C 
ATOM      9  C   UNL A   1     -29.486  -4.353  31.232  0.00  0.00    +0.005 C 
ATOM     10  C   UNL A   1     -28.518  -3.464  30.802  0.00  0.00    +0.038 C 
ATOM     11  C   UNL A   1     -28.804  -2.395  30.381  0.00  0.00    +0.150 C 
ATOM     12  N   UNL A   1     -27.806  -1.715  29.735  0.00  0.00    -0.189 NA
ENDROOT
BRANCH   1  13
ATOM     13  C   UNL A   1     -27.064  -0.119  28.608  0.00  0.00    +0.001 A 
ATOM     14  C   UNL A   1     -26.972   0.714  27.506  0.00  0.00    -0.007 A 
ATOM     15  C   UNL A   1     -25.820   1.491  27.116  0.00  0.00    -0.022 A 
ATOM     16  C   UNL A   1     -24.656   1.424  27.918  0.00  0.00    -0.004 A 
ATOM     17  C   UNL A   1     -24.685   0.590  29.066  0.00  0.00    -0.001 A 
ATOM     18  C   UNL A   1     -25.810  -0.127  29.334  0.00  0.00    -0.003 A 
ATOM     19  C   UNL A   1     -23.461   2.194  27.601  0.00  0.00    -0.000 A 
ATOM     20  C   UNL A   1     -22.222   1.676  28.159  0.00  0.00    -0.000 A 
ATOM     21  C   UNL A   1     -22.229   0.807  29.241  0.00  0.00    -0.000 A 
ATOM     22  C   UNL A   1     -23.446   0.196  29.712  0.00  0.00    -0.000 A 
ATOM     23  C   UNL A   1     -25.856   2.361  25.976  0.00  0.00    +0.031 C 
ENDBRANCH   1  13
TORSDOF 1
