MODEL 678
MODEL 1
REMARK VINA RESULT:    -7.635      0.000      0.000
REMARK INTER + INTRA:          -8.324
REMARK INTER:                  -8.081
REMARK INTRA:                  -0.243
REMARK UNBOUND:                -0.243
REMARK  Name = No_678-gen_results/8p0m/2024-11-26-14-13-15/
REMARK  1 active torsions:
REMARK  status: ('A' for Active; 'I' for Inactive)
REMARK    1  A    between atoms: C_1  and  C_2
REMARK                            x       y       z     vdW  Elec       q    Type
REMARK                         _______ _______ _______ _____ _____    ______ ____
ROOT
ATOM      1  C   UNL A   1     -25.250   0.346  26.157  0.00  0.00    +0.163 C 
ATOM      2  C   UNL A   1     -25.503  -0.329  27.436  0.00  0.00    +0.246 C 
ATOM      3  C   UNL A   1     -24.395  -0.623  28.287  0.00  0.00    +0.287 C 
ATOM      4  N   UNL A   1     -23.360   0.112  28.153  0.00  0.00    -0.261 N 
ATOM      5  O   UNL A   1     -24.284  -1.726  28.870  0.00  0.00    -0.267 OA
ATOM      6  C   UNL A   1     -22.071  -0.203  28.844  0.00  0.00    +0.095 C 
ATOM      7  O   UNL A   1     -26.662  -0.671  27.830  0.00  0.00    -0.285 OA
ATOM      8  C   UNL A   1     -21.236   0.368  28.542  0.00  0.00    +0.022 C 
ATOM      9  C   UNL A   1     -21.161   1.568  27.575  0.00  0.00    +0.005 C 
ATOM     10  C   UNL A   1     -22.362   1.778  26.923  0.00  0.00    +0.038 C 
ATOM     11  C   UNL A   1     -23.324   1.137  27.179  0.00  0.00    +0.150 C 
ATOM     12  N   UNL A   1     -24.367   1.235  26.296  0.00  0.00    -0.189 NA
ENDROOT
BRANCH   1  13
ATOM     13  C   UNL A   1     -26.245   0.688  25.560  0.00  0.00    +0.001 A 
ATOM     14  C   UNL A   1     -26.821   1.945  25.625  0.00  0.00    -0.007 A 
ATOM     15  C   UNL A   1     -28.049   2.356  24.989  0.00  0.00    -0.022 A 
ATOM     16  C   UNL A   1     -28.757   1.410  24.209  0.00  0.00    -0.004 A 
ATOM     17  C   UNL A   1     -28.218   0.101  24.099  0.00  0.00    -0.001 A 
ATOM     18  C   UNL A   1     -27.067  -0.198  24.761  0.00  0.00    -0.003 A 
ATOM     19  C   UNL A   1     -29.993   1.754  23.520  0.00  0.00    -0.000 A 
ATOM     20  C   UNL A   1     -30.860   0.631  23.201  0.00  0.00    -0.000 A 
ATOM     21  C   UNL A   1     -30.368  -0.665  23.151  0.00  0.00    -0.000 A 
ATOM     22  C   UNL A   1     -29.051  -0.993  23.634  0.00  0.00    -0.000 A 
ATOM     23  C   UNL A   1     -28.527   3.705  25.086  0.00  0.00    +0.031 C 
ENDBRANCH   1  13
TORSDOF 1
ENDMDL
ENDMDL
