MODEL 679
MODEL 1
REMARK VINA RESULT:    -6.438      0.000      0.000
REMARK INTER + INTRA:          -8.038
REMARK INTER:                  -7.567
REMARK INTRA:                  -0.470
REMARK UNBOUND:                -0.470
REMARK  Name = No_679-gen_results/8p0m/2024-11-26-14-13-15/
REMARK  3 active torsions:
REMARK  status: ('A' for Active; 'I' for Inactive)
REMARK    1  A    between atoms: C_3  and  C_7
REMARK    2  A    between atoms: C_6  and  C_13
REMARK    3  A    between atoms: C_13  and  O_14
REMARK                            x       y       z     vdW  Elec       q    Type
REMARK                         _______ _______ _______ _____ _____    ______ ____
ROOT
ATOM      1  C   UNL A   1     -27.798 -12.046  31.873  0.00  0.00    +0.006 A 
ATOM      2  C   UNL A   1     -28.161 -12.048  30.719  0.00  0.00    +0.000 A 
ATOM      3  C   UNL A   1     -29.117 -11.169  30.209  0.00  0.00    +0.000 A 
ATOM      4  C   UNL A   1     -29.765 -10.233  31.107  0.00  0.00    +0.000 A 
ATOM      5  C   UNL A   1     -29.330 -10.278  32.431  0.00  0.00    +0.006 A 
ATOM      6  C   UNL A   1     -28.427 -11.152  32.831  0.00  0.00    +0.076 A 
ENDROOT
BRANCH   3   7
ATOM      7  C   UNL A   1     -29.616 -11.103  28.799  0.00  0.00    +0.000 A 
ATOM      8  C   UNL A   1     -30.636 -10.361  28.469  0.00  0.00    +0.000 A 
ATOM      9  C   UNL A   1     -31.159 -10.371  27.141  0.00  0.00    +0.000 A 
ATOM     10  C   UNL A   1     -30.740 -11.273  26.192  0.00  0.00    +0.000 A 
ATOM     11  C   UNL A   1     -29.116 -12.053  27.795  0.00  0.00    +0.000 A 
ATOM     12  C   UNL A   1     -29.687 -12.085  26.500  0.00  0.00    +0.000 A 
ENDBRANCH   3   7
BRANCH   6  13
ATOM     13  C   UNL A   1     -28.061 -11.350  34.250  0.00  0.00    +0.341 C 
ATOM     14  O   UNL A   1     -27.547 -12.292  34.683  0.00  0.00    -0.245 OA
BRANCH  13  15
ATOM     15  O   UNL A   1     -28.033 -10.200  35.001  0.00  0.00    -0.441 OA
ATOM     16  C   UNL A   1     -26.930  -9.428  35.017  0.00  0.00    +0.256 C 
ENDBRANCH  13  15
ENDBRANCH   6  13
TORSDOF 3
ENDMDL
ENDMDL
