MODEL 67
MODEL 1
REMARK VINA RESULT:    -6.586      0.000      0.000
REMARK INTER + INTRA:          -7.798
REMARK INTER:                  -7.356
REMARK INTRA:                  -0.442
REMARK UNBOUND:                -0.442
REMARK  Name = No_67-gen_results/8p0m/2024-11-26-14-13-15/
REMARK  2 active torsions:
REMARK  status: ('A' for Active; 'I' for Inactive)
REMARK    1  A    between atoms: C_3  and  C_7
REMARK    2  A    between atoms: C_7  and  C_8
REMARK                            x       y       z     vdW  Elec       q    Type
REMARK                         _______ _______ _______ _____ _____    ______ ____
ROOT
ATOM      1  C   UNL A   1     -24.390  -1.190  29.414  0.00  0.00    +0.053 C 
ENDROOT
BRANCH   1   4
ATOM      2  C   UNL A   1     -23.840  -3.534  28.611  0.00  0.00    -0.004 A 
ATOM      3  C   UNL A   1     -24.068  -4.563  28.615  0.00  0.00    -0.000 A 
ATOM      4  C   UNL A   1     -24.761  -2.678  29.303  0.00  0.00    -0.018 A 
ATOM      5  C   UNL A   1     -25.931  -3.106  29.787  0.00  0.00    -0.004 A 
ATOM      6  C   UNL A   1     -25.277  -5.242  29.058  0.00  0.00    -0.000 A 
ATOM      7  C   UNL A   1     -26.150  -4.461  29.679  0.00  0.00    -0.000 A 
ENDBRANCH   1   4
BRANCH   1   8
ATOM      8  C   UNL A   1     -23.859  -0.562  28.190  0.00  0.00    -0.018 A 
ATOM      9  C   UNL A   1     -24.713   0.211  27.386  0.00  0.00    -0.004 A 
ATOM     10  C   UNL A   1     -24.159   1.017  26.375  0.00  0.00    -0.000 A 
ATOM     11  C   UNL A   1     -23.096   1.870  26.641  0.00  0.00    -0.000 A 
ATOM     12  C   UNL A   1     -22.307   1.478  27.769  0.00  0.00    -0.000 A 
ATOM     13  C   UNL A   1     -22.729   0.386  28.580  0.00  0.00    -0.004 A 
ENDBRANCH   1   8
TORSDOF 2
ENDMDL
ENDMDL
