REMARK  Name = No_68-gen_results/8p0m/2024-11-26-14-13-15/
REMARK  1 active torsions:
REMARK  status: ('A' for Active; 'I' for Inactive)
REMARK    1  A    between atoms: C_7  and  C_8
REMARK                            x       y       z     vdW  Elec       q    Type
REMARK                         _______ _______ _______ _____ _____    ______ ____
ROOT
ATOM      1  O   UNL A   1     -28.123  -1.335  28.487  0.00  0.00    -0.273 OA
ATOM      2  C   UNL A   1     -27.064  -0.824  28.869  0.00  0.00    +0.241 C 
ATOM      3  C   UNL A   1     -26.959   0.093  29.758  0.00  0.00    +0.087 C 
ATOM      4  N   UNL A   1     -25.801  -1.357  28.397  0.00  0.00    -0.205 NA
ATOM      5  C   UNL A   1     -25.737   0.724  30.210  0.00  0.00    +0.017 C 
ATOM      6  C   UNL A   1     -24.633  -0.819  28.910  0.00  0.00    +0.121 C 
ATOM      7  C   UNL A   1     -24.519   0.197  29.747  0.00  0.00    +0.066 C 
ENDROOT
BRANCH   7   8
ATOM      8  C   UNL A   1     -23.242   0.714  30.138  0.00  0.00    +0.097 C 
ATOM      9  N   UNL A   1     -23.181   1.755  30.715  0.00  0.00    -0.151 NA
ENDBRANCH   7   8
TORSDOF 1
