MODEL 680
MODEL 1
REMARK VINA RESULT:    -4.987      0.000      0.000
REMARK INTER + INTRA:          -4.987
REMARK INTER:                  -4.987
REMARK INTRA:                   0.000
REMARK UNBOUND:                 0.000
REMARK  Name = No_680-gen_results/8p0m/2024-11-26-14-13-15/
REMARK  0 active torsions:
REMARK  status: ('A' for Active; 'I' for Inactive)
REMARK                            x       y       z     vdW  Elec       q    Type
REMARK                         _______ _______ _______ _____ _____    ______ ____
ROOT
ATOM      1  C   UNL A   1     -10.359  -9.275  19.085  0.00  0.00    +0.042 A 
ATOM      2  C   UNL A   1      -9.475  -9.197  19.905  0.00  0.00    +0.003 A 
ATOM      3  C   UNL A   1      -8.290  -9.910  19.755  0.00  0.00    +0.000 A 
ATOM      4  C   UNL A   1      -8.099 -10.801  18.639  0.00  0.00    +0.003 A 
ATOM      5  C   UNL A   1      -9.181 -10.849  17.751  0.00  0.00    +0.042 A 
ATOM      6  C   UNL A   1     -10.286 -10.167  17.948  0.00  0.00    +0.196 A 
ATOM      7  O   UNL A   1     -11.156 -10.421  16.984  0.00  0.00    -0.287 OA
ENDROOT
TORSDOF 0
ENDMDL
ENDMDL
