REMARK  Name = No_681-gen_results/8p0m/2024-11-26-14-13-15/
REMARK  1 active torsions:
REMARK  status: ('A' for Active; 'I' for Inactive)
REMARK    1  A    between atoms: C_3  and  C_7
REMARK                            x       y       z     vdW  Elec       q    Type
REMARK                         _______ _______ _______ _____ _____    ______ ____
ROOT
ATOM      1  C   UNL A   1     -28.016  -0.814  28.878  0.00  0.00    +0.000 A 
ATOM      2  C   UNL A   1     -27.064  -0.119  28.608  0.00  0.00    +0.000 A 
ATOM      3  C   UNL A   1     -25.765  -0.390  29.036  0.00  0.00    +0.001 A 
ATOM      4  C   UNL A   1     -25.489  -1.154  29.717  0.00  0.00    +0.000 A 
ATOM      5  C   UNL A   1     -26.490  -2.122  30.211  0.00  0.00    +0.000 A 
ATOM      6  C   UNL A   1     -27.730  -1.909  29.827  0.00  0.00    +0.000 A 
ENDROOT
BRANCH   3   7
ATOM      7  C   UNL A   1     -24.646   0.629  28.525  0.00  0.00    +0.019 C 
ATOM      8  C   UNL A   1     -24.159   1.612  29.369  0.00  0.00    +0.106 C 
ATOM      9  N   UNL A   1     -23.153   2.310  28.864  0.00  0.00    -0.127 NA
ENDBRANCH   3   7
TORSDOF 1
