MODEL 681
MODEL 1
REMARK VINA RESULT:    -4.974      0.000      0.000
REMARK INTER + INTRA:          -5.311
REMARK INTER:                  -5.264
REMARK INTRA:                  -0.047
REMARK UNBOUND:                -0.047
REMARK  Name = No_681-gen_results/8p0m/2024-11-26-14-13-15/
REMARK  1 active torsions:
REMARK  status: ('A' for Active; 'I' for Inactive)
REMARK    1  A    between atoms: C_3  and  C_7
REMARK                            x       y       z     vdW  Elec       q    Type
REMARK                         _______ _______ _______ _____ _____    ______ ____
ROOT
ATOM      1  C   UNL A   1     -26.176  -4.165  29.690  0.00  0.00    +0.000 A 
ATOM      2  C   UNL A   1     -25.676  -3.069  29.587  0.00  0.00    +0.000 A 
ATOM      3  C   UNL A   1     -24.457  -2.834  28.952  0.00  0.00    +0.001 A 
ATOM      4  C   UNL A   1     -23.797  -3.582  28.593  0.00  0.00    +0.000 A 
ATOM      5  C   UNL A   1     -24.180  -5.009  28.632  0.00  0.00    +0.000 A 
ATOM      6  C   UNL A   1     -25.327  -5.277  29.217  0.00  0.00    +0.000 A 
ENDROOT
BRANCH   3   7
ATOM      7  C   UNL A   1     -24.001  -1.305  28.883  0.00  0.00    +0.019 C 
ATOM      8  C   UNL A   1     -22.739  -0.933  29.315  0.00  0.00    +0.106 C 
ATOM      9  N   UNL A   1     -22.444   0.339  29.093  0.00  0.00    -0.127 NA
ENDBRANCH   3   7
TORSDOF 1
ENDMDL
ENDMDL
