REMARK  Name = No_682-gen_results/8p0m/2024-11-26-14-13-15/
REMARK  2 active torsions:
REMARK  status: ('A' for Active; 'I' for Inactive)
REMARK    1  A    between atoms: C_2  and  C_7
REMARK    2  A    between atoms: C_6  and  C_13
REMARK                            x       y       z     vdW  Elec       q    Type
REMARK                         _______ _______ _______ _____ _____    ______ ____
ROOT
ATOM      1  C   UNL A   1     -28.016  -0.814  28.878  0.00  0.00    +0.007 A 
ATOM      2  C   UNL A   1     -27.064  -0.119  28.608  0.00  0.00    +0.000 A 
ATOM      3  C   UNL A   1     -25.792  -0.430  29.076  0.00  0.00    +0.000 A 
ATOM      4  C   UNL A   1     -25.531  -1.588  29.610  0.00  0.00    +0.000 A 
ATOM      5  C   UNL A   1     -26.637  -2.434  29.965  0.00  0.00    +0.007 A 
ATOM      6  C   UNL A   1     -27.841  -2.029  29.620  0.00  0.00    +0.080 A 
ENDROOT
BRANCH   2   7
ATOM      7  C   UNL A   1     -27.181   1.230  27.919  0.00  0.00    +0.000 A 
ATOM      8  C   UNL A   1     -26.814   2.298  28.166  0.00  0.00    +0.000 A 
ATOM      9  C   UNL A   1     -27.807   1.024  26.552  0.00  0.00    +0.000 A 
ATOM     10  C   UNL A   1     -27.924   2.092  25.693  0.00  0.00    +0.000 A 
ATOM     11  C   UNL A   1     -26.869   3.523  27.381  0.00  0.00    +0.000 A 
ATOM     12  C   UNL A   1     -27.472   3.376  26.137  0.00  0.00    +0.000 A 
ENDBRANCH   2   7
BRANCH   6  13
ATOM     13  C   UNL A   1     -28.970  -2.910  30.086  0.00  0.00    +0.388 C 
ATOM     14  O   UNL A   1     -29.303  -2.876  31.079  0.00  0.00    -0.241 OA
ATOM     15  O   UNL A   1     -29.353  -3.660  29.198  0.00  0.00    -0.241 OA
ENDBRANCH   6  13
TORSDOF 2
