MODEL 682
MODEL 1
REMARK VINA RESULT:    -7.060      0.000      0.000
REMARK INTER + INTRA:          -8.388
REMARK INTER:                  -7.885
REMARK INTRA:                  -0.503
REMARK UNBOUND:                -0.503
REMARK  Name = No_682-gen_results/8p0m/2024-11-26-14-13-15/
REMARK  2 active torsions:
REMARK  status: ('A' for Active; 'I' for Inactive)
REMARK    1  A    between atoms: C_2  and  C_7
REMARK    2  A    between atoms: C_6  and  C_13
REMARK                            x       y       z     vdW  Elec       q    Type
REMARK                         _______ _______ _______ _____ _____    ______ ____
ROOT
ATOM      1  C   UNL A   1     -28.296 -11.714  31.068  0.00  0.00    +0.007 A 
ATOM      2  C   UNL A   1     -29.087 -11.053  30.436  0.00  0.00    +0.000 A 
ATOM      3  C   UNL A   1     -29.936 -10.151  31.069  0.00  0.00    +0.000 A 
ATOM      4  C   UNL A   1     -29.754  -9.806  32.311  0.00  0.00    +0.000 A 
ATOM      5  C   UNL A   1     -28.837 -10.581  33.101  0.00  0.00    +0.007 A 
ATOM      6  C   UNL A   1     -28.152 -11.520  32.482  0.00  0.00    +0.080 A 
ENDROOT
BRANCH   2   7
ATOM      7  C   UNL A   1     -29.371 -11.272  28.960  0.00  0.00    +0.000 A 
ATOM      8  C   UNL A   1     -29.003 -12.032  28.170  0.00  0.00    +0.000 A 
ATOM      9  C   UNL A   1     -30.491 -10.339  28.538  0.00  0.00    +0.000 A 
ATOM     10  C   UNL A   1     -30.997 -10.424  27.261  0.00  0.00    +0.000 A 
ATOM     11  C   UNL A   1     -29.423 -12.243  26.792  0.00  0.00    +0.000 A 
ATOM     12  C   UNL A   1     -30.423 -11.378  26.362  0.00  0.00    +0.000 A 
ENDBRANCH   2   7
BRANCH   6  13
ATOM     13  C   UNL A   1     -27.267 -12.355  33.368  0.00  0.00    +0.388 C 
ATOM     14  O   UNL A   1     -27.356 -12.311  34.412  0.00  0.00    -0.241 OA
ATOM     15  O   UNL A   1     -26.446 -12.988  32.718  0.00  0.00    -0.241 OA
ENDBRANCH   6  13
TORSDOF 2
ENDMDL
ENDMDL
