REMARK  Name = No_683-gen_results/8p0m/2024-11-26-14-13-15/
REMARK  4 active torsions:
REMARK  status: ('A' for Active; 'I' for Inactive)
REMARK    1  A    between atoms: C_3  and  C_7
REMARK    2  A    between atoms: C_9  and  C_13
REMARK    3  A    between atoms: C_15  and  C_19
REMARK    4  A    between atoms: C_22  and  C_23
REMARK                            x       y       z     vdW  Elec       q    Type
REMARK                         _______ _______ _______ _____ _____    ______ ____
ROOT
ATOM      1  C   UNL A   1     -28.111   1.608  26.104  0.00  0.00    +0.000 A 
ATOM      2  C   UNL A   1     -29.033   0.763  26.282  0.00  0.00    +0.005 A 
ATOM      3  C   UNL A   1     -30.412   0.980  26.052  0.00  0.00    +0.056 A 
ATOM      4  C   UNL A   1     -30.747   2.211  25.569  0.00  0.00    +0.005 A 
ATOM      5  C   UNL A   1     -28.701   2.947  25.682  0.00  0.00    +0.000 A 
ATOM      6  C   UNL A   1     -29.852   3.213  25.370  0.00  0.00    +0.000 A 
ENDROOT
BRANCH   1   9
ATOM      7  C   UNL A   1     -26.311   0.392  27.364  0.00  0.00    +0.000 A 
ATOM      8  C   UNL A   1     -24.969   0.248  27.481  0.00  0.00    +0.000 A 
ATOM      9  C   UNL A   1     -26.718   1.360  26.410  0.00  0.00    +0.000 A 
ATOM     10  C   UNL A   1     -24.020   0.864  26.716  0.00  0.00    +0.000 A 
ATOM     11  C   UNL A   1     -24.446   1.668  25.650  0.00  0.00    +0.000 A 
ATOM     12  C   UNL A   1     -25.781   1.948  25.523  0.00  0.00    +0.000 A 
BRANCH   7  15
ATOM     13  C   UNL A   1     -28.016  -0.814  28.878  0.00  0.00    +0.000 A 
ATOM     14  C   UNL A   1     -28.469  -0.785  29.829  0.00  0.00    +0.000 A 
ATOM     15  C   UNL A   1     -27.087   0.290  28.638  0.00  0.00    +0.000 A 
ATOM     16  C   UNL A   1     -26.832   1.249  29.587  0.00  0.00    +0.000 A 
ATOM     17  C   UNL A   1     -28.391   0.080  31.006  0.00  0.00    +0.000 A 
ATOM     18  C   UNL A   1     -27.494   1.152  30.784  0.00  0.00    +0.000 A 
ENDBRANCH   7  15
ENDBRANCH   1   9
BRANCH   3  19
ATOM     19  C   UNL A   1     -31.403  -0.060  26.278  0.00  0.00    +0.272 C 
ATOM     20  O   UNL A   1     -32.205  -0.454  25.738  0.00  0.00    -0.268 OA
ATOM     21  N   UNL A   1     -31.025  -0.859  27.512  0.00  0.00    -0.133 NA
ATOM     22  C   UNL A   1     -31.903  -1.866  28.048  0.00  0.00    +0.327 C 
ATOM     23  O   UNL A   1     -31.846  -2.940  27.572  0.00  0.00    -0.263 OA
BRANCH  22  24
ATOM     24  C   UNL A   1     -32.949  -1.319  28.760  0.00  0.00    +0.321 C 
ATOM     25  O   UNL A   1     -32.957  -0.250  29.234  0.00  0.00    -0.263 OA
ATOM     26  N   UNL A   1     -34.008  -2.174  28.997  0.00  0.00    -0.196 NA
ATOM     27  C   UNL A   1     -34.060  -3.529  28.558  0.00  0.00    +0.139 C 
ENDBRANCH  22  24
ENDBRANCH   3  19
TORSDOF 4
