MODEL 683
MODEL 1
REMARK VINA RESULT:    -8.090      0.000      0.000
REMARK INTER + INTRA:         -11.840
REMARK INTER:                  -9.982
REMARK INTRA:                  -1.858
REMARK UNBOUND:                -1.858
REMARK  Name = No_683-gen_results/8p0m/2024-11-26-14-13-15/
REMARK  4 active torsions:
REMARK  status: ('A' for Active; 'I' for Inactive)
REMARK    1  A    between atoms: C_3  and  C_7
REMARK    2  A    between atoms: C_9  and  C_13
REMARK    3  A    between atoms: C_15  and  C_19
REMARK    4  A    between atoms: C_22  and  C_23
REMARK                            x       y       z     vdW  Elec       q    Type
REMARK                         _______ _______ _______ _____ _____    ______ ____
ROOT
ATOM      1  C   UNL A   1     -23.465  -1.291  28.792  0.00  0.00    +0.000 A 
ATOM      2  C   UNL A   1     -23.844  -0.280  28.137  0.00  0.00    +0.005 A 
ATOM      3  C   UNL A   1     -23.038   0.826  27.780  0.00  0.00    +0.056 A 
ATOM      4  C   UNL A   1     -21.731   0.757  28.164  0.00  0.00    +0.005 A 
ATOM      5  C   UNL A   1     -22.016  -1.120  29.229  0.00  0.00    +0.000 A 
ATOM      6  C   UNL A   1     -21.213  -0.260  28.901  0.00  0.00    +0.000 A 
ENDROOT
BRANCH   1   9
ATOM      7  C   UNL A   1     -25.592  -2.145  29.819  0.00  0.00    +0.000 A 
ATOM      8  C   UNL A   1     -26.310  -3.267  30.064  0.00  0.00    +0.000 A 
ATOM      9  C   UNL A   1     -24.342  -2.373  29.187  0.00  0.00    +0.000 A 
ATOM     10  C   UNL A   1     -25.985  -4.536  29.678  0.00  0.00    +0.000 A 
ATOM     11  C   UNL A   1     -24.843  -4.717  28.885  0.00  0.00    +0.000 A 
ATOM     12  C   UNL A   1     -24.006  -3.652  28.676  0.00  0.00    +0.000 A 
BRANCH   7  15
ATOM     13  C   UNL A   1     -24.796  -1.121  32.049  0.00  0.00    +0.000 A 
ATOM     14  C   UNL A   1     -24.925  -0.296  32.692  0.00  0.00    +0.000 A 
ATOM     15  C   UNL A   1     -25.665  -1.086  30.872  0.00  0.00    +0.000 A 
ATOM     16  C   UNL A   1     -26.541  -0.055  30.641  0.00  0.00    +0.000 A 
ATOM     17  C   UNL A   1     -25.750   0.912  32.703  0.00  0.00    +0.000 A 
ATOM     18  C   UNL A   1     -26.594   0.955  31.567  0.00  0.00    +0.000 A 
ENDBRANCH   7  15
ENDBRANCH   1   9
BRANCH   3  19
ATOM     19  C   UNL A   1     -23.562   1.946  27.014  0.00  0.00    +0.272 C 
ATOM     20  O   UNL A   1     -23.205   2.554  26.244  0.00  0.00    -0.268 OA
ATOM     21  N   UNL A   1     -25.043   2.107  27.304  0.00  0.00    -0.133 NA
ATOM     22  C   UNL A   1     -25.789   3.224  26.786  0.00  0.00    +0.327 C 
ATOM     23  O   UNL A   1     -26.211   3.129  25.692  0.00  0.00    -0.263 OA
BRANCH  22  24
ATOM     24  C   UNL A   1     -25.555   4.381  27.497  0.00  0.00    +0.321 C 
ATOM     25  O   UNL A   1     -24.636   5.090  27.350  0.00  0.00    -0.263 OA
ATOM     26  N   UNL A   1     -26.445   4.629  28.524  0.00  0.00    -0.196 NA
ATOM     27  C   UNL A   1     -27.539   3.780  28.861  0.00  0.00    +0.139 C 
ENDBRANCH  22  24
ENDBRANCH   3  19
TORSDOF 4
ENDMDL
ENDMDL
