REMARK  Name = No_684-gen_results/8p0m/2024-11-26-14-13-15/
REMARK  6 active torsions:
REMARK  status: ('A' for Active; 'I' for Inactive)
REMARK    1  A    between atoms: C_1  and  C_2
REMARK    2  A    between atoms: C_1  and  C_9
REMARK    3  A    between atoms: C_5  and  C_6
REMARK    4  A    between atoms: C_6  and  C_11
REMARK    5  A    between atoms: C_15  and  O_19
REMARK    6  A    between atoms: O_19  and  C_20
REMARK                            x       y       z     vdW  Elec       q    Type
REMARK                         _______ _______ _______ _____ _____    ______ ____
ROOT
ATOM      1  C   UNL A   1     -28.016  -0.814  28.878  0.00  0.00    +0.056 C 
ENDROOT
BRANCH   1   2
ATOM      2  C   UNL A   1     -27.064  -0.119  28.608  0.00  0.00    -0.018 A 
ATOM      3  C   UNL A   1     -27.001   0.691  27.491  0.00  0.00    -0.004 A 
ATOM      4  C   UNL A   1     -25.855   1.482  27.083  0.00  0.00    +0.001 A 
ATOM      5  C   UNL A   1     -24.690   1.453  27.881  0.00  0.00    +0.025 A 
ATOM      6  C   UNL A   1     -25.812  -0.166  29.430  0.00  0.00    -0.004 A 
ATOM      7  C   UNL A   1     -24.646   0.589  29.081  0.00  0.00    +0.001 A 
BRANCH   5   8
ATOM      8  C   UNL A   1     -23.488   2.145  27.601  0.00  0.00    +0.170 C 
ATOM      9  N   UNL A   1     -23.428   3.065  26.725  0.00  0.00    -0.142 NA
BRANCH   8  10
ATOM     10  C   UNL A   1     -22.191   1.715  28.132  0.00  0.00    +0.353 C 
ATOM     11  O   UNL A   1     -21.130   2.232  27.529  0.00  0.00    -0.252 OA
ATOM     12  F   UNL A   1     -22.079   0.859  29.084  0.00  0.00    -0.157 F 
ENDBRANCH   8  10
ENDBRANCH   5   8
ENDBRANCH   1   2
BRANCH   1  13
ATOM     13  C   UNL A   1     -29.229  -0.095  29.410  0.00  0.00    +0.017 A 
ATOM     14  C   UNL A   1     -29.441   0.972  29.094  0.00  0.00    -0.001 A 
ATOM     15  C   UNL A   1     -30.532   1.586  29.046  0.00  0.00    -0.000 A 
ATOM     16  C   UNL A   1     -31.667   0.854  29.644  0.00  0.00    +0.003 A 
ATOM     17  C   UNL A   1     -30.297  -0.961  29.872  0.00  0.00    +0.142 A 
ATOM     18  C   UNL A   1     -31.526  -0.402  30.040  0.00  0.00    +0.037 A 
BRANCH  17  19
ATOM     19  O   UNL A   1     -30.108  -2.246  30.235  0.00  0.00    -0.447 OA
BRANCH  19  20
ATOM     20  C   UNL A   1     -29.081  -2.638  31.054  0.00  0.00    +0.225 C 
ATOM     21  C   UNL A   1     -28.468  -3.906  30.661  0.00  0.00    +0.275 C 
ATOM     22  O   UNL A   1     -28.992  -4.956  30.895  0.00  0.00    -0.280 OA
ENDBRANCH  19  20
ENDBRANCH  17  19
ENDBRANCH   1  13
TORSDOF 6
