MODEL 684
MODEL 1
REMARK VINA RESULT:    -6.418      0.000      0.000
REMARK INTER + INTRA:          -9.516
REMARK INTER:                  -8.670
REMARK INTRA:                  -0.846
REMARK UNBOUND:                -0.846
REMARK  Name = No_684-gen_results/8p0m/2024-11-26-14-13-15/
REMARK  6 active torsions:
REMARK  status: ('A' for Active; 'I' for Inactive)
REMARK    1  A    between atoms: C_1  and  C_2
REMARK    2  A    between atoms: C_1  and  C_9
REMARK    3  A    between atoms: C_5  and  C_6
REMARK    4  A    between atoms: C_6  and  C_11
REMARK    5  A    between atoms: C_15  and  O_19
REMARK    6  A    between atoms: O_19  and  C_20
REMARK                            x       y       z     vdW  Elec       q    Type
REMARK                         _______ _______ _______ _____ _____    ______ ____
ROOT
ATOM      1  C   UNL A   1     -24.879   0.978  28.191  0.00  0.00    +0.056 C 
ENDROOT
BRANCH   1   2
ATOM      2  C   UNL A   1     -25.643   0.742  27.283  0.00  0.00    -0.018 A 
ATOM      3  C   UNL A   1     -25.310  -0.027  26.185  0.00  0.00    -0.004 A 
ATOM      4  C   UNL A   1     -26.161  -0.274  25.036  0.00  0.00    +0.001 A 
ATOM      5  C   UNL A   1     -27.453   0.296  25.012  0.00  0.00    +0.025 A 
ATOM      6  C   UNL A   1     -27.004   1.367  27.232  0.00  0.00    -0.004 A 
ATOM      7  C   UNL A   1     -27.891   1.164  26.127  0.00  0.00    +0.001 A 
BRANCH   5   8
ATOM      8  C   UNL A   1     -28.385   0.169  23.954  0.00  0.00    +0.170 C 
ATOM      9  N   UNL A   1     -28.785   1.173  23.284  0.00  0.00    -0.142 NA
BRANCH   8  10
ATOM     10  C   UNL A   1     -29.116  -1.075  23.695  0.00  0.00    +0.353 C 
ATOM     11  O   UNL A   1     -30.247  -1.221  24.370  0.00  0.00    -0.252 OA
ATOM     12  F   UNL A   1     -28.675  -1.989  22.907  0.00  0.00    -0.157 F 
ENDBRANCH   8  10
ENDBRANCH   5   8
ENDBRANCH   1   2
BRANCH   1  13
ATOM     13  C   UNL A   1     -23.423   0.704  27.917  0.00  0.00    +0.017 A 
ATOM     14  C   UNL A   1     -22.788   1.480  27.390  0.00  0.00    -0.001 A 
ATOM     15  C   UNL A   1     -21.550   1.663  27.442  0.00  0.00    -0.000 A 
ATOM     16  C   UNL A   1     -20.810   0.609  28.165  0.00  0.00    +0.003 A 
ATOM     17  C   UNL A   1     -22.818  -0.292  28.781  0.00  0.00    +0.142 A 
ATOM     18  C   UNL A   1     -21.459  -0.342  28.821  0.00  0.00    +0.037 A 
BRANCH  17  19
ATOM     19  O   UNL A   1     -23.526  -1.222  29.453  0.00  0.00    -0.447 OA
BRANCH  19  20
ATOM     20  C   UNL A   1     -23.631  -2.521  29.027  0.00  0.00    +0.225 C 
ATOM     21  C   UNL A   1     -25.008  -2.948  28.783  0.00  0.00    +0.275 C 
ATOM     22  O   UNL A   1     -25.745  -3.234  29.681  0.00  0.00    -0.280 OA
ENDBRANCH  19  20
ENDBRANCH  17  19
ENDBRANCH   1  13
TORSDOF 6
ENDMDL
ENDMDL
