REMARK  Name = No_685-gen_results/8p0m/2024-11-26-14-13-15/
REMARK  8 active torsions:
REMARK  status: ('A' for Active; 'I' for Inactive)
REMARK    1  A    between atoms: C_3  and  C_4
REMARK    2  A    between atoms: C_4  and  C_9
REMARK    3  A    between atoms: C_6  and  C_25
REMARK    4  A    between atoms: C_7  and  O_17
REMARK    5  A    between atoms: O_17  and  C_18
REMARK    6  A    between atoms: C_18  and  C_19
REMARK    7  A    between atoms: C_25  and  O_26
REMARK    8  A    between atoms: O_26  and  C_28
REMARK                            x       y       z     vdW  Elec       q    Type
REMARK                         _______ _______ _______ _____ _____    ______ ____
ROOT
ATOM      1  C   UNL A   1     -28.016  -0.814  28.878  0.00  0.00    +0.030 A 
ATOM      2  C   UNL A   1     -28.469  -0.785  29.829  0.00  0.00    +0.140 A 
ATOM      3  C   UNL A   1     -27.087   0.290  28.638  0.00  0.00    +0.033 A 
ATOM      4  C   UNL A   1     -28.391   0.104  30.980  0.00  0.00    +0.039 A 
ATOM      5  C   UNL A   1     -27.533   1.167  30.787  0.00  0.00    +0.112 A 
ATOM      6  C   UNL A   1     -26.828   1.256  29.645  0.00  0.00    +0.143 A 
ATOM      7  F   UNL A   1     -29.317  -1.951  30.046  0.00  0.00    -0.204 F 
ENDROOT
BRANCH   3   8
ATOM      8  C   UNL A   1     -26.252   0.411  27.422  0.00  0.00    +0.127 C 
ATOM      9 CL   UNL A   1     -25.307   0.292  27.077  0.00  0.00    -0.105 Cl
BRANCH   8  10
ATOM     10  C   UNL A   1     -27.413   0.837  26.293  0.00  0.00    -0.003 A 
ATOM     11  C   UNL A   1     -27.206   0.514  25.117  0.00  0.00    -0.002 A 
ATOM     12  C   UNL A   1     -28.176   0.784  24.045  0.00  0.00    +0.006 A 
ATOM     13  C   UNL A   1     -29.261   1.622  24.388  0.00  0.00    +0.035 A 
ATOM     14  C   UNL A   1     -29.402   2.043  25.760  0.00  0.00    +0.006 A 
ATOM     15  C   UNL A   1     -28.494   1.651  26.729  0.00  0.00    -0.002 A 
ATOM     16 BR   UNL A   1     -30.440   2.145  23.108  0.00  0.00    -0.049 Br
ENDBRANCH   8  10
ENDBRANCH   3   8
BRANCH   5  17
ATOM     17  C   UNL A   1     -27.331   2.127  31.945  0.00  0.00    +0.349 C 
ATOM     18  O   UNL A   1     -26.865   1.480  33.030  0.00  0.00    -0.244 OA
BRANCH  17  19
ATOM     19  O   UNL A   1     -27.787   3.171  32.047  0.00  0.00    -0.421 OA
BRANCH  19  20
ATOM     20  C   UNL A   1     -27.288   4.152  32.753  0.00  0.00    +0.149 A 
ATOM     21  C   UNL A   1     -27.717   5.442  32.653  0.00  0.00    +0.038 A 
ATOM     22  C   UNL A   1     -27.125   6.482  33.428  0.00  0.00    +0.003 A 
ATOM     23  C   UNL A   1     -26.025   6.240  34.289  0.00  0.00    +0.000 A 
ATOM     24  C   UNL A   1     -25.553   4.894  34.327  0.00  0.00    +0.003 A 
ATOM     25  C   UNL A   1     -26.122   3.921  33.584  0.00  0.00    +0.038 A 
ENDBRANCH  19  20
ENDBRANCH  17  19
ENDBRANCH   5  17
BRANCH   6  26
ATOM     26  O   UNL A   1     -26.038   2.284  29.412  0.00  0.00    -0.471 OA
BRANCH  26  27
ATOM     27  C   UNL A   1     -24.759   2.108  29.906  0.00  0.00    +0.232 C 
BRANCH  27  28
ATOM     28  C   UNL A   1     -23.964   1.026  29.721  0.00  0.00    +0.021 A 
ATOM     29  C   UNL A   1     -23.801   0.351  30.954  0.00  0.00    -0.001 A 
ATOM     30  C   UNL A   1     -23.176  -0.932  30.884  0.00  0.00    -0.000 A 
ATOM     31  C   UNL A   1     -22.648  -1.367  29.660  0.00  0.00    -0.000 A 
ATOM     32  C   UNL A   1     -22.627  -0.534  28.564  0.00  0.00    -0.000 A 
ATOM     33  C   UNL A   1     -23.317   0.678  28.671  0.00  0.00    -0.001 A 
ENDBRANCH  27  28
ENDBRANCH  26  27
ENDBRANCH   6  26
TORSDOF 8
