MODEL 685
MODEL 1
REMARK VINA RESULT:    -7.931      0.000      0.000
REMARK INTER + INTRA:         -13.679
REMARK INTER:                 -11.640
REMARK INTRA:                  -2.039
REMARK UNBOUND:                -2.039
REMARK  Name = No_685-gen_results/8p0m/2024-11-26-14-13-15/
REMARK  8 active torsions:
REMARK  status: ('A' for Active; 'I' for Inactive)
REMARK    1  A    between atoms: C_3  and  C_4
REMARK    2  A    between atoms: C_4  and  C_9
REMARK    3  A    between atoms: C_6  and  C_25
REMARK    4  A    between atoms: C_7  and  O_17
REMARK    5  A    between atoms: O_17  and  C_18
REMARK    6  A    between atoms: C_18  and  C_19
REMARK    7  A    between atoms: C_25  and  O_26
REMARK    8  A    between atoms: O_26  and  C_28
REMARK                            x       y       z     vdW  Elec       q    Type
REMARK                         _______ _______ _______ _____ _____    ______ ____
ROOT
ATOM      1  C   UNL A   1     -23.896   1.782  25.126  0.00  0.00    +0.030 A 
ATOM      2  C   UNL A   1     -22.995   2.108  25.564  0.00  0.00    +0.140 A 
ATOM      3  C   UNL A   1     -24.681   0.900  25.989  0.00  0.00    +0.033 A 
ATOM      4  C   UNL A   1     -22.333   1.888  26.843  0.00  0.00    +0.039 A 
ATOM      5  C   UNL A   1     -23.038   1.050  27.681  0.00  0.00    +0.112 A 
ATOM      6  C   UNL A   1     -24.241   0.583  27.300  0.00  0.00    +0.143 A 
ATOM      7  F   UNL A   1     -22.295   3.048  24.696  0.00  0.00    -0.204 F 
ENDROOT
BRANCH   3   8
ATOM      8  C   UNL A   1     -26.029   0.398  25.640  0.00  0.00    +0.127 C 
ATOM      9 CL   UNL A   1     -26.535  -0.441  25.380  0.00  0.00    -0.105 Cl
BRANCH   8  10
ATOM     10  C   UNL A   1     -26.940   1.786  25.853  0.00  0.00    -0.003 A 
ATOM     11  C   UNL A   1     -27.490   2.263  24.853  0.00  0.00    -0.002 A 
ATOM     12  C   UNL A   1     -28.359   3.447  24.922  0.00  0.00    +0.006 A 
ATOM     13  C   UNL A   1     -28.362   4.142  26.153  0.00  0.00    +0.035 A 
ATOM     14  C   UNL A   1     -27.628   3.586  27.262  0.00  0.00    +0.006 A 
ATOM     15  C   UNL A   1     -26.920   2.403  27.134  0.00  0.00    -0.002 A 
ATOM     16 BR   UNL A   1     -29.281   5.702  26.309  0.00  0.00    -0.049 Br
ENDBRANCH   8  10
ENDBRANCH   3   8
BRANCH   5  17
ATOM     17  C   UNL A   1     -22.468   0.797  29.065  0.00  0.00    +0.349 C 
ATOM     18  O   UNL A   1     -21.715  -0.319  29.077  0.00  0.00    -0.244 OA
BRANCH  17  19
ATOM     19  O   UNL A   1     -22.841   1.252  30.045  0.00  0.00    -0.421 OA
BRANCH  19  20
ATOM     20  C   UNL A   1     -23.565   0.635  30.942  0.00  0.00    +0.149 A 
ATOM     21  C   UNL A   1     -23.147  -0.480  31.606  0.00  0.00    +0.038 A 
ATOM     22  C   UNL A   1     -23.982  -1.132  32.559  0.00  0.00    +0.003 A 
ATOM     23  C   UNL A   1     -25.306  -0.694  32.818  0.00  0.00    +0.000 A 
ATOM     24  C   UNL A   1     -25.743   0.435  32.063  0.00  0.00    +0.003 A 
ATOM     25  C   UNL A   1     -24.941   1.039  31.161  0.00  0.00    +0.038 A 
ENDBRANCH  19  20
ENDBRANCH  17  19
ENDBRANCH   5  17
BRANCH   6  26
ATOM     26  O   UNL A   1     -24.915  -0.257  28.058  0.00  0.00    -0.471 OA
BRANCH  26  27
ATOM     27  C   UNL A   1     -24.437  -1.552  27.991  0.00  0.00    +0.232 C 
BRANCH  27  28
ATOM     28  C   UNL A   1     -24.932  -2.631  28.645  0.00  0.00    +0.021 A 
ATOM     29  C   UNL A   1     -26.019  -2.225  29.456  0.00  0.00    -0.001 A 
ATOM     30  C   UNL A   1     -26.790  -3.279  30.036  0.00  0.00    -0.000 A 
ATOM     31  C   UNL A   1     -26.353  -4.603  29.891  0.00  0.00    -0.000 A 
ATOM     32  C   UNL A   1     -25.144  -4.887  29.297  0.00  0.00    -0.000 A 
ATOM     33  C   UNL A   1     -24.470  -3.825  28.685  0.00  0.00    -0.001 A 
ENDBRANCH  27  28
ENDBRANCH  26  27
ENDBRANCH   6  26
TORSDOF 8
ENDMDL
ENDMDL
