REMARK  Name = No_686-gen_results/8p0m/2024-11-26-14-13-15/
REMARK  4 active torsions:
REMARK  status: ('A' for Active; 'I' for Inactive)
REMARK    1  A    between atoms: C_1  and  C_15
REMARK    2  A    between atoms: C_3  and  C_7
REMARK    3  A    between atoms: C_5  and  C_12
REMARK    4  A    between atoms: C_7  and  P_8
REMARK                            x       y       z     vdW  Elec       q    Type
REMARK                         _______ _______ _______ _____ _____    ______ ____
ROOT
ATOM      1  C   UNL A   1     -28.016  -0.814  28.878  0.00  0.00    +0.080 A 
ATOM      2  C   UNL A   1     -27.064  -0.119  28.608  0.00  0.00    +0.003 A 
ATOM      3  C   UNL A   1     -26.972   0.714  27.506  0.00  0.00    -0.015 A 
ATOM      4  C   UNL A   1     -28.105   0.774  26.642  0.00  0.00    +0.003 A 
ATOM      5  C   UNL A   1     -29.204   0.118  27.048  0.00  0.00    +0.080 A 
ATOM      6  C   UNL A   1     -29.213  -0.609  28.128  0.00  0.00    +0.013 A 
ENDROOT
BRANCH   5   7
ATOM      7  C   UNL A   1     -30.421   0.257  26.212  0.00  0.00    +0.388 C 
ATOM      8  O   UNL A   1     -30.448   0.452  25.199  0.00  0.00    -0.241 OA
ATOM      9  O   UNL A   1     -31.568  -0.036  26.814  0.00  0.00    -0.241 OA
ENDBRANCH   5   7
BRANCH   1  10
ATOM     10  C   UNL A   1     -28.102  -1.688  30.124  0.00  0.00    +0.388 C 
ATOM     11  O   UNL A   1     -27.506  -2.791  30.004  0.00  0.00    -0.241 OA
ATOM     12  O   UNL A   1     -28.471  -1.250  31.242  0.00  0.00    -0.241 OA
ENDBRANCH   1  10
BRANCH   3  13
ATOM     13  C   UNL A   1     -25.711   1.452  27.138  0.00  0.00    +0.085 C 
BRANCH  13  14
ATOM     14  P   UNL A   1     -24.332   1.010  27.917  0.00  0.00    +0.122 P 
ATOM     15  O   UNL A   1     -23.197   1.664  27.212  0.00  0.00    -0.460 OA
ATOM     16  O   UNL A   1     -24.421   1.765  29.276  0.00  0.00    -0.357 OA
ATOM     17  O   UNL A   1     -24.163  -0.400  28.107  0.00  0.00    -0.357 OA
ENDBRANCH  13  14
ENDBRANCH   3  13
TORSDOF 4
