MODEL 686
MODEL 1
REMARK VINA RESULT:    -6.011      0.000      0.000
REMARK INTER + INTRA:          -7.677
REMARK INTER:                  -7.417
REMARK INTRA:                  -0.261
REMARK UNBOUND:                -0.261
REMARK  Name = No_686-gen_results/8p0m/2024-11-26-14-13-15/
REMARK  4 active torsions:
REMARK  status: ('A' for Active; 'I' for Inactive)
REMARK    1  A    between atoms: C_1  and  C_15
REMARK    2  A    between atoms: C_3  and  C_7
REMARK    3  A    between atoms: C_5  and  C_12
REMARK    4  A    between atoms: C_7  and  P_8
REMARK                            x       y       z     vdW  Elec       q    Type
REMARK                         _______ _______ _______ _____ _____    ______ ____
ROOT
ATOM      1  C   UNL A   1     -29.795 -14.046  30.885  0.00  0.00    +0.080 A 
ATOM      2  C   UNL A   1     -29.496 -13.298  31.786  0.00  0.00    +0.003 A 
ATOM      3  C   UNL A   1     -28.990 -12.020  31.627  0.00  0.00    -0.015 A 
ATOM      4  C   UNL A   1     -28.841 -11.543  30.291  0.00  0.00    +0.003 A 
ATOM      5  C   UNL A   1     -29.328 -12.329  29.316  0.00  0.00    +0.080 A 
ATOM      6  C   UNL A   1     -29.830 -13.504  29.565  0.00  0.00    +0.013 A 
ENDROOT
BRANCH   5   7
ATOM      7  C   UNL A   1     -29.274 -11.799  27.932  0.00  0.00    +0.388 C 
ATOM      8  O   UNL A   1     -28.717 -12.183  27.152  0.00  0.00    -0.241 OA
ATOM      9  O   UNL A   1     -30.133 -10.825  27.655  0.00  0.00    -0.241 OA
ENDBRANCH   5   7
BRANCH   1  10
ATOM     10  C   UNL A   1     -30.391 -15.433  31.096  0.00  0.00    +0.388 C 
ATOM     11  O   UNL A   1     -30.331 -16.165  30.073  0.00  0.00    -0.241 OA
ATOM     12  O   UNL A   1     -30.650 -15.901  32.233  0.00  0.00    -0.241 OA
ENDBRANCH   1  10
BRANCH   3  13
ATOM     13  C   UNL A   1     -28.500 -11.181  32.779  0.00  0.00    +0.085 C 
BRANCH  13  14
ATOM     14  P   UNL A   1     -27.424 -11.879  33.807  0.00  0.00    +0.122 P 
ATOM     15  O   UNL A   1     -26.784 -10.785  34.586  0.00  0.00    -0.460 OA
ATOM     16  O   UNL A   1     -28.328 -12.607  34.845  0.00  0.00    -0.357 OA
ATOM     17  O   UNL A   1     -26.492 -12.780  33.196  0.00  0.00    -0.357 OA
ENDBRANCH  13  14
ENDBRANCH   3  13
TORSDOF 4
ENDMDL
ENDMDL
