REMARK  Name = No_687-gen_results/8p0m/2024-11-26-14-13-15/
REMARK  4 active torsions:
REMARK  status: ('A' for Active; 'I' for Inactive)
REMARK    1  A    between atoms: C_1  and  N_16
REMARK    2  A    between atoms: C_5  and  O_7
REMARK    3  A    between atoms: C_10  and  C_12
REMARK    4  A    between atoms: N_16  and  C_17
REMARK                            x       y       z     vdW  Elec       q    Type
REMARK                         _______ _______ _______ _____ _____    ______ ____
ROOT
ATOM      1  C   UNL A   1     -28.016  -0.814  28.878  0.00  0.00    +0.073 A 
ATOM      2  C   UNL A   1     -27.064  -0.119  28.608  0.00  0.00    +0.015 A 
ATOM      3  C   UNL A   1     -27.001   0.691  27.491  0.00  0.00    +0.004 A 
ATOM      4  C   UNL A   1     -28.137   0.736  26.635  0.00  0.00    +0.037 A 
ATOM      5  C   UNL A   1     -29.236   0.076  27.069  0.00  0.00    +0.140 A 
ATOM      6  C   UNL A   1     -29.218  -0.643  28.175  0.00  0.00    +0.053 A 
ATOM      7  C   UNL A   1     -25.729  -0.204  29.399  0.00  0.00    +0.002 A 
ATOM      8  C   UNL A   1     -24.565   0.086  28.875  0.00  0.00    +0.007 A 
ATOM      9  C   UNL A   1     -24.583   0.969  27.660  0.00  0.00    +0.080 A 
ATOM     10  C   UNL A   1     -25.708   1.193  26.956  0.00  0.00    +0.007 A 
ENDROOT
BRANCH   9  11
ATOM     11  C   UNL A   1     -23.255   1.543  27.261  0.00  0.00    +0.388 C 
ATOM     12  O   UNL A   1     -22.274   1.438  28.038  0.00  0.00    -0.241 OA
ATOM     13  O   UNL A   1     -23.195   2.182  26.133  0.00  0.00    -0.241 OA
ENDBRANCH   9  11
BRANCH   5  14
ATOM     14  O   UNL A   1     -30.342   0.162  26.279  0.00  0.00    -0.471 OA
ATOM     15  C   UNL A   1     -31.479   0.209  26.729  0.00  0.00    +0.253 C 
ENDBRANCH   5  14
BRANCH   1  16
ATOM     16  N   UNL A   1     -28.124  -1.640  30.041  0.00  0.00    -0.211 NA
BRANCH  16  17
ATOM     17  C   UNL A   1     -29.246  -2.280  30.474  0.00  0.00    +0.087 A 
ATOM     18  C   UNL A   1     -29.455  -3.365  30.593  0.00  0.00    +0.104 A 
ATOM     19  C   UNL A   1     -30.730  -4.040  30.898  0.00  0.00    +0.019 A 
ATOM     20  C   UNL A   1     -31.803  -3.190  31.069  0.00  0.00    +0.002 A 
ATOM     21  C   UNL A   1     -31.656  -1.860  30.898  0.00  0.00    +0.001 A 
ATOM     22  C   UNL A   1     -30.405  -1.297  30.588  0.00  0.00    +0.018 A 
ATOM     23  N   UNL A   1     -28.360  -4.322  30.470  0.00  0.00    -0.127 NA
ENDBRANCH  16  17
ENDBRANCH   1  16
TORSDOF 4
