MODEL 687
MODEL 1
REMARK VINA RESULT:    -7.066      0.000      0.000
REMARK INTER + INTRA:          -9.108
REMARK INTER:                  -8.718
REMARK INTRA:                  -0.390
REMARK UNBOUND:                -0.390
REMARK  Name = No_687-gen_results/8p0m/2024-11-26-14-13-15/
REMARK  4 active torsions:
REMARK  status: ('A' for Active; 'I' for Inactive)
REMARK    1  A    between atoms: C_1  and  N_16
REMARK    2  A    between atoms: C_5  and  O_7
REMARK    3  A    between atoms: C_10  and  C_12
REMARK    4  A    between atoms: N_16  and  C_17
REMARK                            x       y       z     vdW  Elec       q    Type
REMARK                         _______ _______ _______ _____ _____    ______ ____
ROOT
ATOM      1  C   UNL A   1     -24.674  -0.263  28.565  0.00  0.00    +0.073 A 
ATOM      2  C   UNL A   1     -25.304   0.186  27.636  0.00  0.00    +0.015 A 
ATOM      3  C   UNL A   1     -24.781   1.073  26.715  0.00  0.00    +0.004 A 
ATOM      4  C   UNL A   1     -23.414   1.445  26.849  0.00  0.00    +0.037 A 
ATOM      5  C   UNL A   1     -22.709   0.787  27.798  0.00  0.00    +0.140 A 
ATOM      6  C   UNL A   1     -23.284  -0.079  28.611  0.00  0.00    +0.053 A 
ATOM      7  C   UNL A   1     -26.833  -0.048  27.485  0.00  0.00    +0.002 A 
ATOM      8  C   UNL A   1     -27.629   0.787  26.867  0.00  0.00    +0.007 A 
ATOM      9  C   UNL A   1     -26.982   1.721  25.885  0.00  0.00    +0.080 A 
ATOM     10  C   UNL A   1     -25.652   1.923  25.861  0.00  0.00    +0.007 A 
ENDROOT
BRANCH   9  11
ATOM     11  C   UNL A   1     -27.924   2.444  24.967  0.00  0.00    +0.388 C 
ATOM     12  O   UNL A   1     -28.743   3.269  25.443  0.00  0.00    -0.241 OA
ATOM     13  O   UNL A   1     -27.885   2.137  23.707  0.00  0.00    -0.241 OA
ENDBRANCH   9  11
BRANCH   5  14
ATOM     14  O   UNL A   1     -21.387   1.102  27.893  0.00  0.00    -0.471 OA
ATOM     15  C   UNL A   1     -20.529   0.285  28.201  0.00  0.00    +0.253 C 
ENDBRANCH   5  14
BRANCH   1  16
ATOM     16  N   UNL A   1     -25.177  -1.205  29.517  0.00  0.00    -0.211 NA
BRANCH  16  17
ATOM     17  C   UNL A   1     -25.313  -2.547  29.329  0.00  0.00    +0.087 A 
ATOM     18  C   UNL A   1     -26.121  -3.240  29.647  0.00  0.00    +0.104 A 
ATOM     19  C   UNL A   1     -26.164  -4.713  29.583  0.00  0.00    +0.019 A 
ATOM     20  C   UNL A   1     -25.040  -5.297  29.037  0.00  0.00    +0.002 A 
ATOM     21  C   UNL A   1     -23.988  -4.539  28.665  0.00  0.00    +0.001 A 
ATOM     22  C   UNL A   1     -24.020  -3.138  28.778  0.00  0.00    +0.018 A 
ATOM     23  N   UNL A   1     -27.359  -2.693  30.193  0.00  0.00    -0.127 NA
ENDBRANCH  16  17
ENDBRANCH   1  16
TORSDOF 4
ENDMDL
ENDMDL
