MODEL 688
MODEL 1
REMARK VINA RESULT:    -6.189      0.000      0.000
REMARK INTER + INTRA:          -6.638
REMARK INTER:                  -6.551
REMARK INTRA:                  -0.087
REMARK UNBOUND:                -0.087
REMARK  Name = No_688-gen_results/8p0m/2024-11-26-14-13-15/
REMARK  1 active torsions:
REMARK  status: ('A' for Active; 'I' for Inactive)
REMARK    1  A    between atoms: C_3  and  C_7
REMARK                            x       y       z     vdW  Elec       q    Type
REMARK                         _______ _______ _______ _____ _____    ______ ____
ROOT
ATOM      1  C   UNL A   1     -23.861  -1.376  28.712  0.00  0.00    +0.118 C 
ATOM      2  C   UNL A   1     -24.306  -0.462  27.805  0.00  0.00    +0.248 C 
ATOM      3  N   UNL A   1     -23.521   0.598  27.579  0.00  0.00    -0.185 NA
ATOM      4  O   UNL A   1     -25.371  -0.643  27.105  0.00  0.00    -0.273 OA
ATOM      5  C   UNL A   1     -22.341   0.938  28.259  0.00  0.00    +0.204 C 
ATOM      6  C   UNL A   1     -22.610  -1.060  29.368  0.00  0.00    +0.104 C 
ATOM      7  N   UNL A   1     -21.935   0.036  29.096  0.00  0.00    -0.195 NA
ENDROOT
BRANCH   1  10
ATOM      8  C   UNL A   1     -26.438  -3.729  29.878  0.00  0.00    -0.000 A 
ATOM      9  C   UNL A   1     -25.860  -2.689  29.660  0.00  0.00    -0.004 A 
ATOM     10  C   UNL A   1     -24.622  -2.614  29.023  0.00  0.00    -0.012 A 
ATOM     11  C   UNL A   1     -23.946  -3.841  28.646  0.00  0.00    -0.004 A 
ATOM     12  C   UNL A   1     -24.677  -5.014  28.940  0.00  0.00    -0.000 A 
ATOM     13  C   UNL A   1     -25.835  -4.986  29.549  0.00  0.00    -0.000 A 
ENDBRANCH   1  10
TORSDOF 1
ENDMDL
ENDMDL
