MODEL 689
MODEL 1
REMARK VINA RESULT:    -7.363      0.000      0.000
REMARK INTER + INTRA:         -12.375
REMARK INTER:                 -10.376
REMARK INTRA:                  -1.999
REMARK UNBOUND:                -1.999
REMARK  Name = No_689-gen_results/8p0m/2024-11-26-14-13-15/
REMARK  7 active torsions:
REMARK  status: ('A' for Active; 'I' for Inactive)
REMARK    1  A    between atoms: C_1  and  C_25
REMARK    2  A    between atoms: C_3  and  C_14
REMARK    3  A    between atoms: C_14  and  C_15
REMARK    4  A    between atoms: C_16  and  O_21
REMARK    5  A    between atoms: C_18  and  C_28
REMARK    6  A    between atoms: O_21  and  C_22
REMARK    7  A    between atoms: C_22  and  C_23
REMARK                            x       y       z     vdW  Elec       q    Type
REMARK                         _______ _______ _______ _____ _____    ______ ____
ROOT
ATOM      1  C   UNL A   1     -12.398   2.410  34.485  0.00  0.00    +0.056 C 
ENDROOT
BRANCH   1   4
ATOM      2  C   UNL A   1     -14.810   3.994  36.765  0.00  0.00    +0.095 A 
ATOM      3  C   UNL A   1     -14.310   3.249  35.953  0.00  0.00    +0.004 A 
ATOM      4  C   UNL A   1     -12.962   3.236  35.656  0.00  0.00    -0.017 A 
ATOM      5  C   UNL A   1     -12.111   4.122  36.376  0.00  0.00    +0.002 A 
ATOM      6  C   UNL A   1     -12.689   4.809  37.389  0.00  0.00    +0.069 A 
ATOM      7  C   UNL A   1     -13.984   4.729  37.628  0.00  0.00    +0.080 A 
ATOM      8  C   UNL A   1     -11.784   5.701  38.144  0.00  0.00    +0.253 C 
ATOM      9  N   UNL A   1     -12.287   6.407  38.980  0.00  0.00    -0.231 N 
ATOM     10  O   UNL A   1     -10.675   6.019  37.591  0.00  0.00    -0.270 OA
ATOM     11  C   UNL A   1     -13.550   6.231  39.625  0.00  0.00    +0.339 C 
ATOM     12  N   UNL A   1     -14.461   5.478  38.753  0.00  0.00    -0.188 NA
ATOM     13  F   UNL A   1     -14.025   6.930  40.479  0.00  0.00    -0.189 F 
ATOM     14  C   UNL A   1     -11.433   7.406  39.824  0.00  0.00    +0.119 C 
BRANCH   2  15
ATOM     15  C   UNL A   1     -16.286   3.893  37.095  0.00  0.00    +0.389 C 
ATOM     16  O   UNL A   1     -17.158   4.365  36.597  0.00  0.00    -0.240 OA
ATOM     17  O   UNL A   1     -16.391   2.945  38.071  0.00  0.00    -0.240 OA
ENDBRANCH   2  15
ENDBRANCH   1   4
BRANCH   1  18
ATOM     18  C   UNL A   1     -11.263   1.587  34.817  0.00  0.00    +0.016 A 
ATOM     19  C   UNL A   1     -10.177   1.539  34.581  0.00  0.00    +0.135 A 
ATOM     20  C   UNL A   1     -11.582   0.691  36.097  0.00  0.00    -0.001 A 
ATOM     21  C   UNL A   1     -10.561  -0.045  36.674  0.00  0.00    -0.000 A 
ATOM     22  C   UNL A   1      -9.377  -0.024  36.313  0.00  0.00    +0.003 A 
ATOM     23  C   UNL A   1      -9.014   0.790  35.209  0.00  0.00    +0.037 A 
BRANCH  21  24
ATOM     24  C   UNL A   1     -11.042  -0.906  37.874  0.00  0.00    -0.000 A 
ATOM     25  C   UNL A   1     -11.762  -1.939  37.795  0.00  0.00    -0.000 A 
ATOM     26  C   UNL A   1     -12.123  -2.733  38.861  0.00  0.00    -0.000 A 
ATOM     27  C   UNL A   1     -11.701  -2.345  40.123  0.00  0.00    +0.000 A 
ATOM     28  C   UNL A   1     -10.945  -1.269  40.310  0.00  0.00    -0.000 A 
ATOM     29  C   UNL A   1     -10.556  -0.509  39.186  0.00  0.00    -0.000 A 
ENDBRANCH  21  24
BRANCH  19  30
ATOM     30  O   UNL A   1      -9.701   2.269  33.445  0.00  0.00    -0.473 OA
BRANCH  30  31
ATOM     31  C   UNL A   1      -8.673   3.128  33.557  0.00  0.00    +0.241 C 
BRANCH  31  32
ATOM     32  C   UNL A   1      -9.034   4.397  34.137  0.00  0.00    +0.229 C 
ATOM     33  O   UNL A   1     -10.146   4.942  33.498  0.00  0.00    -0.216 OA
ENDBRANCH  31  32
ENDBRANCH  30  31
ENDBRANCH  19  30
ENDBRANCH   1  18
TORSDOF 7
ENDMDL
ENDMDL
