MODEL 68
MODEL 1
REMARK VINA RESULT:    -4.201      0.000      0.000
REMARK INTER + INTRA:          -4.469
REMARK INTER:                  -4.446
REMARK INTRA:                  -0.022
REMARK UNBOUND:                -0.022
REMARK  Name = No_68-gen_results/8p0m/2024-11-26-14-13-15/
REMARK  1 active torsions:
REMARK  status: ('A' for Active; 'I' for Inactive)
REMARK    1  A    between atoms: C_7  and  C_8
REMARK                            x       y       z     vdW  Elec       q    Type
REMARK                         _______ _______ _______ _____ _____    ______ ____
ROOT
ATOM      1  O   UNL A   1     -30.723  -9.961  29.703  0.00  0.00    -0.273 OA
ATOM      2  C   UNL A   1     -29.915 -10.507  30.463  0.00  0.00    +0.241 C 
ATOM      3  C   UNL A   1     -29.041 -11.378  30.117  0.00  0.00    +0.087 C 
ATOM      4  N   UNL A   1     -29.821 -10.069  31.842  0.00  0.00    -0.205 NA
ATOM      5  C   UNL A   1     -28.097 -12.049  30.987  0.00  0.00    +0.017 C 
ATOM      6  C   UNL A   1     -28.847 -10.641  32.643  0.00  0.00    +0.121 C 
ATOM      7  C   UNL A   1     -28.014 -11.614  32.321  0.00  0.00    +0.066 C 
ENDROOT
BRANCH   7   8
ATOM      8  C   UNL A   1     -27.106 -12.177  33.274  0.00  0.00    +0.097 C 
ATOM      9  N   UNL A   1     -27.435 -12.273  34.415  0.00  0.00    -0.151 NA
ENDBRANCH   7   8
TORSDOF 1
ENDMDL
ENDMDL
