REMARK  Name = No_690-gen_results/8p0m/2024-11-26-14-13-15/
REMARK  3 active torsions:
REMARK  status: ('A' for Active; 'I' for Inactive)
REMARK    1  A    between atoms: C_1  and  C_2
REMARK    2  A    between atoms: C_1  and  C_8
REMARK    3  A    between atoms: C_9  and  C_10
REMARK                            x       y       z     vdW  Elec       q    Type
REMARK                         _______ _______ _______ _____ _____    ______ ____
ROOT
ATOM      1  C   UNL A   1     -27.064  -0.119  28.608  0.00  0.00    -0.018 A 
ATOM      2  C   UNL A   1     -26.876   1.133  28.913  0.00  0.00    -0.004 A 
ATOM      3  C   UNL A   1     -25.688   1.952  28.567  0.00  0.00    -0.000 A 
ATOM      4  C   UNL A   1     -24.639   1.283  27.875  0.00  0.00    -0.000 A 
ATOM      5  C   UNL A   1     -24.818  -0.080  27.617  0.00  0.00    -0.000 A 
ATOM      6  C   UNL A   1     -25.931  -0.772  27.970  0.00  0.00    -0.004 A 
ENDROOT
BRANCH   1   7
ATOM      7  C   UNL A   1     -28.016  -0.814  28.878  0.00  0.00    +0.052 C 
BRANCH   7   8
ATOM      8  C   UNL A   1     -28.090  -1.494  30.234  0.00  0.00    -0.021 C 
ATOM      9  C   UNL A   1     -29.207  -2.299  30.651  0.00  0.00    -0.004 C 
BRANCH   9  10
ATOM     10  C   UNL A   1     -30.361  -2.054  30.010  0.00  0.00    -0.000 C 
ATOM     11  C   UNL A   1     -30.449  -1.171  28.972  0.00  0.00    -0.000 C 
ENDBRANCH   9  10
ENDBRANCH   7   8
ENDBRANCH   1   7
TORSDOF 3
