MODEL 691
MODEL 1
REMARK VINA RESULT:    -4.956      0.000      0.000
REMARK INTER + INTRA:          -5.371
REMARK INTER:                  -5.246
REMARK INTRA:                  -0.125
REMARK UNBOUND:                -0.125
REMARK  Name = No_691-gen_results/8p0m/2024-11-26-14-13-15/
REMARK  1 active torsions:
REMARK  status: ('A' for Active; 'I' for Inactive)
REMARK    1  A    between atoms: C_3  and  C_7
REMARK                            x       y       z     vdW  Elec       q    Type
REMARK                         _______ _______ _______ _____ _____    ______ ____
ROOT
ATOM      1  C   UNL A   1     -25.652  -2.647  29.857  0.00  0.00    +0.001 A 
ATOM      2  C   UNL A   1     -26.252  -3.511  29.917  0.00  0.00    -0.000 A 
ATOM      3  C   UNL A   1     -24.403  -2.853  29.113  0.00  0.00    +0.044 A 
ATOM      4  C   UNL A   1     -23.994  -4.061  28.722  0.00  0.00    +0.001 A 
ATOM      5  C   UNL A   1     -26.021  -4.899  29.596  0.00  0.00    -0.000 A 
ATOM      6  C   UNL A   1     -24.844  -5.073  28.929  0.00  0.00    -0.000 A 
ENDROOT
BRANCH   3   7
ATOM      7  C   UNL A   1     -23.537  -1.615  28.895  0.00  0.00    +0.341 C 
ATOM      8  F   UNL A   1     -24.138  -0.695  28.439  0.00  0.00    -0.193 F 
ATOM      9  F   UNL A   1     -22.267  -1.671  28.983  0.00  0.00    -0.193 F 
ENDBRANCH   3   7
TORSDOF 1
ENDMDL
ENDMDL
