MODEL 692
MODEL 1
REMARK VINA RESULT:    -5.848      0.000      0.000
REMARK INTER + INTRA:          -6.809
REMARK INTER:                  -6.532
REMARK INTRA:                  -0.277
REMARK UNBOUND:                -0.277
REMARK  Name = No_692-gen_results/8p0m/2024-11-26-14-13-15/
REMARK  2 active torsions:
REMARK  status: ('A' for Active; 'I' for Inactive)
REMARK    1  A    between atoms: C_2  and  C_11
REMARK    2  A    between atoms: C_3  and  C_7
REMARK                            x       y       z     vdW  Elec       q    Type
REMARK                         _______ _______ _______ _____ _____    ______ ____
ROOT
ATOM      1  C   UNL A   1     -28.404 -11.814  31.164  0.00  0.00    +0.010 A 
ATOM      2  C   UNL A   1     -28.265 -11.514  32.164  0.00  0.00    +0.080 A 
ATOM      3  C   UNL A   1     -29.318 -11.079  30.376  0.00  0.00    +0.072 A 
ATOM      4  C   UNL A   1     -30.026 -10.009  30.887  0.00  0.00    +0.004 A 
ATOM      5  C   UNL A   1     -28.883 -10.423  32.943  0.00  0.00    +0.007 A 
ATOM      6  C   UNL A   1     -29.766  -9.695  32.227  0.00  0.00    +0.000 A 
ENDROOT
BRANCH   3   7
ATOM      7  C   UNL A   1     -29.580 -11.379  28.929  0.00  0.00    +0.419 C 
ATOM      8  F   UNL A   1     -28.626 -11.684  28.391  0.00  0.00    -0.166 F 
ATOM      9  F   UNL A   1     -30.142 -10.306  28.248  0.00  0.00    -0.166 F 
ATOM     10  F   UNL A   1     -30.603 -12.332  28.823  0.00  0.00    -0.166 F 
ENDBRANCH   3   7
BRANCH   2  11
ATOM     11  C   UNL A   1     -27.161 -12.236  33.087  0.00  0.00    +0.388 C 
ATOM     12  O   UNL A   1     -26.358 -13.011  32.633  0.00  0.00    -0.241 OA
ATOM     13  O   UNL A   1     -27.338 -12.235  34.385  0.00  0.00    -0.241 OA
ENDBRANCH   2  11
TORSDOF 2
ENDMDL
ENDMDL
