MODEL 693
MODEL 1
REMARK VINA RESULT:    -4.717      0.000      0.000
REMARK INTER + INTRA:          -4.717
REMARK INTER:                  -4.717
REMARK INTRA:                   0.000
REMARK UNBOUND:                 0.000
REMARK  Name = No_693-gen_results/8p0m/2024-11-26-14-13-15/
REMARK  0 active torsions:
REMARK  status: ('A' for Active; 'I' for Inactive)
REMARK                            x       y       z     vdW  Elec       q    Type
REMARK                         _______ _______ _______ _____ _____    ______ ____
ROOT
ATOM      1  C   UNL A   1     -24.110  -2.827  29.373  0.00  0.00    +0.030 C 
ATOM      2  C   UNL A   1     -23.471  -2.126  28.915  0.00  0.00    +0.125 C 
ATOM      3  C   UNL A   1     -25.478  -2.426  29.536  0.00  0.00    +0.033 C 
ATOM      4  C   UNL A   1     -26.507  -3.393  29.971  0.00  0.00    +0.005 C 
ATOM      5  C   UNL A   1     -26.347  -4.753  29.648  0.00  0.00    +0.001 C 
ATOM      6  C   UNL A   1     -25.126  -5.183  29.088  0.00  0.00    +0.005 C 
ATOM      7  C   UNL A   1     -24.134  -4.306  28.845  0.00  0.00    +0.033 C 
ATOM      8  O   UNL A   1     -23.354  -0.976  29.120  0.00  0.00    -0.232 OA
ENDROOT
TORSDOF 0
ENDMDL
ENDMDL
