REMARK  Name = No_694-gen_results/8p0m/2024-11-26-14-13-15/
REMARK  0 active torsions:
REMARK  status: ('A' for Active; 'I' for Inactive)
REMARK                            x       y       z     vdW  Elec       q    Type
REMARK                         _______ _______ _______ _____ _____    ______ ____
ROOT
ATOM      1  F   UNL A   1     -28.073  -1.254  28.532  0.00  0.00    -0.203 F 
ATOM      2  C   UNL A   1     -28.266  -0.421  29.193  0.00  0.00    +0.153 A 
ATOM      3  C   UNL A   1     -29.445   0.076  29.339  0.00  0.00    +0.061 A 
ATOM      4  C   UNL A   1     -29.707   1.174  30.228  0.00  0.00    +0.153 A 
ATOM      5  C   UNL A   1     -28.597   1.711  30.911  0.00  0.00    +0.086 A 
ATOM      6  C   UNL A   1     -27.302   1.182  30.791  0.00  0.00    +0.027 A 
ATOM      7  C   UNL A   1     -27.122   0.122  29.980  0.00  0.00    +0.086 A 
ATOM      8 CL   UNL A   1     -25.588  -0.537  29.816  0.00  0.00    -0.080 Cl
ATOM      9  F   UNL A   1     -30.920   1.672  30.350  0.00  0.00    -0.203 F 
ATOM     10 CL   UNL A   1     -28.776   3.043  32.004  0.00  0.00    -0.080 Cl
ENDROOT
TORSDOF 0
