MODEL 694
MODEL 1
REMARK VINA RESULT:    -4.923      0.000      0.000
REMARK INTER + INTRA:          -4.923
REMARK INTER:                  -4.923
REMARK INTRA:                   0.000
REMARK UNBOUND:                 0.000
REMARK  Name = No_694-gen_results/8p0m/2024-11-26-14-13-15/
REMARK  0 active torsions:
REMARK  status: ('A' for Active; 'I' for Inactive)
REMARK                            x       y       z     vdW  Elec       q    Type
REMARK                         _______ _______ _______ _____ _____    ______ ____
ROOT
ATOM      1  F   UNL A   1     -25.178  -5.646  28.955  0.00  0.00    -0.203 F 
ATOM      2  C   UNL A   1     -25.058  -4.591  29.158  0.00  0.00    +0.153 A 
ATOM      3  C   UNL A   1     -23.982  -3.955  28.850  0.00  0.00    +0.061 A 
ATOM      4  C   UNL A   1     -23.825  -2.549  29.106  0.00  0.00    +0.153 A 
ATOM      5  C   UNL A   1     -24.898  -1.902  29.750  0.00  0.00    +0.086 A 
ATOM      6  C   UNL A   1     -26.093  -2.560  30.083  0.00  0.00    +0.027 A 
ATOM      7  C   UNL A   1     -26.205  -3.866  29.776  0.00  0.00    +0.086 A 
ATOM      8 CL   UNL A   1     -27.621  -4.682  30.157  0.00  0.00    -0.080 Cl
ATOM      9  F   UNL A   1     -22.709  -1.924  28.792  0.00  0.00    -0.203 F 
ATOM     10 CL   UNL A   1     -24.831  -0.212  30.125  0.00  0.00    -0.080 Cl
ENDROOT
TORSDOF 0
ENDMDL
ENDMDL
