REMARK  Name = No_695-gen_results/8p0m/2024-11-26-14-13-15/
REMARK  2 active torsions:
REMARK  status: ('A' for Active; 'I' for Inactive)
REMARK    1  A    between atoms: C_2  and  C_10
REMARK    2  A    between atoms: C_6  and  C_7
REMARK                            x       y       z     vdW  Elec       q    Type
REMARK                         _______ _______ _______ _____ _____    ______ ____
ROOT
ATOM      1  C   UNL A   1     -28.016  -0.814  28.878  0.00  0.00    +0.008 A 
ATOM      2  C   UNL A   1     -27.064  -0.119  28.608  0.00  0.00    +0.046 A 
ATOM      3  C   UNL A   1     -25.792  -0.430  29.076  0.00  0.00    +0.031 A 
ATOM      4  C   UNL A   1     -25.576  -1.565  29.936  0.00  0.00    +0.140 A 
ATOM      5  C   UNL A   1     -26.735  -2.300  30.217  0.00  0.00    +0.036 A 
ATOM      6  C   UNL A   1     -27.918  -1.954  29.763  0.00  0.00    +0.082 A 
ATOM      7  F   UNL A   1     -24.395  -1.829  30.349  0.00  0.00    -0.204 F 
ENDROOT
BRANCH   6   8
ATOM      8  C   UNL A   1     -29.073  -2.784  30.178  0.00  0.00    +0.388 C 
ATOM      9  O   UNL A   1     -29.322  -2.795  31.389  0.00  0.00    -0.241 OA
ATOM     10  O   UNL A   1     -29.338  -3.887  29.513  0.00  0.00    -0.241 OA
ENDBRANCH   6   8
BRANCH   2  11
ATOM     11  C   UNL A   1     -27.090   1.108  27.748  0.00  0.00    +0.341 C 
ATOM     12  F   UNL A   1     -28.140   1.317  27.277  0.00  0.00    -0.193 F 
ATOM     13  F   UNL A   1     -26.070   1.628  27.246  0.00  0.00    -0.193 F 
ENDBRANCH   2  11
TORSDOF 2
