MODEL 695
MODEL 1
REMARK VINA RESULT:    -5.825      0.000      0.000
REMARK INTER + INTRA:          -6.651
REMARK INTER:                  -6.506
REMARK INTRA:                  -0.145
REMARK UNBOUND:                -0.145
REMARK  Name = No_695-gen_results/8p0m/2024-11-26-14-13-15/
REMARK  2 active torsions:
REMARK  status: ('A' for Active; 'I' for Inactive)
REMARK    1  A    between atoms: C_2  and  C_10
REMARK    2  A    between atoms: C_6  and  C_7
REMARK                            x       y       z     vdW  Elec       q    Type
REMARK                         _______ _______ _______ _____ _____    ______ ____
ROOT
ATOM      1  C   UNL A   1     -28.305 -11.653  31.005  0.00  0.00    +0.008 A 
ATOM      2  C   UNL A   1     -29.164 -11.069  30.386  0.00  0.00    +0.046 A 
ATOM      3  C   UNL A   1     -29.947 -10.092  30.991  0.00  0.00    +0.031 A 
ATOM      4  C   UNL A   1     -29.790  -9.777  32.387  0.00  0.00    +0.140 A 
ATOM      5  C   UNL A   1     -28.790 -10.515  33.033  0.00  0.00    +0.036 A 
ATOM      6  C   UNL A   1     -28.089 -11.441  32.420  0.00  0.00    +0.082 A 
ATOM      7  F   UNL A   1     -30.522  -8.871  32.916  0.00  0.00    -0.204 F 
ENDROOT
BRANCH   6   8
ATOM      8  C   UNL A   1     -27.099 -12.189  33.229  0.00  0.00    +0.388 C 
ATOM      9  O   UNL A   1     -26.448 -13.050  32.625  0.00  0.00    -0.241 OA
ATOM     10  O   UNL A   1     -27.362 -12.431  34.495  0.00  0.00    -0.241 OA
ENDBRANCH   6   8
BRANCH   2  11
ATOM     11  C   UNL A   1     -29.490 -11.270  28.937  0.00  0.00    +0.341 C 
ATOM     12  F   UNL A   1     -28.721 -11.956  28.384  0.00  0.00    -0.193 F 
ATOM     13  F   UNL A   1     -30.227 -10.505  28.277  0.00  0.00    -0.193 F 
ENDBRANCH   2  11
TORSDOF 2
ENDMDL
ENDMDL
