REMARK  Name = No_696-gen_results/8p0m/2024-11-26-14-13-15/
REMARK  0 active torsions:
REMARK  status: ('A' for Active; 'I' for Inactive)
REMARK                            x       y       z     vdW  Elec       q    Type
REMARK                         _______ _______ _______ _____ _____    ______ ____
ROOT
ATOM      1  C   UNL A   1     -28.016  -0.814  28.878  0.00  0.00    +0.081 A 
ATOM      2  C   UNL A   1     -27.064  -0.119  28.608  0.00  0.00    +0.018 A 
ATOM      3  C   UNL A   1     -27.001   0.691  27.491  0.00  0.00    +0.003 A 
ATOM      4  C   UNL A   1     -28.142   0.828  26.799  0.00  0.00    +0.021 A 
ATOM      5  C   UNL A   1     -27.931  -1.607  30.150  0.00  0.00    +0.019 A 
ATOM      6  C   UNL A   1     -26.709  -1.784  30.745  0.00  0.00    +0.002 A 
ATOM      7  C   UNL A   1     -25.573  -1.181  30.308  0.00  0.00    +0.000 A 
ATOM      8  C   UNL A   1     -25.684  -0.306  29.235  0.00  0.00    +0.002 A 
ATOM      9  C   UNL A   1     -29.257   0.293  27.343  0.00  0.00    +0.099 A 
ATOM     10  N   UNL A   1     -29.223  -0.519  28.405  0.00  0.00    -0.244 NA
ENDROOT
TORSDOF 0
