MODEL 696
MODEL 1
REMARK VINA RESULT:    -5.275      0.000      0.000
REMARK INTER + INTRA:          -5.275
REMARK INTER:                  -5.275
REMARK INTRA:                   0.000
REMARK UNBOUND:                 0.000
REMARK  Name = No_696-gen_results/8p0m/2024-11-26-14-13-15/
REMARK  0 active torsions:
REMARK  status: ('A' for Active; 'I' for Inactive)
REMARK                            x       y       z     vdW  Elec       q    Type
REMARK                         _______ _______ _______ _____ _____    ______ ____
ROOT
ATOM      1  C   UNL A   1     -24.015  -2.991  29.251  0.00  0.00    +0.081 A 
ATOM      2  C   UNL A   1     -25.076  -2.534  29.610  0.00  0.00    +0.018 A 
ATOM      3  C   UNL A   1     -25.234  -1.243  30.075  0.00  0.00    +0.003 A 
ATOM      4  C   UNL A   1     -24.175  -0.432  29.930  0.00  0.00    +0.021 A 
ATOM      5  C   UNL A   1     -24.029  -4.403  28.742  0.00  0.00    +0.019 A 
ATOM      6  C   UNL A   1     -25.109  -5.200  29.016  0.00  0.00    +0.002 A 
ATOM      7  C   UNL A   1     -26.232  -4.748  29.632  0.00  0.00    +0.000 A 
ATOM      8  C   UNL A   1     -26.290  -3.396  29.946  0.00  0.00    +0.002 A 
ATOM      9  C   UNL A   1     -23.131  -0.908  29.216  0.00  0.00    +0.099 A 
ATOM     10  N   UNL A   1     -23.038  -2.188  28.841  0.00  0.00    -0.244 NA
ENDROOT
TORSDOF 0
ENDMDL
ENDMDL
