MODEL 698
MODEL 1
REMARK VINA RESULT:    -4.799      0.000      0.000
REMARK INTER + INTRA:          -5.146
REMARK INTER:                  -5.080
REMARK INTRA:                  -0.066
REMARK UNBOUND:                -0.066
REMARK  Name = No_698-gen_results/8p0m/2024-11-26-14-13-15/
REMARK  1 active torsions:
REMARK  status: ('A' for Active; 'I' for Inactive)
REMARK    1  A    between atoms: C_3  and  C_5
REMARK                            x       y       z     vdW  Elec       q    Type
REMARK                         _______ _______ _______ _____ _____    ______ ____
ROOT
ATOM      1  O   UNL A   1     -22.913  -2.132  28.916  0.00  0.00    -0.273 OA
ATOM      2  C   UNL A   1     -23.971  -2.526  29.147  0.00  0.00    +0.245 C 
ATOM      3  C   UNL A   1     -24.569  -3.428  29.081  0.00  0.00    +0.100 C 
ATOM      4  N   UNL A   1     -24.784  -1.440  29.893  0.00  0.00    -0.205 NA
ATOM      5  C   UNL A   1     -26.042  -1.661  30.399  0.00  0.00    +0.115 C 
ATOM      6  C   UNL A   1     -26.606  -2.895  30.185  0.00  0.00    +0.024 C 
ATOM      7  C   UNL A   1     -25.962  -3.822  29.619  0.00  0.00    +0.015 C 
ENDROOT
BRANCH   3   8
ATOM      8  C   UNL A   1     -24.124  -4.675  28.529  0.00  0.00    -0.017 C 
ATOM      9  C   UNL A   1     -24.733  -5.672  28.881  0.00  0.00    -0.004 C 
ENDBRANCH   3   8
TORSDOF 1
ENDMDL
ENDMDL
