MODEL 69
MODEL 1
REMARK VINA RESULT:    -5.029      0.000      0.000
REMARK INTER + INTRA:          -5.029
REMARK INTER:                  -5.029
REMARK INTRA:                   0.000
REMARK UNBOUND:                 0.000
REMARK  Name = No_69-gen_results/8p0m/2024-11-26-14-13-15/
REMARK  0 active torsions:
REMARK  status: ('A' for Active; 'I' for Inactive)
REMARK                            x       y       z     vdW  Elec       q    Type
REMARK                         _______ _______ _______ _____ _____    ______ ____
ROOT
ATOM      1  C   UNL A   1     -10.043 -10.117  17.945  0.00  0.00    +0.196 A 
ATOM      2  C   UNL A   1      -9.085 -10.854  17.946  0.00  0.00    +0.042 A 
ATOM      3  C   UNL A   1      -8.010 -10.710  18.802  0.00  0.00    +0.003 A 
ATOM      4  C   UNL A   1      -8.159  -9.811  19.786  0.00  0.00    +0.000 A 
ATOM      5  C   UNL A   1     -10.362  -9.380  19.106  0.00  0.00    +0.042 A 
ATOM      6  C   UNL A   1      -9.347  -9.176  19.947  0.00  0.00    +0.003 A 
ATOM      7  O   UNL A   1     -11.090 -10.378  17.034  0.00  0.00    -0.287 OA
ENDROOT
TORSDOF 0
ENDMDL
ENDMDL
