REMARK  Name = No_7-gen_results/8p0m/2024-11-26-14-13-15/
REMARK  12 active torsions:
REMARK  status: ('A' for Active; 'I' for Inactive)
REMARK    1  A    between atoms: C_2  and  C_9
REMARK    2  A    between atoms: C_4  and  O_7
REMARK    3  A    between atoms: O_7  and  C_8
REMARK    4  A    between atoms: C_9  and  O_11
REMARK    5  A    between atoms: O_11  and  C_19
REMARK    6  A    between atoms: C_12  and  C_14
REMARK    7  A    between atoms: C_14  and  C_16
REMARK    8  A    between atoms: C_19  and  C_20
REMARK    9  A    between atoms: N_22  and  C_23
REMARK   10  A    between atoms: C_23  and  C_24
REMARK   11  A    between atoms: C_24  and  C_25
REMARK   12  A    between atoms: C_26  and  C_27
REMARK                            x       y       z     vdW  Elec       q    Type
REMARK                         _______ _______ _______ _____ _____    ______ ____
ROOT
ATOM      1  O   UNL A   1     -30.638   0.215  29.324  0.00  0.00    -0.438 OA
ENDROOT
BRANCH   1   2
ATOM      2  C   UNL A   1     -30.099  -0.828  29.868  0.00  0.00    +0.342 C 
ATOM      3  O   UNL A   1     -30.730  -1.695  30.242  0.00  0.00    -0.245 OA
BRANCH   2   5
ATOM      4  C   UNL A   1     -28.016  -0.814  28.878  0.00  0.00    +0.010 A 
ATOM      5  C   UNL A   1     -28.469  -0.785  29.829  0.00  0.00    +0.076 A 
ATOM      6  C   UNL A   1     -26.504  -0.778  28.877  0.00  0.00    +0.038 A 
ATOM      7  C   UNL A   1     -25.810  -0.853  30.103  0.00  0.00    +0.145 A 
ATOM      8  C   UNL A   1     -27.991  -0.892  31.226  0.00  0.00    +0.010 A 
ATOM      9  C   UNL A   1     -26.604  -0.868  31.265  0.00  0.00    +0.038 A 
BRANCH   7  10
ATOM     10  O   UNL A   1     -24.500  -0.782  30.145  0.00  0.00    -0.458 OA
BRANCH  10  11
ATOM     11  C   UNL A   1     -23.689  -1.246  29.315  0.00  0.00    +0.123 C 
ATOM     12  C   UNL A   1     -22.376  -0.621  29.262  0.00  0.00    +0.040 C 
ATOM     13  C   UNL A   1     -23.934  -2.367  28.563  0.00  0.00    +0.072 C 
BRANCH  12  14
ATOM     14  C   UNL A   1     -21.931   0.340  28.742  0.00  0.00    +0.083 C 
ATOM     15  C   UNL A   1     -20.583   0.562  28.258  0.00  0.00    +0.007 C 
BRANCH  14  16
ATOM     16  C   UNL A   1     -22.907   1.440  28.369  0.00  0.00    +0.388 C 
ATOM     17  O   UNL A   1     -22.525   2.345  27.472  0.00  0.00    -0.241 OA
ATOM     18  O   UNL A   1     -23.955   1.587  28.907  0.00  0.00    -0.241 OA
ENDBRANCH  14  16
ENDBRANCH  12  14
ENDBRANCH  10  11
ENDBRANCH   7  10
ENDBRANCH   2   5
ENDBRANCH   1   2
BRANCH   1  19
ATOM     19  C   UNL A   1     -31.899   0.277  28.904  0.00  0.00    +0.263 C 
BRANCH  19  20
ATOM     20  C   UNL A   1     -32.205  -0.229  27.685  0.00  0.00    +0.152 C 
ATOM     21 CL   UNL A   1     -32.972  -1.476  27.315  0.00  0.00    -0.065 Cl
ATOM     22  N   UNL A   1     -31.529   0.380  26.602  0.00  0.00    -0.168 NA
BRANCH  22  23
ATOM     23  C   UNL A   1     -31.590  -0.162  25.307  0.00  0.00    +0.250 C 
ATOM     24  O   UNL A   1     -32.640  -0.114  24.764  0.00  0.00    -0.273 OA
BRANCH  23  25
ATOM     25  C   UNL A   1     -30.341  -0.534  24.752  0.00  0.00    +0.100 C 
ATOM     26  C   UNL A   1     -30.502  -1.548  23.693  0.00  0.00    +0.014 C 
BRANCH  25  27
ATOM     27  C   UNL A   1     -29.234  -0.339  25.227  0.00  0.00    -0.022 C 
ATOM     28  C   UNL A   1     -28.588   0.794  24.970  0.00  0.00    -0.026 C 
ATOM     29  C   UNL A   1     -29.370   1.752  24.133  0.00  0.00    +0.031 C 
BRANCH  28  30
ATOM     30  C   UNL A   1     -27.644   1.363  25.464  0.00  0.00    -0.004 A 
ATOM     31  C   UNL A   1     -27.303   1.940  26.476  0.00  0.00    -0.000 A 
ATOM     32  C   UNL A   1     -26.047   2.550  26.864  0.00  0.00    -0.000 A 
ATOM     33  C   UNL A   1     -25.024   2.264  25.996  0.00  0.00    -0.000 A 
ATOM     34  C   UNL A   1     -25.167   1.501  24.857  0.00  0.00    -0.000 A 
ATOM     35  C   UNL A   1     -26.402   1.028  24.585  0.00  0.00    -0.000 A 
ENDBRANCH  28  30
ENDBRANCH  25  27
ENDBRANCH  23  25
ENDBRANCH  22  23
ENDBRANCH  19  20
ENDBRANCH   1  19
TORSDOF 12
