REMARK  Name = No_70-gen_results/8p0m/2024-11-26-14-13-15/
REMARK  5 active torsions:
REMARK  status: ('A' for Active; 'I' for Inactive)
REMARK    1  A    between atoms: C_1  and  C_2
REMARK    2  A    between atoms: C_4  and  C_18
REMARK    3  A    between atoms: C_5  and  C_6
REMARK    4  A    between atoms: C_14  and  O_17
REMARK    5  A    between atoms: O_17  and  C_21
REMARK                            x       y       z     vdW  Elec       q    Type
REMARK                         _______ _______ _______ _____ _____    ______ ____
ROOT
ATOM      1  C   UNL A   1     -28.016  -0.814  28.878  0.00  0.00    +0.061 C 
ATOM      2  C   UNL A   1     -28.015  -1.279  30.342  0.00  0.00    +0.008 C 
ATOM      3  C   UNL A   1     -28.998  -1.191  31.089  0.00  0.00    +0.005 C 
ATOM      4  C   UNL A   1     -29.974  -1.116  30.853  0.00  0.00    +0.051 C 
ATOM      5  C   UNL A   1     -30.373  -0.853  29.502  0.00  0.00    +0.222 C 
ATOM      6  C   UNL A   1     -29.331  -0.378  28.698  0.00  0.00    +0.190 C 
ATOM      7  O   UNL A   1     -29.614   0.075  27.445  0.00  0.00    -0.292 OA
ENDROOT
BRANCH   1   8
ATOM      8  C   UNL A   1     -27.064  -0.119  28.608  0.00  0.00    +0.008 C 
ATOM      9  C   UNL A   1     -26.876   1.133  28.913  0.00  0.00    +0.012 C 
ATOM     10  C   UNL A   1     -25.688   1.952  28.567  0.00  0.00    +0.114 C 
ATOM     11  C   UNL A   1     -24.639   1.283  27.875  0.00  0.00    +0.114 C 
ATOM     12  C   UNL A   1     -25.763  -0.788  28.143  0.00  0.00    +0.001 C 
ATOM     13  C   UNL A   1     -24.628  -0.098  27.726  0.00  0.00    +0.012 C 
BRANCH  11  14
ATOM     14  C   UNL A   1     -23.456   2.000  27.565  0.00  0.00    +0.365 C 
ATOM     15  O   UNL A   1     -22.971   2.071  26.500  0.00  0.00    -0.246 OA
ATOM     16  O   UNL A   1     -22.718   2.475  28.616  0.00  0.00    -0.246 OA
ENDBRANCH  11  14
BRANCH  10  17
ATOM     17  C   UNL A   1     -25.665   3.378  28.790  0.00  0.00    +0.365 C 
ATOM     18  O   UNL A   1     -25.814   3.718  29.876  0.00  0.00    -0.246 OA
ATOM     19  O   UNL A   1     -25.967   4.119  27.729  0.00  0.00    -0.246 OA
ENDBRANCH  10  17
ENDBRANCH   1   8
BRANCH   5  20
ATOM     20  O   UNL A   1     -31.596  -0.494  29.074  0.00  0.00    -0.472 OA
BRANCH  20  21
ATOM     21  C   UNL A   1     -32.097   0.594  29.138  0.00  0.00    +0.139 A 
ATOM     22  C   UNL A   1     -32.595   1.093  28.136  0.00  0.00    +0.037 A 
ATOM     23  C   UNL A   1     -33.116   2.492  28.153  0.00  0.00    +0.003 A 
ATOM     24  C   UNL A   1     -33.103   3.180  29.378  0.00  0.00    +0.000 A 
ATOM     25  C   UNL A   1     -32.502   2.559  30.473  0.00  0.00    +0.003 A 
ATOM     26  C   UNL A   1     -31.956   1.344  30.395  0.00  0.00    +0.037 A 
ENDBRANCH  20  21
ENDBRANCH   5  20
TORSDOF 5
