REMARK  Name = No_700-gen_results/8p0m/2024-11-26-14-13-15/
REMARK  2 active torsions:
REMARK  status: ('A' for Active; 'I' for Inactive)
REMARK    1  A    between atoms: C_3  and  C_7
REMARK    2  A    between atoms: C_6  and  C_13
REMARK                            x       y       z     vdW  Elec       q    Type
REMARK                         _______ _______ _______ _____ _____    ______ ____
ROOT
ATOM      1  C   UNL A   1     -28.016  -0.814  28.878  0.00  0.00    +0.007 A 
ATOM      2  C   UNL A   1     -27.064  -0.119  28.608  0.00  0.00    +0.000 A 
ATOM      3  C   UNL A   1     -25.765  -0.390  29.036  0.00  0.00    +0.000 A 
ATOM      4  C   UNL A   1     -25.530  -1.530  29.901  0.00  0.00    +0.000 A 
ATOM      5  C   UNL A   1     -26.658  -2.292  30.203  0.00  0.00    +0.007 A 
ATOM      6  C   UNL A   1     -27.855  -1.956  29.763  0.00  0.00    +0.080 A 
ENDROOT
BRANCH   3   7
ATOM      7  C   UNL A   1     -24.535   0.413  28.743  0.00  0.00    +0.000 A 
ATOM      8  C   UNL A   1     -23.306   0.037  29.039  0.00  0.00    +0.000 A 
ATOM      9  C   UNL A   1     -22.176   0.828  28.684  0.00  0.00    +0.000 A 
ATOM     10  C   UNL A   1     -22.355   1.829  27.688  0.00  0.00    +0.000 A 
ATOM     11  C   UNL A   1     -24.594   1.496  27.768  0.00  0.00    +0.000 A 
ATOM     12  C   UNL A   1     -23.550   2.170  27.330  0.00  0.00    +0.000 A 
ENDBRANCH   3   7
BRANCH   6  13
ATOM     13  C   UNL A   1     -29.104  -2.600  30.191  0.00  0.00    +0.388 C 
ATOM     14  O   UNL A   1     -29.101  -3.790  30.473  0.00  0.00    -0.241 OA
ATOM     15  O   UNL A   1     -30.018  -1.919  30.791  0.00  0.00    -0.241 OA
ENDBRANCH   6  13
TORSDOF 2
