MODEL 700
MODEL 1
REMARK VINA RESULT:    -6.874      0.000      0.000
REMARK INTER + INTRA:          -8.095
REMARK INTER:                  -7.678
REMARK INTRA:                  -0.417
REMARK UNBOUND:                -0.417
REMARK  Name = No_700-gen_results/8p0m/2024-11-26-14-13-15/
REMARK  2 active torsions:
REMARK  status: ('A' for Active; 'I' for Inactive)
REMARK    1  A    between atoms: C_3  and  C_7
REMARK    2  A    between atoms: C_6  and  C_13
REMARK                            x       y       z     vdW  Elec       q    Type
REMARK                         _______ _______ _______ _____ _____    ______ ____
ROOT
ATOM      1  C   UNL A   1     -27.654 -12.061  31.939  0.00  0.00    +0.007 A 
ATOM      2  C   UNL A   1     -28.088 -12.089  30.811  0.00  0.00    +0.000 A 
ATOM      3  C   UNL A   1     -29.085 -11.232  30.346  0.00  0.00    +0.000 A 
ATOM      4  C   UNL A   1     -29.688 -10.286  31.266  0.00  0.00    +0.000 A 
ATOM      5  C   UNL A   1     -29.171 -10.301  32.561  0.00  0.00    +0.007 A 
ATOM      6  C   UNL A   1     -28.233 -11.156  32.919  0.00  0.00    +0.080 A 
ENDROOT
BRANCH   3   7
ATOM      7  C   UNL A   1     -29.673 -11.199  28.969  0.00  0.00    +0.000 A 
ATOM      8  C   UNL A   1     -30.512 -10.278  28.534  0.00  0.00    +0.000 A 
ATOM      9  C   UNL A   1     -30.992 -10.278  27.194  0.00  0.00    +0.000 A 
ATOM     10  C   UNL A   1     -30.277 -11.048  26.234  0.00  0.00    +0.000 A 
ATOM     11  C   UNL A   1     -29.056 -11.976  27.901  0.00  0.00    +0.000 A 
ATOM     12  C   UNL A   1     -29.399 -11.911  26.630  0.00  0.00    +0.000 A 
ENDBRANCH   3   7
BRANCH   6  13
ATOM     13  C   UNL A   1     -27.777 -11.352  34.301  0.00  0.00    +0.388 C 
ATOM     14  O   UNL A   1     -27.886 -12.454  34.820  0.00  0.00    -0.241 OA
ATOM     15  O   UNL A   1     -26.819 -10.637  34.781  0.00  0.00    -0.241 OA
ENDBRANCH   6  13
TORSDOF 2
ENDMDL
ENDMDL
