REMARK  Name = No_701-gen_results/8p0m/2024-11-26-14-13-15/
REMARK  2 active torsions:
REMARK  status: ('A' for Active; 'I' for Inactive)
REMARK    1  A    between atoms: C_3  and  C_15
REMARK    2  A    between atoms: C_5  and  C_11
REMARK                            x       y       z     vdW  Elec       q    Type
REMARK                         _______ _______ _______ _____ _____    ______ ____
ROOT
ATOM      1  C   UNL A   1     -28.016  -0.814  28.878  0.00  0.00    +0.030 A 
ATOM      2  C   UNL A   1     -27.064  -0.119  28.608  0.00  0.00    +0.007 A 
ATOM      3  C   UNL A   1     -27.001   0.691  27.491  0.00  0.00    +0.054 A 
ATOM      4  C   UNL A   1     -25.855   1.482  27.083  0.00  0.00    +0.006 A 
ATOM      5  C   UNL A   1     -24.690   1.453  27.881  0.00  0.00    +0.044 A 
ATOM      6  C   UNL A   1     -24.738   0.601  29.042  0.00  0.00    +0.001 A 
ATOM      7  C   UNL A   1     -25.823  -0.169  29.389  0.00  0.00    +0.000 A 
ATOM      8  C   UNL A   1     -28.038  -1.535  30.205  0.00  0.00    +0.140 A 
ATOM      9  C   UNL A   1     -26.847  -1.662  30.952  0.00  0.00    +0.030 A 
ATOM     10  C   UNL A   1     -25.745  -0.924  30.591  0.00  0.00    +0.002 A 
ATOM     11  F   UNL A   1     -28.982  -2.358  30.588  0.00  0.00    -0.204 F 
ENDROOT
BRANCH   3  12
ATOM     12  C   UNL A   1     -28.131   0.801  26.554  0.00  0.00    +0.253 C 
ATOM     13  O   UNL A   1     -28.154   0.535  25.411  0.00  0.00    -0.270 OA
ATOM     14  N   UNL A   1     -29.220   1.489  27.065  0.00  0.00    -0.256 N 
ATOM     15  C   UNL A   1     -30.443   1.659  26.336  0.00  0.00    +0.099 C 
ATOM     16  C   UNL A   1     -31.374   2.235  27.069  0.00  0.00    +0.027 C 
ATOM     17  C   UNL A   1     -31.257   2.512  28.404  0.00  0.00    +0.029 C 
ATOM     18  C   UNL A   1     -30.049   2.269  29.107  0.00  0.00    -0.008 A 
ATOM     19  C   UNL A   1     -29.049   1.745  28.487  0.00  0.00    +0.050 A 
ATOM     20  C   UNL A   1     -29.918   2.411  30.589  0.00  0.00    -0.003 A 
ATOM     21  C   UNL A   1     -28.702   2.279  31.217  0.00  0.00    -0.000 A 
ATOM     22  C   UNL A   1     -27.569   2.071  30.339  0.00  0.00    +0.001 A 
ATOM     23  C   UNL A   1     -27.819   1.831  29.072  0.00  0.00    +0.015 A 
ENDBRANCH   3  12
BRANCH   5  24
ATOM     24  C   UNL A   1     -23.500   2.222  27.544  0.00  0.00    +0.341 C 
ATOM     25  F   UNL A   1     -23.599   2.856  26.596  0.00  0.00    -0.193 F 
ATOM     26  F   UNL A   1     -22.378   1.959  28.054  0.00  0.00    -0.193 F 
ENDBRANCH   5  24
TORSDOF 2
