MODEL 701
MODEL 1
REMARK VINA RESULT:    -8.634      0.000      0.000
REMARK INTER + INTRA:          -5.286
REMARK INTER:                  -9.643
REMARK INTRA:                   4.357
REMARK UNBOUND:                 4.357
REMARK  Name = No_701-gen_results/8p0m/2024-11-26-14-13-15/
REMARK  2 active torsions:
REMARK  status: ('A' for Active; 'I' for Inactive)
REMARK    1  A    between atoms: C_3  and  C_15
REMARK    2  A    between atoms: C_5  and  C_11
REMARK                            x       y       z     vdW  Elec       q    Type
REMARK                         _______ _______ _______ _____ _____    ______ ____
ROOT
ATOM      1  C   UNL A   1     -25.416   0.807  30.605  0.00  0.00    +0.030 A 
ATOM      2  C   UNL A   1     -25.169  -0.303  30.193  0.00  0.00    +0.007 A 
ATOM      3  C   UNL A   1     -25.424  -0.713  28.899  0.00  0.00    +0.054 A 
ATOM      4  C   UNL A   1     -25.218  -2.052  28.379  0.00  0.00    +0.006 A 
ATOM      5  C   UNL A   1     -24.701  -3.044  29.242  0.00  0.00    +0.044 A 
ATOM      6  C   UNL A   1     -24.443  -2.632  30.598  0.00  0.00    +0.001 A 
ATOM      7  C   UNL A   1     -24.681  -1.366  31.079  0.00  0.00    +0.000 A 
ATOM      8  C   UNL A   1     -24.948   1.191  31.989  0.00  0.00    +0.140 A 
ATOM      9  C   UNL A   1     -24.537   0.187  32.892  0.00  0.00    +0.030 A 
ATOM     10  C   UNL A   1     -24.331  -1.091  32.429  0.00  0.00    +0.002 A 
ATOM     11  F   UNL A   1     -25.202   2.338  32.567  0.00  0.00    -0.204 F 
ENDROOT
BRANCH   3  12
ATOM     12  C   UNL A   1     -25.988   0.206  27.896  0.00  0.00    +0.253 C 
ATOM     13  O   UNL A   1     -27.107   0.314  27.559  0.00  0.00    -0.270 OA
ATOM     14  N   UNL A   1     -25.033   0.866  27.139  0.00  0.00    -0.256 N 
ATOM     15  C   UNL A   1     -25.368   1.846  26.148  0.00  0.00    +0.099 C 
ATOM     16  C   UNL A   1     -24.295   2.425  25.648  0.00  0.00    +0.027 C 
ATOM     17  C   UNL A   1     -23.020   2.234  26.107  0.00  0.00    +0.029 C 
ATOM     18  C   UNL A   1     -22.736   1.301  27.136  0.00  0.00    -0.008 A 
ATOM     19  C   UNL A   1     -23.700   0.640  27.678  0.00  0.00    +0.050 A 
ATOM     20  C   UNL A   1     -21.391   1.166  27.774  0.00  0.00    -0.003 A 
ATOM     21  C   UNL A   1     -21.127   0.171  28.686  0.00  0.00    -0.000 A 
ATOM     22  C   UNL A   1     -22.210  -0.762  28.918  0.00  0.00    +0.001 A 
ATOM     23  C   UNL A   1     -23.383  -0.470  28.406  0.00  0.00    +0.015 A 
ENDBRANCH   3  12
BRANCH   5  24
ATOM     24  C   UNL A   1     -24.460  -4.409  28.797  0.00  0.00    +0.341 C 
ATOM     25  F   UNL A   1     -23.575  -4.524  28.080  0.00  0.00    -0.193 F 
ATOM     26  F   UNL A   1     -25.334  -5.309  28.924  0.00  0.00    -0.193 F 
ENDBRANCH   5  24
TORSDOF 2
ENDMDL
ENDMDL
