REMARK  Name = No_703-gen_results/8p0m/2024-11-26-14-13-15/
REMARK  4 active torsions:
REMARK  status: ('A' for Active; 'I' for Inactive)
REMARK    1  A    between atoms: C_2  and  O_7
REMARK    2  A    between atoms: O_7  and  C_8
REMARK    3  A    between atoms: C_9  and  C_11
REMARK    4  A    between atoms: C_15  and  C_18
REMARK                            x       y       z     vdW  Elec       q    Type
REMARK                         _______ _______ _______ _____ _____    ______ ____
ROOT
ATOM      1  C   UNL A   1     -24.904  -1.148  28.578  0.00  0.00    +0.162 C 
ATOM      2  C   UNL A   1     -23.773  -0.924  28.749  0.00  0.00    +0.035 C 
ATOM      3  C   UNL A   1     -25.267  -2.553  29.125  0.00  0.00    +0.131 C 
ATOM      4  N   UNL A   1     -24.304  -3.281  29.492  0.00  0.00    -0.261 NA
ATOM      5  C   UNL A   1     -22.944  -1.884  29.419  0.00  0.00    +0.155 C 
ENDROOT
BRANCH   2   6
ATOM      6  C   UNL A   1     -23.185   0.431  28.321  0.00  0.00    -0.013 C 
ATOM      7  C   UNL A   1     -21.834   0.749  28.508  0.00  0.00    -0.004 C 
ATOM      8  C   UNL A   1     -21.340   1.989  28.068  0.00  0.00    -0.004 C 
ATOM      9  C   UNL A   1     -22.231   2.752  27.323  0.00  0.00    -0.018 C 
ATOM     10  C   UNL A   1     -23.727   1.481  27.506  0.00  0.00    +0.066 C 
BRANCH  10  11
ATOM     11  C   UNL A   1     -24.581   1.923  26.673  0.00  0.00    -0.018 C 
ATOM     12  C   UNL A   1     -24.508   2.887  26.194  0.00  0.00    -0.004 C 
ENDBRANCH  10  11
ENDBRANCH   2   6
BRANCH   1  13
ATOM     13  O   UNL A   1     -25.991  -0.612  27.857  0.00  0.00    -0.452 OA
BRANCH  13  15
ATOM     14  C   UNL A   1     -28.016  -0.814  28.878  0.00  0.00    +0.037 A 
ATOM     15  C   UNL A   1     -27.064  -0.119  28.608  0.00  0.00    +0.145 A 
ATOM     16  C   UNL A   1     -26.929   1.171  29.008  0.00  0.00    +0.037 A 
ATOM     17  C   UNL A   1     -27.956   1.741  29.784  0.00  0.00    +0.003 A 
ATOM     18  C   UNL A   1     -29.057  -0.327  29.747  0.00  0.00    +0.003 A 
ATOM     19  C   UNL A   1     -28.983   0.972  30.152  0.00  0.00    +0.000 A 
ENDBRANCH  13  15
ENDBRANCH   1  13
TORSDOF 4
