MODEL 703
MODEL 1
REMARK VINA RESULT:    -6.124      0.000      0.000
REMARK INTER + INTRA:          -9.456
REMARK INTER:                  -7.556
REMARK INTRA:                  -1.899
REMARK UNBOUND:                -1.899
REMARK  Name = No_703-gen_results/8p0m/2024-11-26-14-13-15/
REMARK  4 active torsions:
REMARK  status: ('A' for Active; 'I' for Inactive)
REMARK    1  A    between atoms: C_2  and  O_7
REMARK    2  A    between atoms: O_7  and  C_8
REMARK    3  A    between atoms: C_9  and  C_11
REMARK    4  A    between atoms: C_15  and  C_18
REMARK                            x       y       z     vdW  Elec       q    Type
REMARK                         _______ _______ _______ _____ _____    ______ ____
ROOT
ATOM      1  C   UNL A   1     -23.454   0.179  28.804  0.00  0.00    +0.162 C 
ATOM      2  C   UNL A   1     -24.141  -0.454  28.107  0.00  0.00    +0.035 C 
ATOM      3  C   UNL A   1     -23.074   1.517  28.119  0.00  0.00    +0.131 C 
ATOM      4  N   UNL A   1     -23.397   1.641  26.905  0.00  0.00    -0.261 NA
ATOM      5  C   UNL A   1     -24.539   0.061  26.829  0.00  0.00    +0.155 C 
ENDROOT
BRANCH   2   6
ATOM      6  C   UNL A   1     -24.679  -1.812  28.588  0.00  0.00    -0.013 C 
ATOM      7  C   UNL A   1     -23.896  -2.973  28.571  0.00  0.00    -0.004 C 
ATOM      8  C   UNL A   1     -24.425  -4.182  29.053  0.00  0.00    -0.004 C 
ATOM      9  C   UNL A   1     -25.668  -4.082  29.668  0.00  0.00    -0.018 C 
ATOM     10  C   UNL A   1     -25.871  -2.153  29.313  0.00  0.00    +0.066 C 
BRANCH  10  11
ATOM     11  C   UNL A   1     -26.877  -1.836  30.024  0.00  0.00    -0.018 C 
ATOM     12  C   UNL A   1     -27.308  -0.847  30.045  0.00  0.00    -0.004 C 
ENDBRANCH  10  11
ENDBRANCH   2   6
BRANCH   1  13
ATOM     13  O   UNL A   1     -22.712   0.014  29.992  0.00  0.00    -0.452 OA
BRANCH  13  15
ATOM     14  C   UNL A   1     -24.260   0.798  31.467  0.00  0.00    +0.037 A 
ATOM     15  C   UNL A   1     -23.440  -0.045  31.186  0.00  0.00    +0.145 A 
ATOM     16  C   UNL A   1     -23.158  -1.119  31.967  0.00  0.00    +0.037 A 
ATOM     17  C   UNL A   1     -23.858  -1.266  33.180  0.00  0.00    +0.003 A 
ATOM     18  C   UNL A   1     -25.080   0.660  32.643  0.00  0.00    +0.003 A 
ATOM     19  C   UNL A   1     -24.816  -0.385  33.477  0.00  0.00    +0.000 A 
ENDBRANCH  13  15
ENDBRANCH   1  13
TORSDOF 4
ENDMDL
ENDMDL
