REMARK  Name = No_704-gen_results/8p0m/2024-11-26-14-13-15/
REMARK  3 active torsions:
REMARK  status: ('A' for Active; 'I' for Inactive)
REMARK    1  A    between atoms: C_3  and  C_7
REMARK    2  A    between atoms: C_8  and  C_10
REMARK    3  A    between atoms: C_10  and  C_15
REMARK                            x       y       z     vdW  Elec       q    Type
REMARK                         _______ _______ _______ _____ _____    ______ ____
ROOT
ATOM      1  C   UNL A   1     -26.311   0.392  27.364  0.00  0.00    -0.004 A 
ATOM      2  C   UNL A   1     -26.767   1.025  26.372  0.00  0.00    -0.018 A 
ATOM      3  C   UNL A   1     -24.999  -0.176  27.349  0.00  0.00    -0.000 A 
ATOM      4  C   UNL A   1     -25.952   1.062  25.107  0.00  0.00    -0.004 A 
ATOM      5  C   UNL A   1     -24.539   0.645  25.133  0.00  0.00    -0.000 A 
ATOM      6  C   UNL A   1     -24.174  -0.038  26.284  0.00  0.00    -0.000 A 
ENDROOT
BRANCH   1   9
ATOM      7  C   UNL A   1     -28.016  -0.814  28.878  0.00  0.00    -0.000 A 
ATOM      8  C   UNL A   1     -28.469  -0.785  29.829  0.00  0.00    -0.000 A 
ATOM      9  C   UNL A   1     -27.087   0.290  28.638  0.00  0.00    -0.000 A 
ATOM     10  C   UNL A   1     -26.832   1.249  29.587  0.00  0.00    -0.000 A 
ATOM     11  C   UNL A   1     -28.391   0.080  31.006  0.00  0.00    -0.000 A 
ATOM     12  C   UNL A   1     -27.494   1.152  30.784  0.00  0.00    -0.000 A 
ENDBRANCH   1   9
BRANCH   2  13
ATOM     13  C   UNL A   1     -28.034   1.562  26.272  0.00  0.00    +0.044 C 
ATOM     14  C   UNL A   1     -28.924   1.165  25.361  0.00  0.00    +0.009 C 
BRANCH  13  15
ATOM     15  C   UNL A   1     -28.444   2.600  27.180  0.00  0.00    -0.022 C 
ATOM     16  C   UNL A   1     -27.838   3.742  27.295  0.00  0.00    -0.005 C 
ENDBRANCH  13  15
ENDBRANCH   2  13
TORSDOF 3
