MODEL 704
MODEL 1
REMARK VINA RESULT:    -6.334      0.000      0.000
REMARK INTER + INTRA:          -8.597
REMARK INTER:                  -7.445
REMARK INTRA:                  -1.152
REMARK UNBOUND:                -1.152
REMARK  Name = No_704-gen_results/8p0m/2024-11-26-14-13-15/
REMARK  3 active torsions:
REMARK  status: ('A' for Active; 'I' for Inactive)
REMARK    1  A    between atoms: C_3  and  C_7
REMARK    2  A    between atoms: C_8  and  C_10
REMARK    3  A    between atoms: C_10  and  C_15
REMARK                            x       y       z     vdW  Elec       q    Type
REMARK                         _______ _______ _______ _____ _____    ______ ____
ROOT
ATOM      1  C   UNL A   1     -24.575  -0.682  27.841  0.00  0.00    -0.004 A 
ATOM      2  C   UNL A   1     -23.574  -0.007  28.209  0.00  0.00    -0.018 A 
ATOM      3  C   UNL A   1     -25.337  -0.320  26.686  0.00  0.00    -0.000 A 
ATOM      4  C   UNL A   1     -23.266   1.275  27.483  0.00  0.00    -0.004 A 
ATOM      5  C   UNL A   1     -23.920   1.564  26.195  0.00  0.00    -0.000 A 
ATOM      6  C   UNL A   1     -25.004   0.744  25.917  0.00  0.00    -0.000 A 
ENDROOT
BRANCH   1   9
ATOM      7  C   UNL A   1     -26.103  -2.004  29.445  0.00  0.00    -0.000 A 
ATOM      8  C   UNL A   1     -26.280  -2.963  29.843  0.00  0.00    -0.000 A 
ATOM      9  C   UNL A   1     -24.954  -1.947  28.542  0.00  0.00    -0.000 A 
ATOM     10  C   UNL A   1     -24.205  -3.059  28.243  0.00  0.00    -0.000 A 
ATOM     11  C   UNL A   1     -25.673  -4.287  29.707  0.00  0.00    -0.000 A 
ATOM     12  C   UNL A   1     -24.560  -4.244  28.835  0.00  0.00    -0.000 A 
ENDBRANCH   1   9
BRANCH   2  13
ATOM     13  C   UNL A   1     -22.811  -0.245  29.333  0.00  0.00    +0.044 C 
ATOM     14  C   UNL A   1     -21.583  -0.763  29.284  0.00  0.00    +0.009 C 
BRANCH  13  15
ATOM     15  C   UNL A   1     -23.338   0.071  30.634  0.00  0.00    -0.022 C 
ATOM     16  C   UNL A   1     -23.273  -0.728  31.655  0.00  0.00    -0.005 C 
ENDBRANCH  13  15
ENDBRANCH   2  13
TORSDOF 3
ENDMDL
ENDMDL
