MODEL 705
MODEL 1
REMARK VINA RESULT:    -4.584      0.000      0.000
REMARK INTER + INTRA:          -4.584
REMARK INTER:                  -4.584
REMARK INTRA:                   0.000
REMARK UNBOUND:                 0.000
REMARK  Name = No_705-gen_results/8p0m/2024-11-26-14-13-15/
REMARK  0 active torsions:
REMARK  status: ('A' for Active; 'I' for Inactive)
REMARK                            x       y       z     vdW  Elec       q    Type
REMARK                         _______ _______ _______ _____ _____    ______ ____
ROOT
ATOM      1  C   UNL A   1     -10.226  -9.807  18.354  0.00  0.00    +0.030 A 
ATOM      2  C   UNL A   1      -9.261 -10.394  17.924  0.00  0.00    +0.140 A 
ATOM      3  C   UNL A   1      -8.093 -10.501  18.671  0.00  0.00    +0.030 A 
ATOM      4  C   UNL A   1      -7.981  -9.874  19.963  0.00  0.00    +0.002 A 
ATOM      5  C   UNL A   1      -9.135  -9.195  20.373  0.00  0.00    +0.000 A 
ATOM      6  C   UNL A   1     -10.209  -9.110  19.621  0.00  0.00    +0.002 A 
ATOM      7  F   UNL A   1      -9.209 -10.965  16.719  0.00  0.00    -0.204 F 
ENDROOT
TORSDOF 0
ENDMDL
ENDMDL
