MODEL 706
MODEL 1
REMARK VINA RESULT:    -5.054      0.000      0.000
REMARK INTER + INTRA:          -5.800
REMARK INTER:                  -5.645
REMARK INTRA:                  -0.155
REMARK UNBOUND:                -0.155
REMARK  Name = No_706-gen_results/8p0m/2024-11-26-14-13-15/
REMARK  2 active torsions:
REMARK  status: ('A' for Active; 'I' for Inactive)
REMARK    1  A    between atoms: C_1  and  C_2
REMARK    2  A    between atoms: C_1  and  N_8
REMARK                            x       y       z     vdW  Elec       q    Type
REMARK                         _______ _______ _______ _____ _____    ______ ____
ROOT
ATOM      1  C   UNL A   1     -24.678  -2.456  29.227  0.00  0.00    +0.002 A 
ATOM      2  C   UNL A   1     -25.869  -2.901  29.704  0.00  0.00    -0.002 A 
ATOM      3  C   UNL A   1     -26.285  -4.321  29.732  0.00  0.00    -0.000 A 
ATOM      4  C   UNL A   1     -25.363  -5.278  29.195  0.00  0.00    -0.000 A 
ATOM      5  C   UNL A   1     -24.166  -4.768  28.643  0.00  0.00    -0.000 A 
ATOM      6  C   UNL A   1     -23.847  -3.435  28.652  0.00  0.00    -0.002 A 
ENDROOT
BRANCH   1   7
ATOM      7  C   UNL A   1     -24.351  -1.292  29.208  0.00  0.00    +0.151 C 
BRANCH   7   8
ATOM      8  N   UNL A   1     -23.033  -0.930  28.947  0.00  0.00    -0.269 NA
ATOM      9  C   UNL A   1     -22.377  -0.052  28.911  0.00  0.00    +0.068 C 
ATOM     10  C   UNL A   1     -20.934   0.016  28.536  0.00  0.00    +0.053 C 
ENDBRANCH   7   8
ENDBRANCH   1   7
TORSDOF 2
ENDMDL
ENDMDL
