REMARK  Name = No_707-gen_results/8p0m/2024-11-26-14-13-15/
REMARK  2 active torsions:
REMARK  status: ('A' for Active; 'I' for Inactive)
REMARK    1  A    between atoms: C_2  and  C_11
REMARK    2  A    between atoms: C_4  and  C_7
REMARK                            x       y       z     vdW  Elec       q    Type
REMARK                         _______ _______ _______ _____ _____    ______ ____
ROOT
ATOM      1  C   UNL A   1     -28.016  -0.814  28.878  0.00  0.00    +0.007 A 
ATOM      2  C   UNL A   1     -28.469  -0.785  29.829  0.00  0.00    +0.080 A 
ATOM      3  C   UNL A   1     -26.504  -0.778  28.877  0.00  0.00    +0.005 A 
ATOM      4  C   UNL A   1     -25.810  -0.853  30.103  0.00  0.00    +0.058 A 
ATOM      5  C   UNL A   1     -27.991  -0.892  31.226  0.00  0.00    +0.007 A 
ATOM      6  C   UNL A   1     -26.604  -0.868  31.265  0.00  0.00    +0.005 A 
ENDROOT
BRANCH   4   7
ATOM      7  C   UNL A   1     -24.445  -0.953  30.351  0.00  0.00    +0.275 C 
ATOM      8  N   UNL A   1     -23.879  -0.638  31.309  0.00  0.00    -0.232 NA
ATOM      9  O   UNL A   1     -23.658  -1.341  29.326  0.00  0.00    -0.266 OA
ATOM     10  C   UNL A   1     -22.384  -0.653  31.563  0.00  0.00    +0.155 C 
ENDBRANCH   4   7
BRANCH   2  11
ATOM     11  C   UNL A   1     -30.086  -0.820  29.985  0.00  0.00    +0.388 C 
ATOM     12  O   UNL A   1     -30.618  -1.868  30.079  0.00  0.00    -0.241 OA
ATOM     13  O   UNL A   1     -30.726   0.263  29.797  0.00  0.00    -0.241 OA
ENDBRANCH   2  11
TORSDOF 2
