MODEL 707
MODEL 1
REMARK VINA RESULT:    -5.638      0.000      0.000
REMARK INTER + INTRA:          -6.448
REMARK INTER:                  -6.298
REMARK INTRA:                  -0.150
REMARK UNBOUND:                -0.150
REMARK  Name = No_707-gen_results/8p0m/2024-11-26-14-13-15/
REMARK  2 active torsions:
REMARK  status: ('A' for Active; 'I' for Inactive)
REMARK    1  A    between atoms: C_2  and  C_11
REMARK    2  A    between atoms: C_4  and  C_7
REMARK                            x       y       z     vdW  Elec       q    Type
REMARK                         _______ _______ _______ _____ _____    ______ ____
ROOT
ATOM      1  C   UNL A   1     -29.035 -10.444  32.725  0.00  0.00    +0.007 A 
ATOM      2  C   UNL A   1     -28.279 -11.171  32.624  0.00  0.00    +0.080 A 
ATOM      3  C   UNL A   1     -29.763 -10.082  31.449  0.00  0.00    +0.005 A 
ATOM      4  C   UNL A   1     -29.500 -10.814  30.272  0.00  0.00    +0.058 A 
ATOM      5  C   UNL A   1     -27.838 -12.089  31.550  0.00  0.00    +0.007 A 
ATOM      6  C   UNL A   1     -28.490 -11.791  30.362  0.00  0.00    +0.005 A 
ENDROOT
BRANCH   4   7
ATOM      7  C   UNL A   1     -30.113 -10.750  29.025  0.00  0.00    +0.275 C 
ATOM      8  N   UNL A   1     -29.776 -11.268  28.048  0.00  0.00    -0.232 NA
ATOM      9  O   UNL A   1     -31.146  -9.893  28.889  0.00  0.00    -0.266 OA
ATOM     10  C   UNL A   1     -30.376 -11.136  26.661  0.00  0.00    +0.155 C 
ENDBRANCH   4   7
BRANCH   2  11
ATOM     11  C   UNL A   1     -27.415 -11.660  33.910  0.00  0.00    +0.388 C 
ATOM     12  O   UNL A   1     -27.218 -10.889  34.780  0.00  0.00    -0.241 OA
ATOM     13  O   UNL A   1     -26.819 -12.782  33.836  0.00  0.00    -0.241 OA
ENDBRANCH   2  11
TORSDOF 2
ENDMDL
ENDMDL
