MODEL 708
MODEL 1
REMARK VINA RESULT:    -5.165      0.000      0.000
REMARK INTER + INTRA:          -5.165
REMARK INTER:                  -5.165
REMARK INTRA:                   0.000
REMARK UNBOUND:                 0.000
REMARK  Name = No_708-gen_results/8p0m/2024-11-26-14-13-15/
REMARK  0 active torsions:
REMARK  status: ('A' for Active; 'I' for Inactive)
REMARK                            x       y       z     vdW  Elec       q    Type
REMARK                         _______ _______ _______ _____ _____    ______ ____
ROOT
ATOM      1  C   UNL A   1      -9.086  -9.163  20.211  0.00  0.00    +0.072 A 
ATOM      2  C   UNL A   1      -8.113  -9.858  20.036  0.00  0.00    +0.143 A 
ATOM      3  C   UNL A   1      -7.991 -10.650  18.900  0.00  0.00    +0.030 A 
ATOM      4  C   UNL A   1      -9.043 -10.703  17.917  0.00  0.00    +0.006 A 
ATOM      5  C   UNL A   1     -10.142  -9.886  18.210  0.00  0.00    +0.042 A 
ATOM      6  C   UNL A   1     -10.216  -9.168  19.308  0.00  0.00    +0.198 A 
ATOM      7  F   UNL A   1      -7.097  -9.951  20.896  0.00  0.00    -0.204 F 
ATOM      8  O   UNL A   1     -11.352  -8.421  19.519  0.00  0.00    -0.286 OA
ENDROOT
TORSDOF 0
ENDMDL
ENDMDL
