MODEL 709
MODEL 1
REMARK VINA RESULT:    -4.310      0.000      0.000
REMARK INTER + INTRA:          -4.310
REMARK INTER:                  -4.310
REMARK INTRA:                   0.000
REMARK UNBOUND:                 0.000
REMARK  Name = No_709-gen_results/8p0m/2024-11-26-14-13-15/
REMARK  0 active torsions:
REMARK  status: ('A' for Active; 'I' for Inactive)
REMARK                            x       y       z     vdW  Elec       q    Type
REMARK                         _______ _______ _______ _____ _____    ______ ____
ROOT
ATOM      1  C   UNL A   1     -26.122  -4.821  29.640  0.00  0.00    +0.000 A 
ATOM      2  C   UNL A   1     -26.140  -3.768  29.676  0.00  0.00    +0.000 A 
ATOM      3  C   UNL A   1     -24.950  -5.363  28.954  0.00  0.00    +0.000 A 
ATOM      4  C   UNL A   1     -24.058  -4.701  28.627  0.00  0.00    +0.000 A 
ATOM      5  C   UNL A   1     -25.192  -2.729  29.321  0.00  0.00    +0.000 A 
ATOM      6  C   UNL A   1     -24.047  -3.304  28.705  0.00  0.00    +0.000 A 
ENDROOT
TORSDOF 0
ENDMDL
ENDMDL
