REMARK  Name = No_710-gen_results/8p0m/2024-11-26-14-13-15/
REMARK  5 active torsions:
REMARK  status: ('A' for Active; 'I' for Inactive)
REMARK    1  A    between atoms: C_5  and  N_8
REMARK    2  A    between atoms: C_10  and  C_11
REMARK    3  A    between atoms: C_12  and  C_13
REMARK    4  A    between atoms: N_14  and  C_15
REMARK    5  A    between atoms: C_15  and  C_16
REMARK                            x       y       z     vdW  Elec       q    Type
REMARK                         _______ _______ _______ _____ _____    ______ ____
ROOT
ATOM      1  N   UNL A   1     -30.356   0.144  26.245  0.00  0.00    -0.244 NA
ATOM      2  C   UNL A   1     -30.277  -0.042  24.910  0.00  0.00    +0.099 C 
ENDROOT
BRANCH   1   7
ATOM      3  C   UNL A   1     -28.016  -0.814  28.878  0.00  0.00    +0.070 A 
ATOM      4  C   UNL A   1     -27.064  -0.119  28.608  0.00  0.00    +0.068 A 
ATOM      5  C   UNL A   1     -27.001   0.691  27.491  0.00  0.00    +0.014 A 
ATOM      6  C   UNL A   1     -28.137   0.736  26.635  0.00  0.00    +0.020 A 
ATOM      7  C   UNL A   1     -29.236   0.076  27.069  0.00  0.00    +0.082 A 
ATOM      8  C   UNL A   1     -29.218  -0.643  28.175  0.00  0.00    +0.031 A 
ATOM      9 CL   UNL A   1     -28.025  -1.782  30.321  0.00  0.00    -0.081 Cl
ATOM     10 CL   UNL A   1     -25.527  -0.203  29.563  0.00  0.00    -0.081 Cl
ENDBRANCH   1   7
BRANCH   2  11
ATOM     11  C   UNL A   1     -30.043  -0.901  24.406  0.00  0.00    +0.022 C 
ATOM     12  C   UNL A   1     -29.987  -2.200  25.061  0.00  0.00    +0.019 C 
BRANCH  12  13
ATOM     13  C   UNL A   1     -31.258  -2.677  25.265  0.00  0.00    +0.089 C 
ATOM     14  N   UNL A   1     -32.107  -2.515  26.078  0.00  0.00    -0.174 NA
BRANCH  14  15
ATOM     15  C   UNL A   1     -32.978  -2.999  26.543  0.00  0.00    +0.269 C 
ATOM     16  O   UNL A   1     -34.143  -2.780  25.665  0.00  0.00    -0.268 OA
BRANCH  15  17
ATOM     17  C   UNL A   1     -33.241  -3.629  27.402  0.00  0.00    +0.060 C 
ATOM     18  C   UNL A   1     -32.193  -3.746  28.359  0.00  0.00    +0.005 C 
ENDBRANCH  15  17
ENDBRANCH  14  15
ENDBRANCH  12  13
ENDBRANCH   2  11
TORSDOF 5
