MODEL 710
MODEL 1
REMARK VINA RESULT:    -5.766      0.000      0.000
REMARK INTER + INTRA:          -8.310
REMARK INTER:                  -7.452
REMARK INTRA:                  -0.858
REMARK UNBOUND:                -0.858
REMARK  Name = No_710-gen_results/8p0m/2024-11-26-14-13-15/
REMARK  5 active torsions:
REMARK  status: ('A' for Active; 'I' for Inactive)
REMARK    1  A    between atoms: C_5  and  N_8
REMARK    2  A    between atoms: C_10  and  C_11
REMARK    3  A    between atoms: C_12  and  C_13
REMARK    4  A    between atoms: N_14  and  C_15
REMARK    5  A    between atoms: C_15  and  C_16
REMARK                            x       y       z     vdW  Elec       q    Type
REMARK                         _______ _______ _______ _____ _____    ______ ____
ROOT
ATOM      1  N   UNL A   1     -22.306  -0.010  29.573  0.00  0.00    -0.244 NA
ATOM      2  C   UNL A   1     -22.171   0.847  28.538  0.00  0.00    +0.099 C 
ENDROOT
BRANCH   1   7
ATOM      3  C   UNL A   1     -24.179  -3.116  29.161  0.00  0.00    +0.070 A 
ATOM      4  C   UNL A   1     -25.204  -2.850  29.746  0.00  0.00    +0.068 A 
ATOM      5  C   UNL A   1     -25.407  -1.669  30.433  0.00  0.00    +0.014 A 
ATOM      6  C   UNL A   1     -24.365  -0.700  30.417  0.00  0.00    +0.020 A 
ATOM      7  C   UNL A   1     -23.312  -0.972  29.611  0.00  0.00    +0.082 A 
ATOM      8  C   UNL A   1     -23.220  -2.113  28.956  0.00  0.00    +0.031 A 
ATOM      9 CL   UNL A   1     -24.017  -4.614  28.296  0.00  0.00    -0.081 Cl
ATOM     10 CL   UNL A   1     -26.534  -4.066  29.931  0.00  0.00    -0.081 Cl
ENDBRANCH   1   7
BRANCH   2  11
ATOM     11  C   UNL A   1     -22.805   1.597  28.254  0.00  0.00    +0.022 C 
ATOM     12  C   UNL A   1     -22.826   2.132  26.900  0.00  0.00    +0.019 C 
BRANCH  12  13
ATOM     13  C   UNL A   1     -23.490   1.268  26.066  0.00  0.00    +0.089 C 
ATOM     14  N   UNL A   1     -24.623   0.970  25.877  0.00  0.00    -0.174 NA
BRANCH  14  15
ATOM     15  C   UNL A   1     -25.265   0.153  25.517  0.00  0.00    +0.269 C 
ATOM     16  O   UNL A   1     -25.581  -0.718  26.665  0.00  0.00    -0.268 OA
BRANCH  15  17
ATOM     17  C   UNL A   1     -25.783  -0.183  24.610  0.00  0.00    +0.060 C 
ATOM     18  C   UNL A   1     -27.191   0.029  24.652  0.00  0.00    +0.005 C 
ENDBRANCH  15  17
ENDBRANCH  14  15
ENDBRANCH  12  13
ENDBRANCH   2  11
TORSDOF 5
ENDMDL
ENDMDL
