REMARK  Name = No_712-gen_results/8p0m/2024-11-26-14-13-15/
REMARK  2 active torsions:
REMARK  status: ('A' for Active; 'I' for Inactive)
REMARK    1  A    between atoms: C_6  and  C_21
REMARK    2  A    between atoms: N_7  and  C_8
REMARK                            x       y       z     vdW  Elec       q    Type
REMARK                         _______ _______ _______ _____ _____    ______ ____
ROOT
ATOM      1  C   UNL A   1     -28.016  -0.814  28.878  0.00  0.00    +0.018 A 
ATOM      2  C   UNL A   1     -27.064  -0.119  28.608  0.00  0.00    +0.138 A 
ATOM      3  N   UNL A   1     -25.818  -0.343  29.049  0.00  0.00    -0.203 NA
ATOM      4  C   UNL A   1     -25.607  -1.441  29.893  0.00  0.00    +0.223 A 
ATOM      5  C   UNL A   1     -26.676  -2.219  30.236  0.00  0.00    +0.053 A 
ATOM      6  C   UNL A   1     -27.863  -1.932  29.767  0.00  0.00    +0.074 A 
ATOM      7  N   UNL A   1     -27.129   1.036  27.814  0.00  0.00    -0.252 N 
ATOM      8  C   UNL A   1     -28.319   1.333  27.101  0.00  0.00    +0.053 A 
ATOM      9  C   UNL A   1     -28.409   2.279  26.160  0.00  0.00    +0.015 A 
ATOM     10  C   UNL A   1     -29.580   2.535  25.451  0.00  0.00    +0.001 A 
ATOM     11  C   UNL A   1     -30.689   1.781  25.700  0.00  0.00    -0.000 A 
ATOM     12  C   UNL A   1     -30.593   0.804  26.662  0.00  0.00    -0.003 A 
ATOM     13  C   UNL A   1     -29.484   0.599  27.352  0.00  0.00    -0.004 A 
ATOM     14  C   UNL A   1     -29.351  -0.502  28.320  0.00  0.00    +0.057 C 
ATOM     15  F   UNL A   1     -24.395  -1.683  30.311  0.00  0.00    -0.183 F 
ENDROOT
BRANCH   7  16
ATOM     16  C   UNL A   1     -26.134   1.904  27.728  0.00  0.00    +0.057 A 
ATOM     17  C   UNL A   1     -25.950   2.994  27.883  0.00  0.00    +0.015 A 
ATOM     18  C   UNL A   1     -24.770   3.863  27.631  0.00  0.00    +0.001 A 
ATOM     19  C   UNL A   1     -23.680   3.150  27.143  0.00  0.00    +0.000 A 
ATOM     20  C   UNL A   1     -24.814   1.364  27.033  0.00  0.00    +0.015 A 
ATOM     21  C   UNL A   1     -23.753   1.952  26.798  0.00  0.00    +0.001 A 
ENDBRANCH   7  16
BRANCH   6  22
ATOM     22  C   UNL A   1     -29.062  -2.777  30.178  0.00  0.00    +0.418 C 
ATOM     23  F   UNL A   1     -28.917  -3.969  29.915  0.00  0.00    -0.166 F 
ATOM     24  F   UNL A   1     -29.248  -2.530  31.526  0.00  0.00    -0.166 F 
ATOM     25  F   UNL A   1     -30.221  -2.453  29.667  0.00  0.00    -0.166 F 
ENDBRANCH   6  22
TORSDOF 2
