MODEL 712
MODEL 1
REMARK VINA RESULT:    -7.990      0.000      0.000
REMARK INTER + INTRA:          -8.897
REMARK INTER:                  -8.924
REMARK INTRA:                   0.027
REMARK UNBOUND:                 0.027
REMARK  Name = No_712-gen_results/8p0m/2024-11-26-14-13-15/
REMARK  2 active torsions:
REMARK  status: ('A' for Active; 'I' for Inactive)
REMARK    1  A    between atoms: C_6  and  C_21
REMARK    2  A    between atoms: N_7  and  C_8
REMARK                            x       y       z     vdW  Elec       q    Type
REMARK                         _______ _______ _______ _____ _____    ______ ____
ROOT
ATOM      1  C   UNL A   1     -26.178  -0.933  31.188  0.00  0.00    +0.018 A 
ATOM      2  C   UNL A   1     -25.106  -0.537  30.794  0.00  0.00    +0.138 A 
ATOM      3  N   UNL A   1     -24.553   0.629  31.157  0.00  0.00    -0.203 NA
ATOM      4  C   UNL A   1     -25.271   1.451  32.035  0.00  0.00    +0.223 A 
ATOM      5  C   UNL A   1     -26.499   1.036  32.466  0.00  0.00    +0.053 A 
ATOM      6  C   UNL A   1     -26.972  -0.115  32.062  0.00  0.00    +0.074 A 
ATOM      7  N   UNL A   1     -24.296  -1.228  29.880  0.00  0.00    -0.252 N 
ATOM      8  C   UNL A   1     -24.617  -2.564  29.526  0.00  0.00    +0.053 A 
ATOM      9  C   UNL A   1     -23.800  -3.371  28.841  0.00  0.00    +0.015 A 
ATOM     10  C   UNL A   1     -24.123  -4.689  28.528  0.00  0.00    +0.001 A 
ATOM     11  C   UNL A   1     -25.314  -5.203  28.951  0.00  0.00    -0.000 A 
ATOM     12  C   UNL A   1     -26.149  -4.374  29.661  0.00  0.00    -0.003 A 
ATOM     13  C   UNL A   1     -25.843  -3.114  29.918  0.00  0.00    -0.004 A 
ATOM     14  C   UNL A   1     -26.695  -2.250  30.752  0.00  0.00    +0.057 C 
ATOM     15  F   UNL A   1     -24.734   2.578  32.414  0.00  0.00    -0.183 F 
ENDROOT
BRANCH   7  16
ATOM     16  C   UNL A   1     -23.252  -0.674  29.286  0.00  0.00    +0.057 A 
ATOM     17  C   UNL A   1     -22.138  -0.681  29.358  0.00  0.00    +0.015 A 
ATOM     18  C   UNL A   1     -21.078   0.103  28.671  0.00  0.00    +0.001 A 
ATOM     19  C   UNL A   1     -21.596   0.986  27.730  0.00  0.00    +0.000 A 
ATOM     20  C   UNL A   1     -23.585   0.503  28.276  0.00  0.00    +0.015 A 
ATOM     21  C   UNL A   1     -22.819   1.207  27.609  0.00  0.00    +0.001 A 
ENDBRANCH   7  16
BRANCH   6  22
ATOM     22  C   UNL A   1     -28.356  -0.562  32.513  0.00  0.00    +0.418 C 
ATOM     23  F   UNL A   1     -29.091  -0.857  31.573  0.00  0.00    -0.166 F 
ATOM     24  F   UNL A   1     -28.142  -1.609  33.392  0.00  0.00    -0.166 F 
ATOM     25  F   UNL A   1     -29.047   0.280  33.236  0.00  0.00    -0.166 F 
ENDBRANCH   6  22
TORSDOF 2
ENDMDL
ENDMDL
