REMARK  Name = No_713-gen_results/8p0m/2024-11-26-14-13-15/
REMARK  5 active torsions:
REMARK  status: ('A' for Active; 'I' for Inactive)
REMARK    1  A    between atoms: C_5  and  C_17
REMARK    2  A    between atoms: C_8  and  C_9
REMARK    3  A    between atoms: C_11  and  O_21
REMARK    4  A    between atoms: O_21  and  C_22
REMARK    5  A    between atoms: C_22  and  C_23
REMARK                            x       y       z     vdW  Elec       q    Type
REMARK                         _______ _______ _______ _____ _____    ______ ____
ROOT
ATOM      1  C   UNL A   1     -28.016  -0.814  28.878  0.00  0.00    +0.045 C 
ATOM      2  C   UNL A   1     -27.064  -0.119  28.608  0.00  0.00    -0.025 A 
ATOM      3  C   UNL A   1     -26.929   1.171  29.008  0.00  0.00    -0.026 A 
ATOM      4  C   UNL A   1     -25.770   2.034  28.688  0.00  0.00    +0.002 A 
ATOM      5  C   UNL A   1     -24.714   1.443  27.919  0.00  0.00    +0.079 A 
ATOM      6  C   UNL A   1     -24.859   0.078  27.584  0.00  0.00    +0.006 A 
ATOM      7  C   UNL A   1     -25.965  -0.661  27.916  0.00  0.00    -0.004 A 
ATOM      8  C   UNL A   1     -28.651  -0.609  30.254  0.00  0.00    +0.069 C 
ATOM      9  C   UNL A   1     -28.715   0.896  30.513  0.00  0.00    +0.024 C 
ATOM     10  C   UNL A   1     -27.481   1.680  30.219  0.00  0.00    +0.024 C 
ATOM     11  N   UNL A   1     -27.523  -0.995  31.246  0.00  0.00    -0.272 NA
ATOM     12  C   UNL A   1     -26.988  -2.196  31.198  0.00  0.00    +0.090 C 
ATOM     13  C   UNL A   1     -27.095  -0.143  32.384  0.00  0.00    +0.058 C 
ATOM     14  C   UNL A   1     -27.686  -0.414  33.459  0.00  0.00    +0.016 C 
ATOM     15  C   UNL A   1     -27.516   0.033  34.434  0.00  0.00    +0.001 C 
ATOM     16  C   UNL A   1     -27.070   0.979  34.730  0.00  0.00    +0.000 C 
ATOM     17  C   UNL A   1     -26.249   1.629  33.652  0.00  0.00    +0.001 C 
ATOM     18  C   UNL A   1     -26.338   0.990  32.359  0.00  0.00    +0.014 C 
ATOM     19  C   UNL A   1     -26.621   1.811  31.469  0.00  0.00    +0.005 C 
ATOM     20  C   UNL A   1     -24.831   0.495  32.006  0.00  0.00    +0.001 C 
ATOM     21  C   UNL A   1     -26.334   3.379  31.557  0.00  0.00    +0.000 C 
ENDROOT
BRANCH   8  22
ATOM     22  C   UNL A   1     -29.651  -1.322  30.593  0.00  0.00    -0.006 A 
ATOM     23  C   UNL A   1     -30.112  -2.287  29.921  0.00  0.00    +0.034 A 
ATOM     24  C   UNL A   1     -31.245  -3.058  30.473  0.00  0.00    +0.139 A 
ATOM     25  C   UNL A   1     -31.801  -2.689  31.626  0.00  0.00    +0.037 A 
ATOM     26  C   UNL A   1     -31.346  -1.666  32.382  0.00  0.00    +0.003 A 
ATOM     27  C   UNL A   1     -30.258  -0.928  31.925  0.00  0.00    -0.003 A 
BRANCH  24  28
ATOM     28  O   UNL A   1     -31.752  -4.074  29.709  0.00  0.00    -0.464 OA
BRANCH  28  29
ATOM     29  C   UNL A   1     -30.835  -4.964  29.157  0.00  0.00    +0.319 C 
BRANCH  29  30
ATOM     30  C   UNL A   1     -31.161  -5.422  27.812  0.00  0.00    +0.408 C 
ATOM     31  O   UNL A   1     -31.608  -4.748  27.055  0.00  0.00    -0.241 OA
ATOM     32  O   UNL A   1     -30.389  -6.533  27.482  0.00  0.00    -0.241 OA
ENDBRANCH  29  30
ENDBRANCH  28  29
ENDBRANCH  24  28
ENDBRANCH   8  22
BRANCH   5  33
ATOM     33  C   UNL A   1     -23.533   2.140  27.384  0.00  0.00    +0.388 C 
ATOM     34  O   UNL A   1     -22.401   1.782  27.631  0.00  0.00    -0.241 OA
ATOM     35  O   UNL A   1     -23.800   3.207  26.674  0.00  0.00    -0.241 OA
ENDBRANCH   5  33
TORSDOF 5
