MODEL 713
MODEL 1
REMARK VINA RESULT:    -8.020      0.000      0.000
REMARK INTER + INTRA:         -11.469
REMARK INTER:                 -10.364
REMARK INTRA:                  -1.105
REMARK UNBOUND:                -1.105
REMARK  Name = No_713-gen_results/8p0m/2024-11-26-14-13-15/
REMARK  5 active torsions:
REMARK  status: ('A' for Active; 'I' for Inactive)
REMARK    1  A    between atoms: C_5  and  C_17
REMARK    2  A    between atoms: C_8  and  C_9
REMARK    3  A    between atoms: C_11  and  O_21
REMARK    4  A    between atoms: O_21  and  C_22
REMARK    5  A    between atoms: C_22  and  C_23
REMARK                            x       y       z     vdW  Elec       q    Type
REMARK                         _______ _______ _______ _____ _____    ______ ____
ROOT
ATOM      1  C   UNL A   1     -29.553 -13.613  27.143  0.00  0.00    +0.045 C 
ATOM      2  C   UNL A   1     -29.613 -12.990  28.178  0.00  0.00    -0.025 A 
ATOM      3  C   UNL A   1     -29.624 -11.634  28.247  0.00  0.00    -0.026 A 
ATOM      4  C   UNL A   1     -29.699 -10.857  29.504  0.00  0.00    +0.002 A 
ATOM      5  C   UNL A   1     -29.788 -11.604  30.724  0.00  0.00    +0.079 A 
ATOM      6  C   UNL A   1     -29.847 -13.011  30.605  0.00  0.00    +0.006 A 
ATOM      7  C   UNL A   1     -29.772 -13.664  29.402  0.00  0.00    -0.004 A 
ATOM      8  C   UNL A   1     -30.283 -13.019  25.937  0.00  0.00    +0.069 C 
ATOM      9  C   UNL A   1     -30.015 -11.515  25.931  0.00  0.00    +0.024 C 
ATOM     10  C   UNL A   1     -30.173 -10.800  27.230  0.00  0.00    +0.024 C 
ATOM     11  N   UNL A   1     -31.773 -13.015  26.369  0.00  0.00    -0.272 NA
ATOM     12  C   UNL A   1     -32.361 -14.141  26.711  0.00  0.00    +0.090 C 
ATOM     13  C   UNL A   1     -32.659 -11.828  26.272  0.00  0.00    +0.058 C 
ATOM     14  C   UNL A   1     -33.309 -11.778  25.198  0.00  0.00    +0.016 C 
ATOM     15  C   UNL A   1     -34.052 -11.039  24.912  0.00  0.00    +0.001 C 
ATOM     16  C   UNL A   1     -34.238 -10.026  25.260  0.00  0.00    +0.000 C 
ATOM     17  C   UNL A   1     -33.591  -9.706  26.578  0.00  0.00    +0.001 C 
ATOM     18  C   UNL A   1     -32.689 -10.723  27.069  0.00  0.00    +0.014 C 
ATOM     19  C   UNL A   1     -31.582 -10.239  27.364  0.00  0.00    +0.005 C 
ATOM     20  C   UNL A   1     -33.315 -11.225  28.481  0.00  0.00    +0.001 C 
ATOM     21  C   UNL A   1     -31.335  -8.710  27.752  0.00  0.00    +0.000 C 
ENDROOT
BRANCH   8  22
ATOM     22  C   UNL A   1     -30.260 -13.640  24.825  0.00  0.00    -0.006 A 
ATOM     23  C   UNL A   1     -30.573 -13.137  23.710  0.00  0.00    +0.034 A 
ATOM     24  C   UNL A   1     -30.441 -13.969  22.495  0.00  0.00    +0.139 A 
ATOM     25  C   UNL A   1     -30.063 -15.242  22.599  0.00  0.00    +0.037 A 
ATOM     26  C   UNL A   1     -29.718 -15.826  23.767  0.00  0.00    +0.003 A 
ATOM     27  C   UNL A   1     -29.790 -15.077  24.938  0.00  0.00    -0.003 A 
BRANCH  24  28
ATOM     28  O   UNL A   1     -30.823 -13.414  21.304  0.00  0.00    -0.464 OA
BRANCH  28  29
ATOM     29  C   UNL A   1     -29.882 -13.418  20.278  0.00  0.00    +0.319 C 
BRANCH  29  30
ATOM     30  C   UNL A   1     -28.942 -12.303  20.307  0.00  0.00    +0.408 C 
ATOM     31  O   UNL A   1     -27.918 -12.388  19.894  0.00  0.00    -0.241 OA
ATOM     32  O   UNL A   1     -29.631 -11.096  20.394  0.00  0.00    -0.241 OA
ENDBRANCH  29  30
ENDBRANCH  28  29
ENDBRANCH  24  28
ENDBRANCH   8  22
BRANCH   5  33
ATOM     33  C   UNL A   1     -29.749 -11.050  32.088  0.00  0.00    +0.388 C 
ATOM     34  O   UNL A   1     -30.652 -11.214  32.881  0.00  0.00    -0.241 OA
ATOM     35  O   UNL A   1     -28.695 -10.320  32.354  0.00  0.00    -0.241 OA
ENDBRANCH   5  33
TORSDOF 5
ENDMDL
ENDMDL
