REMARK  Name = No_714-gen_results/8p0m/2024-11-26-14-13-15/
REMARK  2 active torsions:
REMARK  status: ('A' for Active; 'I' for Inactive)
REMARK    1  A    between atoms: C_3  and  C_4
REMARK    2  A    between atoms: C_7  and  C_13
REMARK                            x       y       z     vdW  Elec       q    Type
REMARK                         _______ _______ _______ _____ _____    ______ ____
ROOT
ATOM      1  C   UNL A   1     -28.978  -2.771  30.258  0.00  0.00    +0.108 A 
ATOM      2  N   UNL A   1     -28.831  -4.072  30.487  0.00  0.00    -0.247 NA
ATOM      3  C   UNL A   1     -29.873  -4.959  30.315  0.00  0.00    +0.065 A 
ATOM      4  C   UNL A   1     -31.037  -4.580  30.864  0.00  0.00    +0.069 A 
ATOM      5  C   UNL A   1     -31.356  -3.156  30.793  0.00  0.00    +0.037 A 
ATOM      6  C   UNL A   1     -30.272  -2.244  30.509  0.00  0.00    +0.158 A 
ATOM      7  C   UNL A   1     -32.157  -5.561  30.957  0.00  0.00    +0.250 C 
ATOM      8  O   UNL A   1     -33.248  -5.427  31.073  0.00  0.00    -0.270 OA
ATOM      9  N   UNL A   1     -31.669  -6.917  30.997  0.00  0.00    -0.277 N 
ATOM     10  C   UNL A   1     -30.406  -7.358  31.012  0.00  0.00    +0.082 C 
ATOM     11  C   UNL A   1     -29.394  -6.338  30.810  0.00  0.00    +0.066 C 
ATOM     12  C   UNL A   1     -32.682  -7.981  31.226  0.00  0.00    +0.094 C 
ATOM     13  F   UNL A   1     -30.506  -0.956  30.477  0.00  0.00    -0.203 F 
ATOM     14  C   UNL A   1     -32.314  -9.088  30.786  0.00  0.00    +0.022 C 
ATOM     15  C   UNL A   1     -30.956  -9.588  30.965  0.00  0.00    +0.004 C 
ATOM     16  C   UNL A   1     -29.957  -8.589  30.783  0.00  0.00    +0.020 C 
ENDROOT
BRANCH   1  20
ATOM     17  C   UNL A   1     -28.016  -0.814  28.878  0.00  0.00    +0.002 A 
ATOM     18  C   UNL A   1     -27.064  -0.119  28.608  0.00  0.00    +0.000 A 
ATOM     19  C   UNL A   1     -25.765  -0.390  29.036  0.00  0.00    +0.000 A 
ATOM     20  C   UNL A   1     -27.829  -1.929  29.855  0.00  0.00    +0.020 A 
ATOM     21  C   UNL A   1     -26.588  -2.327  30.268  0.00  0.00    +0.002 A 
ATOM     22  C   UNL A   1     -25.456  -1.543  29.915  0.00  0.00    +0.000 A 
BRANCH  19  23
ATOM     23  C   UNL A   1     -24.552   0.406  28.765  0.00  0.00    +0.000 A 
ATOM     24  C   UNL A   1     -23.230   0.118  29.258  0.00  0.00    +0.000 A 
ATOM     25  C   UNL A   1     -22.139   0.943  28.922  0.00  0.00    +0.000 A 
ATOM     26  C   UNL A   1     -22.230   1.909  27.872  0.00  0.00    +0.000 A 
ATOM     27  C   UNL A   1     -24.554   1.470  27.762  0.00  0.00    +0.000 A 
ATOM     28  C   UNL A   1     -23.447   2.167  27.376  0.00  0.00    +0.000 A 
ENDBRANCH  19  23
ENDBRANCH   1  20
TORSDOF 2
