MODEL 714
MODEL 1
REMARK VINA RESULT:    -8.573      0.000      0.000
REMARK INTER + INTRA:         -10.173
REMARK INTER:                  -9.576
REMARK INTRA:                  -0.597
REMARK UNBOUND:                -0.597
REMARK  Name = No_714-gen_results/8p0m/2024-11-26-14-13-15/
REMARK  2 active torsions:
REMARK  status: ('A' for Active; 'I' for Inactive)
REMARK    1  A    between atoms: C_3  and  C_4
REMARK    2  A    between atoms: C_7  and  C_13
REMARK                            x       y       z     vdW  Elec       q    Type
REMARK                         _______ _______ _______ _____ _____    ______ ____
ROOT
ATOM      1  C   UNL A   1     -11.951   1.952  35.638  0.00  0.00    +0.108 A 
ATOM      2  N   UNL A   1     -12.368   2.483  36.783  0.00  0.00    -0.247 NA
ATOM      3  C   UNL A   1     -13.710   2.616  37.073  0.00  0.00    +0.065 A 
ATOM      4  C   UNL A   1     -14.454   3.142  36.089  0.00  0.00    +0.069 A 
ATOM      5  C   UNL A   1     -14.102   2.747  34.727  0.00  0.00    +0.037 A 
ATOM      6  C   UNL A   1     -12.797   2.164  34.518  0.00  0.00    +0.158 A 
ATOM      7  C   UNL A   1     -15.857   3.560  36.374  0.00  0.00    +0.250 C 
ATOM      8  O   UNL A   1     -16.728   3.722  35.712  0.00  0.00    -0.270 OA
ATOM      9  N   UNL A   1     -16.036   3.895  37.764  0.00  0.00    -0.277 N 
ATOM     10  C   UNL A   1     -15.129   3.921  38.748  0.00  0.00    +0.082 C 
ATOM     11  C   UNL A   1     -13.823   3.397  38.397  0.00  0.00    +0.066 C 
ATOM     12  C   UNL A   1     -17.358   4.457  38.148  0.00  0.00    +0.094 C 
ATOM     13  F   UNL A   1     -12.426   1.834  33.306  0.00  0.00    -0.203 F 
ATOM     14  C   UNL A   1     -17.618   4.276  39.354  0.00  0.00    +0.022 C 
ATOM     15  C   UNL A   1     -16.625   4.468  40.404  0.00  0.00    +0.004 C 
ATOM     16  C   UNL A   1     -15.335   3.969  40.061  0.00  0.00    +0.020 C 
ENDROOT
BRANCH   1  20
ATOM     17  C   UNL A   1     -10.274   0.203  36.524  0.00  0.00    +0.002 A 
ATOM     18  C   UNL A   1      -9.216  -0.366  36.387  0.00  0.00    +0.000 A 
ATOM     19  C   UNL A   1      -8.249   0.016  35.457  0.00  0.00    +0.000 A 
ATOM     20  C   UNL A   1     -10.643   1.267  35.542  0.00  0.00    +0.020 A 
ATOM     21  C   UNL A   1      -9.739   1.770  34.649  0.00  0.00    +0.002 A 
ATOM     22  C   UNL A   1      -8.473   1.138  34.513  0.00  0.00    +0.000 A 
BRANCH  19  23
ATOM     23  C   UNL A   1      -6.942  -0.625  35.214  0.00  0.00    +0.000 A 
ATOM     24  C   UNL A   1      -6.728  -1.845  34.479  0.00  0.00    +0.000 A 
ATOM     25  C   UNL A   1      -5.429  -2.359  34.297  0.00  0.00    +0.000 A 
ATOM     26  C   UNL A   1      -4.270  -1.569  34.571  0.00  0.00    +0.000 A 
ATOM     27  C   UNL A   1      -5.692   0.065  35.527  0.00  0.00    +0.000 A 
ATOM     28  C   UNL A   1      -4.451  -0.414  35.224  0.00  0.00    +0.000 A 
ENDBRANCH  19  23
ENDBRANCH   1  20
TORSDOF 2
ENDMDL
ENDMDL
