MODEL 715
MODEL 1
REMARK VINA RESULT:    -6.277      0.000      0.000
REMARK INTER + INTRA:          -6.675
REMARK INTER:                  -6.644
REMARK INTRA:                  -0.031
REMARK UNBOUND:                -0.031
REMARK  Name = No_715-gen_results/8p0m/2024-11-26-14-13-15/
REMARK  1 active torsions:
REMARK  status: ('A' for Active; 'I' for Inactive)
REMARK    1  A    between atoms: C_3  and  C_4
REMARK                            x       y       z     vdW  Elec       q    Type
REMARK                         _______ _______ _______ _____ _____    ______ ____
ROOT
ATOM      1  C   UNL A   1     -26.113  -3.150  29.742  0.00  0.00    +0.000 A 
ATOM      2  C   UNL A   1     -26.229  -4.197  29.733  0.00  0.00    +0.000 A 
ATOM      3  C   UNL A   1     -24.826  -2.625  29.259  0.00  0.00    +0.000 A 
ATOM      4  C   UNL A   1     -25.409  -5.272  29.125  0.00  0.00    +0.000 A 
ATOM      5  C   UNL A   1     -24.176  -4.855  28.638  0.00  0.00    +0.000 A 
ATOM      6  C   UNL A   1     -23.832  -3.520  28.655  0.00  0.00    +0.000 A 
ENDROOT
BRANCH   3   7
ATOM      7  C   UNL A   1     -24.364  -1.246  29.307  0.00  0.00    +0.000 A 
ATOM      8  C   UNL A   1     -22.995  -0.970  29.218  0.00  0.00    +0.000 A 
ATOM      9  C   UNL A   1     -22.528   0.141  28.694  0.00  0.00    +0.000 A 
ATOM     10  C   UNL A   1     -23.100   0.791  27.701  0.00  0.00    +0.000 A 
ATOM     11  C   UNL A   1     -24.372   0.379  27.205  0.00  0.00    +0.000 A 
ATOM     12  C   UNL A   1     -24.977  -0.715  27.765  0.00  0.00    +0.000 A 
ENDBRANCH   3   7
TORSDOF 1
ENDMDL
ENDMDL
