MODEL 716
MODEL 1
REMARK VINA RESULT:    -8.158      0.000      0.000
REMARK INTER + INTRA:         -11.491
REMARK INTER:                 -10.066
REMARK INTRA:                  -1.426
REMARK UNBOUND:                -1.426
REMARK  Name = No_716-gen_results/8p0m/2024-11-26-14-13-15/
REMARK  4 active torsions:
REMARK  status: ('A' for Active; 'I' for Inactive)
REMARK    1  A    between atoms: C_1  and  C_7
REMARK    2  A    between atoms: C_3  and  C_14
REMARK    3  A    between atoms: C_5  and  C_10
REMARK    4  A    between atoms: C_14  and  C_15
REMARK                            x       y       z     vdW  Elec       q    Type
REMARK                         _______ _______ _______ _____ _____    ______ ____
ROOT
ATOM      1  C   UNL A   1     -25.136   0.376  26.515  0.00  0.00    +0.079 A 
ATOM      2  C   UNL A   1     -25.429  -0.261  27.500  0.00  0.00    +0.003 A 
ATOM      3  C   UNL A   1     -24.560  -0.488  28.550  0.00  0.00    -0.019 A 
ATOM      4  C   UNL A   1     -23.264   0.096  28.481  0.00  0.00    -0.000 A 
ATOM      5  C   UNL A   1     -23.045   0.937  27.444  0.00  0.00    +0.071 A 
ATOM      6  C   UNL A   1     -23.951   1.127  26.505  0.00  0.00    +0.010 A 
ENDROOT
BRANCH   5   7
ATOM      7  C   UNL A   1     -21.711   1.579  27.407  0.00  0.00    +0.419 C 
ATOM      8  F   UNL A   1     -21.538   2.461  27.937  0.00  0.00    -0.166 F 
ATOM      9  F   UNL A   1     -21.545   1.811  26.028  0.00  0.00    -0.166 F 
ATOM     10  F   UNL A   1     -20.727   0.616  27.599  0.00  0.00    -0.166 F 
ENDBRANCH   5   7
BRANCH   1  11
ATOM     11  C   UNL A   1     -26.153   0.584  25.421  0.00  0.00    +0.388 C 
ATOM     12  O   UNL A   1     -26.345   0.076  24.539  0.00  0.00    -0.241 OA
ATOM     13  O   UNL A   1     -27.073   1.586  25.843  0.00  0.00    -0.241 OA
ENDBRANCH   1  11
BRANCH   3  14
ATOM     14  C   UNL A   1     -24.862  -1.421  29.701  0.00  0.00    +0.038 C 
ATOM     15  C   UNL A   1     -23.826  -1.191  30.851  0.00  0.00    +0.009 C 
ATOM     16  C   UNL A   1     -26.298  -0.792  30.249  0.00  0.00    +0.009 C 
BRANCH  14  17
ATOM     17  C   UNL A   1     -25.024  -2.688  29.437  0.00  0.00    -0.019 A 
ATOM     18  C   UNL A   1     -24.042  -3.453  28.769  0.00  0.00    -0.004 A 
ATOM     19  C   UNL A   1     -24.073  -4.827  28.611  0.00  0.00    -0.000 A 
ATOM     20  C   UNL A   1     -25.184  -5.508  29.095  0.00  0.00    -0.000 A 
ATOM     21  C   UNL A   1     -26.276  -4.817  29.687  0.00  0.00    -0.000 A 
ATOM     22  C   UNL A   1     -26.137  -3.474  29.861  0.00  0.00    -0.004 A 
ENDBRANCH  14  17
ENDBRANCH   3  14
TORSDOF 4
ENDMDL
ENDMDL
