REMARK  Name = No_717-gen_results/8p0m/2024-11-26-14-13-15/
REMARK  2 active torsions:
REMARK  status: ('A' for Active; 'I' for Inactive)
REMARK    1  A    between atoms: N_1  and  C_3
REMARK    2  A    between atoms: C_2  and  C_6
REMARK                            x       y       z     vdW  Elec       q    Type
REMARK                         _______ _______ _______ _____ _____    ______ ____
ROOT
ATOM      1  N   UNL A   1     -28.054  -1.050  28.725  0.00  0.00    -0.191 NA
ATOM      2  C   UNL A   1     -28.654  -0.567  29.508  0.00  0.00    +0.321 C 
ATOM      3  O   UNL A   1     -28.573  -0.972  30.886  0.00  0.00    -0.263 OA
ENDROOT
BRANCH   1   4
ATOM      4  C   UNL A   1     -26.695  -1.322  29.024  0.00  0.00    +0.140 C 
ATOM      5  C   UNL A   1     -25.651  -1.103  28.165  0.00  0.00    -0.001 C 
ATOM      6  C   UNL A   1     -24.302  -1.289  28.615  0.00  0.00    -0.003 C 
ATOM      7  C   UNL A   1     -24.066  -1.770  29.860  0.00  0.00    -0.003 C 
ATOM      8  C   UNL A   1     -25.954  -1.799  30.297  0.00  0.00    -0.001 C 
ENDBRANCH   1   4
BRANCH   2   9
ATOM      9  C   UNL A   1     -30.042  -0.123  29.203  0.00  0.00    +0.320 C 
ATOM     10  O   UNL A   1     -30.160   0.348  28.177  0.00  0.00    -0.263 OA
ATOM     11  N   UNL A   1     -31.068  -0.349  30.095  0.00  0.00    -0.196 NA
ATOM     12  C   UNL A   1     -31.056  -0.845  31.325  0.00  0.00    +0.139 C 
ENDBRANCH   2   9
TORSDOF 2
