MODEL 717
MODEL 1
REMARK VINA RESULT:    -5.365      0.000      0.000
REMARK INTER + INTRA:          -5.949
REMARK INTER:                  -5.992
REMARK INTRA:                   0.043
REMARK UNBOUND:                 0.043
REMARK  Name = No_717-gen_results/8p0m/2024-11-26-14-13-15/
REMARK  2 active torsions:
REMARK  status: ('A' for Active; 'I' for Inactive)
REMARK    1  A    between atoms: N_1  and  C_3
REMARK    2  A    between atoms: C_2  and  C_6
REMARK                            x       y       z     vdW  Elec       q    Type
REMARK                         _______ _______ _______ _____ _____    ______ ____
ROOT
ATOM      1  N   UNL A   1     -23.738  -1.693  28.520  0.00  0.00    -0.191 NA
ATOM      2  C   UNL A   1     -22.956  -1.419  29.241  0.00  0.00    +0.321 C 
ATOM      3  O   UNL A   1     -23.214  -1.356  30.655  0.00  0.00    -0.263 OA
ENDROOT
BRANCH   1   4
ATOM      4  C   UNL A   1     -24.583  -2.779  28.861  0.00  0.00    +0.140 C 
ATOM      5  C   UNL A   1     -24.250  -4.099  28.713  0.00  0.00    -0.001 C 
ATOM      6  C   UNL A   1     -25.126  -5.119  29.212  0.00  0.00    -0.003 C 
ATOM      7  C   UNL A   1     -26.324  -4.778  29.745  0.00  0.00    -0.003 C 
ATOM      8  C   UNL A   1     -25.970  -2.884  29.542  0.00  0.00    -0.001 C 
ENDBRANCH   1   4
BRANCH   2   9
ATOM      9  C   UNL A   1     -21.947  -0.386  28.875  0.00  0.00    +0.320 C 
ATOM     10  O   UNL A   1     -20.887  -0.785  28.801  0.00  0.00    -0.263 OA
ATOM     11  N   UNL A   1     -22.330   0.908  28.596  0.00  0.00    -0.196 NA
ATOM     12  C   UNL A   1     -23.513   1.502  28.684  0.00  0.00    +0.139 C 
ENDBRANCH   2   9
TORSDOF 2
ENDMDL
ENDMDL
