MODEL 718
MODEL 1
REMARK VINA RESULT:    -4.313      0.000      0.000
REMARK INTER + INTRA:          -4.947
REMARK INTER:                  -4.817
REMARK INTRA:                  -0.130
REMARK UNBOUND:                -0.130
REMARK  Name = No_718-gen_results/8p0m/2024-11-26-14-13-15/
REMARK  2 active torsions:
REMARK  status: ('A' for Active; 'I' for Inactive)
REMARK    1  A    between atoms: C_2  and  C_4
REMARK    2  A    between atoms: C_4  and  C_6
REMARK                            x       y       z     vdW  Elec       q    Type
REMARK                         _______ _______ _______ _____ _____    ______ ____
ROOT
ATOM      1  F   UNL A   1      -7.683  -9.909  21.028  0.00  0.00    -0.170 F 
ATOM      2  C   UNL A   1      -8.290  -9.350  20.234  0.00  0.00    +0.402 C 
ATOM      3  F   UNL A   1      -7.944  -8.279  20.005  0.00  0.00    -0.170 F 
ATOM      4  F   UNL A   1      -9.629  -9.250  20.668  0.00  0.00    -0.170 F 
ENDROOT
BRANCH   2   5
ATOM      5  C   UNL A   1      -8.372 -10.170  18.974  0.00  0.00    +0.129 C 
BRANCH   5   6
ATOM      6  C   UNL A   1      -9.223  -9.682  18.036  0.00  0.00    -0.017 C 
ATOM      7  C   UNL A   1     -10.308 -10.427  17.535  0.00  0.00    -0.005 C 
ENDBRANCH   5   6
ENDBRANCH   2   5
TORSDOF 2
ENDMDL
ENDMDL
