REMARK  Name = No_719-gen_results/8p0m/2024-11-26-14-13-15/
REMARK  7 active torsions:
REMARK  status: ('A' for Active; 'I' for Inactive)
REMARK    1  A    between atoms: C_1  and  O_15
REMARK    2  A    between atoms: C_3  and  C_7
REMARK    3  A    between atoms: O_15  and  C_16
REMARK    4  A    between atoms: C_16  and  C_17
REMARK    5  A    between atoms: C_17  and  O_19
REMARK    6  A    between atoms: O_19  and  C_21
REMARK    7  A    between atoms: C_22  and  C_23
REMARK                            x       y       z     vdW  Elec       q    Type
REMARK                         _______ _______ _______ _____ _____    ______ ____
ROOT
ATOM      1  C   UNL A   1     -28.016  -0.814  28.878  0.00  0.00    +0.159 A 
ATOM      2  C   UNL A   1     -27.064  -0.119  28.608  0.00  0.00    +0.038 A 
ATOM      3  C   UNL A   1     -25.765  -0.390  29.036  0.00  0.00    +0.003 A 
ATOM      4  C   UNL A   1     -25.530  -1.530  29.901  0.00  0.00    +0.001 A 
ATOM      5  C   UNL A   1     -26.689  -2.289  30.181  0.00  0.00    +0.015 A 
ATOM      6  C   UNL A   1     -27.873  -1.951  29.737  0.00  0.00    +0.092 A 
ATOM      7 CL   UNL A   1     -29.230  -2.899  30.208  0.00  0.00    -0.079 Cl
ENDROOT
BRANCH   3   8
ATOM      8  C   UNL A   1     -24.549   0.410  28.734  0.00  0.00    +0.002 A 
ATOM      9  C   UNL A   1     -24.479   1.187  27.684  0.00  0.00    +0.030 A 
ATOM     10  C   UNL A   1     -23.272   1.897  27.373  0.00  0.00    +0.140 A 
ATOM     11  C   UNL A   1     -22.106   1.703  28.041  0.00  0.00    +0.030 A 
ATOM     12  C   UNL A   1     -23.319   0.179  29.467  0.00  0.00    +0.000 A 
ATOM     13  C   UNL A   1     -22.116   0.840  29.101  0.00  0.00    +0.002 A 
ATOM     14  F   UNL A   1     -23.324   2.757  26.325  0.00  0.00    -0.204 F 
ENDBRANCH   3   8
BRANCH   1  15
ATOM     15  O   UNL A   1     -29.280  -0.528  28.486  0.00  0.00    -0.416 OA
BRANCH  15  16
ATOM     16  C   UNL A   1     -29.444   0.455  27.544  0.00  0.00    +0.423 C 
ATOM     17  O   UNL A   1     -29.289   0.215  26.370  0.00  0.00    -0.237 OA
BRANCH  16  18
ATOM     18  C   UNL A   1     -29.880   1.609  28.122  0.00  0.00    +0.423 C 
ATOM     19  O   UNL A   1     -30.415   1.676  29.190  0.00  0.00    -0.237 OA
BRANCH  18  20
ATOM     20  O   UNL A   1     -29.958   2.734  27.334  0.00  0.00    -0.414 OA
BRANCH  20  21
ATOM     21  C   UNL A   1     -29.677   3.867  27.772  0.00  0.00    +0.179 C 
ATOM     22  C   UNL A   1     -29.500   4.875  26.854  0.00  0.00    +0.015 C 
BRANCH  22  23
ATOM     23  C   UNL A   1     -29.630   4.803  25.619  0.00  0.00    +0.029 C 
ATOM     24  C   UNL A   1     -30.041   3.549  25.150  0.00  0.00    +0.005 C 
ENDBRANCH  22  23
ENDBRANCH  20  21
ENDBRANCH  18  20
ENDBRANCH  16  18
ENDBRANCH  15  16
ENDBRANCH   1  15
TORSDOF 7
