MODEL 719
MODEL 1
REMARK VINA RESULT:    -7.163      0.000      0.000
REMARK INTER + INTRA:         -11.408
REMARK INTER:                 -10.095
REMARK INTRA:                  -1.313
REMARK UNBOUND:                -1.313
REMARK  Name = No_719-gen_results/8p0m/2024-11-26-14-13-15/
REMARK  7 active torsions:
REMARK  status: ('A' for Active; 'I' for Inactive)
REMARK    1  A    between atoms: C_1  and  O_15
REMARK    2  A    between atoms: C_3  and  C_7
REMARK    3  A    between atoms: O_15  and  C_16
REMARK    4  A    between atoms: C_16  and  C_17
REMARK    5  A    between atoms: C_17  and  O_19
REMARK    6  A    between atoms: O_19  and  C_21
REMARK    7  A    between atoms: C_22  and  C_23
REMARK                            x       y       z     vdW  Elec       q    Type
REMARK                         _______ _______ _______ _____ _____    ______ ____
ROOT
ATOM      1  C   UNL A   1     -23.594   0.718  27.824  0.00  0.00    +0.159 A 
ATOM      2  C   UNL A   1     -24.318  -0.208  28.108  0.00  0.00    +0.038 A 
ATOM      3  C   UNL A   1     -23.894  -1.327  28.824  0.00  0.00    +0.003 A 
ATOM      4  C   UNL A   1     -22.500  -1.433  29.209  0.00  0.00    +0.001 A 
ATOM      5  C   UNL A   1     -21.713  -0.320  28.835  0.00  0.00    +0.015 A 
ATOM      6  C   UNL A   1     -22.200   0.687  28.155  0.00  0.00    +0.092 A 
ATOM      7 CL   UNL A   1     -21.134   1.951  27.679  0.00  0.00    -0.079 Cl
ENDROOT
BRANCH   3   8
ATOM      8  C   UNL A   1     -24.728  -2.492  29.218  0.00  0.00    +0.002 A 
ATOM      9  C   UNL A   1     -24.429  -3.710  28.847  0.00  0.00    +0.030 A 
ATOM     10  C   UNL A   1     -25.284  -4.813  29.180  0.00  0.00    +0.140 A 
ATOM     11  C   UNL A   1     -26.503  -4.656  29.757  0.00  0.00    +0.030 A 
ATOM     12  C   UNL A   1     -26.026  -2.291  29.834  0.00  0.00    +0.000 A 
ATOM     13  C   UNL A   1     -26.889  -3.388  30.094  0.00  0.00    +0.002 A 
ATOM     14  F   UNL A   1     -24.843  -6.050  28.842  0.00  0.00    -0.204 F 
ENDBRANCH   3   8
BRANCH   1  15
ATOM     15  O   UNL A   1     -24.003   1.787  27.100  0.00  0.00    -0.416 OA
BRANCH  15  16
ATOM     16  C   UNL A   1     -24.906   2.638  27.684  0.00  0.00    +0.423 C 
ATOM     17  O   UNL A   1     -24.713   3.074  28.794  0.00  0.00    -0.237 OA
BRANCH  16  18
ATOM     18  C   UNL A   1     -25.905   2.952  26.812  0.00  0.00    +0.423 C 
ATOM     19  O   UNL A   1     -26.168   4.061  26.449  0.00  0.00    -0.237 OA
BRANCH  18  20
ATOM     20  O   UNL A   1     -26.842   1.985  26.532  0.00  0.00    -0.414 OA
BRANCH  20  21
ATOM     21  C   UNL A   1     -27.381   1.894  25.412  0.00  0.00    +0.179 C 
ATOM     22  C   UNL A   1     -27.036   0.819  24.628  0.00  0.00    +0.015 C 
BRANCH  22  23
ATOM     23  C   UNL A   1     -26.269  -0.115  24.922  0.00  0.00    +0.029 C 
ATOM     24  C   UNL A   1     -24.957   0.041  24.455  0.00  0.00    +0.005 C 
ENDBRANCH  22  23
ENDBRANCH  20  21
ENDBRANCH  18  20
ENDBRANCH  16  18
ENDBRANCH  15  16
ENDBRANCH   1  15
TORSDOF 7
ENDMDL
ENDMDL
