MODEL 71
MODEL 1
REMARK VINA RESULT:    -4.372      0.000      0.000
REMARK INTER + INTRA:          -4.372
REMARK INTER:                  -4.372
REMARK INTRA:                   0.000
REMARK UNBOUND:                 0.000
REMARK  Name = No_71-gen_results/8p0m/2024-11-26-14-13-15/
REMARK  0 active torsions:
REMARK  status: ('A' for Active; 'I' for Inactive)
REMARK                            x       y       z     vdW  Elec       q    Type
REMARK                         _______ _______ _______ _____ _____    ______ ____
ROOT
ATOM      1  C   UNL A   1     -25.326  -2.583  29.791  0.00  0.00    +0.011 A 
ATOM      2  C   UNL A   1     -24.295  -2.899  29.242  0.00  0.00    +0.058 A 
ATOM      3  C   UNL A   1     -24.020  -4.156  28.810  0.00  0.00    +0.011 A 
ATOM      4  C   UNL A   1     -24.989  -5.158  29.009  0.00  0.00    +0.001 A 
ATOM      5  C   UNL A   1     -26.398  -3.534  29.941  0.00  0.00    +0.001 A 
ATOM      6  C   UNL A   1     -26.161  -4.817  29.550  0.00  0.00    +0.000 A 
ATOM      7 CL   UNL A   1     -23.037  -1.734  28.938  0.00  0.00    -0.082 Cl
ENDROOT
TORSDOF 0
ENDMDL
ENDMDL
