REMARK  Name = No_720-gen_results/8p0m/2024-11-26-14-13-15/
REMARK  2 active torsions:
REMARK  status: ('A' for Active; 'I' for Inactive)
REMARK    1  A    between atoms: C_14  and  C_15
REMARK    2  A    between atoms: C_14  and  C_16
REMARK                            x       y       z     vdW  Elec       q    Type
REMARK                         _______ _______ _______ _____ _____    ______ ____
ROOT
ATOM      1  O   UNL A   1     -28.123  -1.335  28.487  0.00  0.00    -0.475 OA
ATOM      2  C   UNL A   1     -27.064  -0.824  28.869  0.00  0.00    +0.135 A 
ATOM      3  C   UNL A   1     -26.050  -0.936  28.758  0.00  0.00    +0.037 A 
ATOM      4  C   UNL A   1     -24.863  -0.167  29.126  0.00  0.00    +0.003 A 
ATOM      5  C   UNL A   1     -25.192   0.981  29.873  0.00  0.00    -0.000 A 
ATOM      6  C   UNL A   1     -26.506   1.213  30.113  0.00  0.00    -0.001 A 
ATOM      7  C   UNL A   1     -27.486   0.455  29.730  0.00  0.00    +0.022 A 
ATOM      8  C   UNL A   1     -23.460  -0.395  28.915  0.00  0.00    -0.004 A 
ATOM      9  C   UNL A   1     -22.547   0.646  28.723  0.00  0.00    -0.022 A 
ATOM     10  C   UNL A   1     -23.039   1.908  29.273  0.00  0.00    -0.004 A 
ATOM     11  C   UNL A   1     -24.190   2.042  29.952  0.00  0.00    -0.000 A 
ATOM     12  C   UNL A   1     -21.217   0.504  28.368  0.00  0.00    +0.031 C 
ATOM     13  C   UNL A   1     -29.362  -1.069  29.183  0.00  0.00    +0.217 C 
ATOM     14  C   UNL A   1     -28.978   0.190  29.875  0.00  0.00    +0.099 C 
ENDROOT
BRANCH  14  15
ATOM     15  C   UNL A   1     -29.589   1.420  29.130  0.00  0.00    -0.012 A 
ATOM     16  C   UNL A   1     -29.423   1.898  28.246  0.00  0.00    -0.004 A 
ATOM     17  C   UNL A   1     -29.741   2.854  27.519  0.00  0.00    -0.000 A 
ATOM     18  C   UNL A   1     -30.929   1.800  29.796  0.00  0.00    -0.004 A 
ATOM     19  C   UNL A   1     -31.530   2.900  29.187  0.00  0.00    -0.000 A 
ATOM     20  C   UNL A   1     -31.005   3.455  28.032  0.00  0.00    -0.000 A 
ENDBRANCH  14  15
BRANCH  14  21
ATOM     21  C   UNL A   1     -29.312   0.277  31.372  0.00  0.00    -0.019 C 
ATOM     22  C   UNL A   1     -28.636   1.117  32.144  0.00  0.00    -0.030 C 
ATOM     23  C   UNL A   1     -28.891   1.217  33.547  0.00  0.00    +0.030 C 
ENDBRANCH  14  21
TORSDOF 2
