MODEL 720
MODEL 1
REMARK VINA RESULT:    -8.245      0.000      0.000
REMARK INTER + INTRA:         -10.004
REMARK INTER:                  -9.209
REMARK INTRA:                  -0.794
REMARK UNBOUND:                -0.794
REMARK  Name = No_720-gen_results/8p0m/2024-11-26-14-13-15/
REMARK  2 active torsions:
REMARK  status: ('A' for Active; 'I' for Inactive)
REMARK    1  A    between atoms: C_14  and  C_15
REMARK    2  A    between atoms: C_14  and  C_16
REMARK                            x       y       z     vdW  Elec       q    Type
REMARK                         _______ _______ _______ _____ _____    ______ ____
ROOT
ATOM      1  O   UNL A   1      -8.502   1.502  37.978  0.00  0.00    -0.475 OA
ATOM      2  C   UNL A   1      -7.888   0.937  37.065  0.00  0.00    +0.135 A 
ATOM      3  C   UNL A   1      -6.928   0.795  36.731  0.00  0.00    +0.037 A 
ATOM      4  C   UNL A   1      -6.282  -0.039  35.720  0.00  0.00    +0.003 A 
ATOM      5  C   UNL A   1      -7.218  -0.787  34.980  0.00  0.00    -0.000 A 
ATOM      6  C   UNL A   1      -8.525  -0.653  35.311  0.00  0.00    -0.001 A 
ATOM      7  C   UNL A   1      -8.990   0.124  36.240  0.00  0.00    +0.022 A 
ATOM      8  C   UNL A   1      -4.908  -0.186  35.323  0.00  0.00    -0.004 A 
ATOM      9  C   UNL A   1      -4.381  -1.397  34.865  0.00  0.00    -0.022 A 
ATOM     10  C   UNL A   1      -5.423  -2.281  34.346  0.00  0.00    -0.004 A 
ATOM     11  C   UNL A   1      -6.720  -1.947  34.243  0.00  0.00    -0.000 A 
ATOM     12  C   UNL A   1      -3.046  -1.656  34.608  0.00  0.00    +0.031 C 
ATOM     13  C   UNL A   1      -9.924   1.738  37.872  0.00  0.00    +0.217 C 
ATOM     14  C   UNL A   1     -10.256   0.723  36.837  0.00  0.00    +0.099 C 
ENDROOT
BRANCH  14  15
ATOM     15  C   UNL A   1     -10.911  -0.529  37.504  0.00  0.00    -0.012 A 
ATOM     16  C   UNL A   1     -10.977  -1.523  37.290  0.00  0.00    -0.004 A 
ATOM     17  C   UNL A   1     -11.450  -2.619  37.635  0.00  0.00    -0.000 A 
ATOM     18  C   UNL A   1     -11.302  -0.182  38.956  0.00  0.00    -0.004 A 
ATOM     19  C   UNL A   1     -11.904  -1.253  39.614  0.00  0.00    -0.000 A 
ATOM     20  C   UNL A   1     -11.983  -2.503  39.023  0.00  0.00    -0.000 A 
ENDBRANCH  14  15
BRANCH  14  21
ATOM     21  C   UNL A   1     -11.129   1.199  35.667  0.00  0.00    -0.019 C 
ATOM     22  C   UNL A   1     -12.222   1.908  35.914  0.00  0.00    -0.030 C 
ATOM     23  C   UNL A   1     -13.082   2.353  34.862  0.00  0.00    +0.030 C 
ENDBRANCH  14  21
TORSDOF 2
ENDMDL
ENDMDL
