REMARK  Name = No_721-gen_results/8p0m/2024-11-26-14-13-15/
REMARK  1 active torsions:
REMARK  status: ('A' for Active; 'I' for Inactive)
REMARK    1  A    between atoms: C_3  and  C_7
REMARK                            x       y       z     vdW  Elec       q    Type
REMARK                         _______ _______ _______ _____ _____    ______ ____
ROOT
ATOM      1  C   UNL A   1     -28.016  -0.814  28.878  0.00  0.00    +0.000 A 
ATOM      2  C   UNL A   1     -27.064  -0.119  28.608  0.00  0.00    +0.000 A 
ATOM      3  C   UNL A   1     -25.765  -0.390  29.036  0.00  0.00    +0.000 A 
ATOM      4  C   UNL A   1     -25.530  -1.530  29.901  0.00  0.00    +0.000 A 
ATOM      5  C   UNL A   1     -26.658  -2.292  30.203  0.00  0.00    +0.000 A 
ATOM      6  C   UNL A   1     -27.855  -1.956  29.763  0.00  0.00    +0.000 A 
ENDROOT
BRANCH   3   7
ATOM      7  C   UNL A   1     -24.535   0.413  28.743  0.00  0.00    +0.000 A 
ATOM      8  C   UNL A   1     -24.054   1.325  29.576  0.00  0.00    +0.000 A 
ATOM      9  C   UNL A   1     -22.924   2.128  29.215  0.00  0.00    +0.000 A 
ATOM     10  C   UNL A   1     -22.231   1.913  27.979  0.00  0.00    +0.000 A 
ATOM     11  C   UNL A   1     -23.819   0.328  27.513  0.00  0.00    +0.000 A 
ATOM     12  C   UNL A   1     -22.753   1.056  27.162  0.00  0.00    +0.000 A 
ENDBRANCH   3   7
TORSDOF 1
