MODEL 721
MODEL 1
REMARK VINA RESULT:    -6.515      0.000      0.000
REMARK INTER + INTRA:          -7.207
REMARK INTER:                  -6.896
REMARK INTRA:                  -0.311
REMARK UNBOUND:                -0.311
REMARK  Name = No_721-gen_results/8p0m/2024-11-26-14-13-15/
REMARK  1 active torsions:
REMARK  status: ('A' for Active; 'I' for Inactive)
REMARK    1  A    between atoms: C_3  and  C_7
REMARK                            x       y       z     vdW  Elec       q    Type
REMARK                         _______ _______ _______ _____ _____    ______ ____
ROOT
ATOM      1  C   UNL A   1     -26.558  -3.609  29.938  0.00  0.00    +0.000 A 
ATOM      2  C   UNL A   1     -25.932  -2.598  29.720  0.00  0.00    +0.000 A 
ATOM      3  C   UNL A   1     -24.693  -2.581  29.079  0.00  0.00    +0.000 A 
ATOM      4  C   UNL A   1     -24.079  -3.838  28.697  0.00  0.00    +0.000 A 
ATOM      5  C   UNL A   1     -24.827  -4.979  28.985  0.00  0.00    +0.000 A 
ATOM      6  C   UNL A   1     -25.988  -4.904  29.606  0.00  0.00    +0.000 A 
ENDROOT
BRANCH   3   7
ATOM      7  C   UNL A   1     -23.858  -1.378  28.767  0.00  0.00    +0.000 A 
ATOM      8  C   UNL A   1     -24.251  -0.423  27.936  0.00  0.00    +0.000 A 
ATOM      9  C   UNL A   1     -23.381   0.666  27.603  0.00  0.00    +0.000 A 
ATOM     10  C   UNL A   1     -22.095   0.798  28.220  0.00  0.00    +0.000 A 
ATOM     11  C   UNL A   1     -22.537  -1.191  29.269  0.00  0.00    +0.000 A 
ATOM     12  C   UNL A   1     -21.715  -0.174  28.984  0.00  0.00    +0.000 A 
ENDBRANCH   3   7
TORSDOF 1
ENDMDL
ENDMDL
