REMARK  Name = No_722-gen_results/8p0m/2024-11-26-14-13-15/
REMARK  4 active torsions:
REMARK  status: ('A' for Active; 'I' for Inactive)
REMARK    1  A    between atoms: C_2  and  C_7
REMARK    2  A    between atoms: C_3  and  C_17
REMARK    3  A    between atoms: N_9  and  C_11
REMARK    4  A    between atoms: C_17  and  C_18
REMARK                            x       y       z     vdW  Elec       q    Type
REMARK                         _______ _______ _______ _____ _____    ______ ____
ROOT
ATOM      1  C   UNL A   1     -30.061  -0.737  29.902  0.00  0.00    +0.253 C 
ATOM      2  O   UNL A   1     -30.725  -1.554  30.270  0.00  0.00    -0.270 OA
ATOM      3  N   UNL A   1     -30.524   0.566  29.697  0.00  0.00    -0.253 N 
ATOM      4  C   UNL A   1     -31.930   0.764  29.624  0.00  0.00    +0.120 C 
ENDROOT
BRANCH   3   5
ATOM      5  C   UNL A   1     -29.860   1.283  28.609  0.00  0.00    +0.054 A 
ATOM      6  C   UNL A   1     -29.207   2.273  28.879  0.00  0.00    +0.015 A 
ATOM      7  C   UNL A   1     -28.447   3.050  27.836  0.00  0.00    +0.001 A 
ATOM      8  C   UNL A   1     -28.495   2.571  26.531  0.00  0.00    +0.000 A 
ATOM      9  C   UNL A   1     -30.139   0.937  27.293  0.00  0.00    +0.015 A 
ATOM     10  C   UNL A   1     -29.392   1.520  26.271  0.00  0.00    +0.001 A 
ATOM     11  C   UNL A   1     -27.803   3.286  25.492  0.00  0.00    +0.000 A 
ATOM     12  C   UNL A   1     -29.518   1.056  24.884  0.00  0.00    +0.000 A 
ATOM     13  C   UNL A   1     -28.588   1.494  23.934  0.00  0.00    +0.000 A 
ATOM     14  C   UNL A   1     -27.877   2.726  24.157  0.00  0.00    +0.000 A 
ENDBRANCH   3   5
BRANCH   1  16
ATOM     15  C   UNL A   1     -28.016  -0.814  28.878  0.00  0.00    +0.001 A 
ATOM     16  C   UNL A   1     -28.469  -0.785  29.829  0.00  0.00    +0.054 A 
ATOM     17  C   UNL A   1     -26.546  -0.876  28.850  0.00  0.00    -0.018 A 
ATOM     18  C   UNL A   1     -25.804  -1.032  30.057  0.00  0.00    -0.004 A 
ATOM     19  C   UNL A   1     -27.944  -0.987  31.207  0.00  0.00    +0.004 A 
ATOM     20  C   UNL A   1     -26.582  -1.039  31.223  0.00  0.00    -0.000 A 
BRANCH  17  21
ATOM     21  C   UNL A   1     -25.703  -0.724  27.612  0.00  0.00    +0.053 C 
BRANCH  21  22
ATOM     22  C   UNL A   1     -25.241   0.654  27.330  0.00  0.00    -0.018 A 
ATOM     23  C   UNL A   1     -24.802   0.965  26.076  0.00  0.00    -0.004 A 
ATOM     24  C   UNL A   1     -24.138   2.199  25.818  0.00  0.00    -0.000 A 
ATOM     25  C   UNL A   1     -23.946   3.037  26.934  0.00  0.00    -0.000 A 
ATOM     26  C   UNL A   1     -24.768   1.669  28.261  0.00  0.00    -0.004 A 
ATOM     27  C   UNL A   1     -24.291   2.786  28.106  0.00  0.00    -0.000 A 
ENDBRANCH  21  22
ENDBRANCH  17  21
ENDBRANCH   1  16
TORSDOF 4
