MODEL 722
MODEL 1
REMARK VINA RESULT:    -8.346      0.000      0.000
REMARK INTER + INTRA:         -11.156
REMARK INTER:                 -10.298
REMARK INTRA:                  -0.858
REMARK UNBOUND:                -0.858
REMARK  Name = No_722-gen_results/8p0m/2024-11-26-14-13-15/
REMARK  4 active torsions:
REMARK  status: ('A' for Active; 'I' for Inactive)
REMARK    1  A    between atoms: C_2  and  C_7
REMARK    2  A    between atoms: C_3  and  C_17
REMARK    3  A    between atoms: N_9  and  C_11
REMARK    4  A    between atoms: C_17  and  C_18
REMARK                            x       y       z     vdW  Elec       q    Type
REMARK                         _______ _______ _______ _____ _____    ______ ____
ROOT
ATOM      1  C   UNL A   1     -25.147   0.530  25.399  0.00  0.00    +0.253 C 
ATOM      2  O   UNL A   1     -24.964   0.069  24.400  0.00  0.00    -0.270 OA
ATOM      3  N   UNL A   1     -26.397   1.032  25.771  0.00  0.00    -0.253 N 
ATOM      4  C   UNL A   1     -27.347   1.271  24.741  0.00  0.00    +0.120 C 
ENDROOT
BRANCH   3   5
ATOM      5  C   UNL A   1     -26.347   2.176  26.681  0.00  0.00    +0.054 A 
ATOM      6  C   UNL A   1     -26.830   2.057  27.791  0.00  0.00    +0.015 A 
ATOM      7  C   UNL A   1     -26.783   3.160  28.816  0.00  0.00    +0.001 A 
ATOM      8  C   UNL A   1     -26.132   4.334  28.453  0.00  0.00    +0.000 A 
ATOM      9  C   UNL A   1     -25.928   3.411  26.203  0.00  0.00    +0.015 A 
ATOM     10  C   UNL A   1     -25.740   4.454  27.108  0.00  0.00    +0.001 A 
ATOM     11  C   UNL A   1     -26.075   5.426  29.387  0.00  0.00    +0.000 A 
ATOM     12  C   UNL A   1     -25.125   5.719  26.686  0.00  0.00    +0.000 A 
ATOM     13  C   UNL A   1     -24.735   6.644  27.661  0.00  0.00    +0.000 A 
ATOM     14  C   UNL A   1     -25.367   6.615  28.955  0.00  0.00    +0.000 A 
ENDBRANCH   3   5
BRANCH   1  16
ATOM     15  C   UNL A   1     -24.415  -0.239  27.426  0.00  0.00    +0.001 A 
ATOM     16  C   UNL A   1     -24.177   0.446  26.662  0.00  0.00    +0.054 A 
ATOM     17  C   UNL A   1     -23.508  -0.275  28.584  0.00  0.00    -0.018 A 
ATOM     18  C   UNL A   1     -22.452   0.674  28.708  0.00  0.00    -0.004 A 
ATOM     19  C   UNL A   1     -23.194   1.560  26.570  0.00  0.00    +0.004 A 
ATOM     20  C   UNL A   1     -22.327   1.552  27.622  0.00  0.00    -0.000 A 
BRANCH  17  21
ATOM     21  C   UNL A   1     -23.553  -1.308  29.678  0.00  0.00    +0.053 C 
BRANCH  21  22
ATOM     22  C   UNL A   1     -24.322  -2.532  29.358  0.00  0.00    -0.018 A 
ATOM     23  C   UNL A   1     -25.563  -2.699  29.900  0.00  0.00    -0.004 A 
ATOM     24  C   UNL A   1     -26.239  -3.950  29.809  0.00  0.00    -0.000 A 
ATOM     25  C   UNL A   1     -25.533  -4.983  29.163  0.00  0.00    -0.000 A 
ATOM     26  C   UNL A   1     -23.835  -3.821  28.887  0.00  0.00    -0.004 A 
ATOM     27  C   UNL A   1     -24.384  -4.897  28.685  0.00  0.00    -0.000 A 
ENDBRANCH  21  22
ENDBRANCH  17  21
ENDBRANCH   1  16
TORSDOF 4
ENDMDL
ENDMDL
