MODEL 723
MODEL 1
REMARK VINA RESULT:    -5.388      0.000      0.000
REMARK INTER + INTRA:          -5.744
REMARK INTER:                  -5.703
REMARK INTRA:                  -0.041
REMARK UNBOUND:                -0.041
REMARK  Name = No_723-gen_results/8p0m/2024-11-26-14-13-15/
REMARK  1 active torsions:
REMARK  status: ('A' for Active; 'I' for Inactive)
REMARK    1  A    between atoms: C_6  and  C_7
REMARK                            x       y       z     vdW  Elec       q    Type
REMARK                         _______ _______ _______ _____ _____    ______ ____
ROOT
ATOM      1  C   UNL A   1     -10.332  -9.293  19.255  0.00  0.00    +0.007 A 
ATOM      2  C   UNL A   1      -9.879  -9.012  20.341  0.00  0.00    +0.000 A 
ATOM      3  C   UNL A   1      -8.584  -9.374  20.694  0.00  0.00    +0.000 A 
ATOM      4  C   UNL A   1      -7.756 -10.135  19.795  0.00  0.00    +0.000 A 
ATOM      5  C   UNL A   1      -8.366 -10.437  18.571  0.00  0.00    +0.007 A 
ATOM      6  C   UNL A   1      -9.600 -10.086  18.291  0.00  0.00    +0.080 A 
ENDROOT
BRANCH   6   7
ATOM      7  C   UNL A   1     -10.148 -10.514  16.983  0.00  0.00    +0.388 C 
ATOM      8  O   UNL A   1      -9.464 -11.007  16.196  0.00  0.00    -0.241 OA
ATOM      9  O   UNL A   1     -11.504 -10.520  16.925  0.00  0.00    -0.241 OA
ENDBRANCH   6   7
TORSDOF 1
ENDMDL
ENDMDL
