REMARK  Name = No_724-gen_results/8p0m/2024-11-26-14-13-15/
REMARK  3 active torsions:
REMARK  status: ('A' for Active; 'I' for Inactive)
REMARK    1  A    between atoms: C_4  and  C_7
REMARK    2  A    between atoms: C_7  and  C_9
REMARK    3  A    between atoms: C_10  and  C_11
REMARK                            x       y       z     vdW  Elec       q    Type
REMARK                         _______ _______ _______ _____ _____    ______ ____
ROOT
ATOM      1  C   UNL A   1     -24.389  -0.805  30.164  0.00  0.00    +0.124 C 
ATOM      2 CL   UNL A   1     -23.696  -1.381  31.318  0.00  0.00    -0.105 Cl
ENDROOT
BRANCH   1   6
ATOM      3  C   UNL A   1     -28.016  -0.814  28.878  0.00  0.00    -0.000 A 
ATOM      4  C   UNL A   1     -28.469  -0.785  29.829  0.00  0.00    -0.000 A 
ATOM      5  C   UNL A   1     -26.504  -0.778  28.877  0.00  0.00    -0.003 A 
ATOM      6  C   UNL A   1     -25.810  -0.853  30.103  0.00  0.00    -0.003 A 
ATOM      7  C   UNL A   1     -27.991  -0.892  31.226  0.00  0.00    -0.000 A 
ATOM      8  C   UNL A   1     -26.604  -0.868  31.265  0.00  0.00    -0.003 A 
ENDBRANCH   1   6
BRANCH   1   9
ATOM      9  C   UNL A   1     -23.593  -0.240  29.118  0.00  0.00    -0.006 C 
ATOM     10  C   UNL A   1     -22.217  -0.254  29.170  0.00  0.00    -0.003 C 
BRANCH  10  11
ATOM     11  C   UNL A   1     -21.462   0.541  28.230  0.00  0.00    -0.005 C 
ATOM     12  C   UNL A   1     -22.164   1.379  27.346  0.00  0.00    -0.026 C 
ATOM     13  C   UNL A   1     -23.546   1.508  27.411  0.00  0.00    +0.031 C 
ENDBRANCH  10  11
ENDBRANCH   1   9
TORSDOF 3
