MODEL 724
MODEL 1
REMARK VINA RESULT:    -6.243      0.000      0.000
REMARK INTER + INTRA:          -7.761
REMARK INTER:                  -7.338
REMARK INTRA:                  -0.423
REMARK UNBOUND:                -0.423
REMARK  Name = No_724-gen_results/8p0m/2024-11-26-14-13-15/
REMARK  3 active torsions:
REMARK  status: ('A' for Active; 'I' for Inactive)
REMARK    1  A    between atoms: C_4  and  C_7
REMARK    2  A    between atoms: C_7  and  C_9
REMARK    3  A    between atoms: C_10  and  C_11
REMARK                            x       y       z     vdW  Elec       q    Type
REMARK                         _______ _______ _______ _____ _____    ______ ____
ROOT
ATOM      1  C   UNL A   1     -23.702  -0.696  29.112  0.00  0.00    +0.124 C 
ATOM      2 CL   UNL A   1     -24.379  -0.290  30.345  0.00  0.00    -0.105 Cl
ENDROOT
BRANCH   1   6
ATOM      3  C   UNL A   1     -23.784   1.639  26.054  0.00  0.00    -0.000 A 
ATOM      4  C   UNL A   1     -22.801   2.001  26.167  0.00  0.00    -0.000 A 
ATOM      5  C   UNL A   1     -24.213   0.598  27.063  0.00  0.00    -0.003 A 
ATOM      6  C   UNL A   1     -23.359   0.289  28.143  0.00  0.00    -0.003 A 
ATOM      7  C   UNL A   1     -21.745   1.875  27.196  0.00  0.00    -0.000 A 
ATOM      8  C   UNL A   1     -22.106   0.929  28.145  0.00  0.00    -0.003 A 
ENDBRANCH   1   6
BRANCH   1   9
ATOM      9  C   UNL A   1     -23.441  -2.089  28.918  0.00  0.00    -0.006 C 
ATOM     10  C   UNL A   1     -24.453  -2.981  28.639  0.00  0.00    -0.003 C 
BRANCH  10  11
ATOM     11  C   UNL A   1     -24.187  -4.399  28.701  0.00  0.00    -0.005 C 
ATOM     12  C   UNL A   1     -25.162  -5.239  29.265  0.00  0.00    -0.026 C 
ATOM     13  C   UNL A   1     -26.389  -4.744  29.691  0.00  0.00    +0.031 C 
ENDBRANCH  10  11
ENDBRANCH   1   9
TORSDOF 3
ENDMDL
ENDMDL
