REMARK  Name = No_725-gen_results/8p0m/2024-11-26-14-13-15/
REMARK  11 active torsions:
REMARK  status: ('A' for Active; 'I' for Inactive)
REMARK    1  A    between atoms: C_5  and  C_11
REMARK    2  A    between atoms: C_7  and  C_14
REMARK    3  A    between atoms: C_8  and  O_17
REMARK    4  A    between atoms: C_14  and  O_16
REMARK    5  A    between atoms: O_16  and  C_24
REMARK    6  A    between atoms: O_17  and  C_18
REMARK    7  A    between atoms: C_24  and  C_25
REMARK    8  A    between atoms: C_25  and  C_26
REMARK    9  A    between atoms: C_30  and  O_32
REMARK   10  A    between atoms: O_32  and  C_33
REMARK   11  A    between atoms: C_33  and  C_34
REMARK                            x       y       z     vdW  Elec       q    Type
REMARK                         _______ _______ _______ _____ _____    ______ ____
ROOT
ATOM      1  C   UNL A   1     -28.016  -0.814  28.878  0.00  0.00    +0.038 A 
ATOM      2  C   UNL A   1     -27.064  -0.119  28.608  0.00  0.00    +0.009 A 
ATOM      3  C   UNL A   1     -25.792  -0.430  29.076  0.00  0.00    +0.001 A 
ATOM      4  C   UNL A   1     -24.546   0.349  28.823  0.00  0.00    +0.007 A 
ATOM      5  C   UNL A   1     -24.659   1.420  27.888  0.00  0.00    +0.080 A 
ATOM      6  C   UNL A   1     -25.947   1.681  27.379  0.00  0.00    +0.013 A 
ATOM      7  C   UNL A   1     -27.044   0.974  27.687  0.00  0.00    +0.076 A 
ATOM      8  C   UNL A   1     -28.049  -1.598  30.163  0.00  0.00    +0.145 A 
ATOM      9  C   UNL A   1     -26.760  -2.071  30.612  0.00  0.00    +0.037 A 
ATOM     10  C   UNL A   1     -25.610  -1.402  30.171  0.00  0.00    +0.003 A 
ENDROOT
BRANCH   5  11
ATOM     11  C   UNL A   1     -23.442   2.163  27.531  0.00  0.00    +0.388 C 
ATOM     12  O   UNL A   1     -22.308   1.828  27.924  0.00  0.00    -0.241 OA
ATOM     13  O   UNL A   1     -23.611   3.167  26.706  0.00  0.00    -0.241 OA
ENDBRANCH   5  11
BRANCH   7  14
ATOM     14  C   UNL A   1     -28.311   1.288  26.973  0.00  0.00    +0.341 C 
ATOM     15  O   UNL A   1     -29.111   1.941  27.394  0.00  0.00    -0.245 OA
BRANCH  14  16
ATOM     16  O   UNL A   1     -28.356   0.706  25.753  0.00  0.00    -0.445 OA
BRANCH  16  17
ATOM     17  C   UNL A   1     -29.060   1.304  24.805  0.00  0.00    +0.213 C 
BRANCH  17  18
ATOM     18  C   UNL A   1     -29.829   0.321  24.089  0.00  0.00    +0.074 C 
BRANCH  18  19
ATOM     19  C   UNL A   1     -30.709  -0.290  25.009  0.00  0.00    -0.015 A 
ATOM     20  C   UNL A   1     -31.529  -1.398  24.475  0.00  0.00    -0.004 A 
ATOM     21  C   UNL A   1     -32.255  -2.224  25.331  0.00  0.00    +0.003 A 
ATOM     22  C   UNL A   1     -32.373  -1.933  26.681  0.00  0.00    +0.037 A 
ATOM     23  C   UNL A   1     -31.630  -0.821  27.177  0.00  0.00    +0.139 A 
ATOM     24  C   UNL A   1     -30.838  -0.113  26.363  0.00  0.00    +0.033 A 
BRANCH  23  25
ATOM     25  O   UNL A   1     -31.525  -0.547  28.493  0.00  0.00    -0.471 OA
BRANCH  25  26
ATOM     26  C   UNL A   1     -31.751   0.744  28.927  0.00  0.00    +0.232 C 
BRANCH  26  27
ATOM     27  C   UNL A   1     -32.839   0.852  29.877  0.00  0.00    +0.021 C 
ATOM     28  C   UNL A   1     -33.147   2.086  30.152  0.00  0.00    -0.001 C 
ENDBRANCH  26  27
ENDBRANCH  25  26
ENDBRANCH  23  25
ENDBRANCH  18  19
ENDBRANCH  17  18
ENDBRANCH  16  17
ENDBRANCH  14  16
ENDBRANCH   7  14
BRANCH   8  29
ATOM     29  O   UNL A   1     -29.085  -1.890  30.700  0.00  0.00    -0.454 OA
BRANCH  29  30
ATOM     30  C   UNL A   1     -29.645  -3.153  30.571  0.00  0.00    +0.145 A 
ATOM     31  C   UNL A   1     -31.002  -3.138  30.153  0.00  0.00    +0.037 A 
ATOM     32  C   UNL A   1     -31.791  -3.542  30.998  0.00  0.00    +0.003 A 
ATOM     33  C   UNL A   1     -31.451  -4.659  31.957  0.00  0.00    +0.000 A 
ATOM     34  C   UNL A   1     -30.067  -4.736  32.321  0.00  0.00    +0.003 A 
ATOM     35  C   UNL A   1     -29.225  -4.132  31.518  0.00  0.00    +0.037 A 
ENDBRANCH  29  30
ENDBRANCH   8  29
TORSDOF 11
