MODEL 725
MODEL 1
REMARK VINA RESULT:    -5.818      0.000      0.000
REMARK INTER + INTRA:         -14.062
REMARK INTER:                  -9.560
REMARK INTRA:                  -4.502
REMARK UNBOUND:                -4.502
REMARK  Name = No_725-gen_results/8p0m/2024-11-26-14-13-15/
REMARK  11 active torsions:
REMARK  status: ('A' for Active; 'I' for Inactive)
REMARK    1  A    between atoms: C_5  and  C_11
REMARK    2  A    between atoms: C_7  and  C_14
REMARK    3  A    between atoms: C_8  and  O_17
REMARK    4  A    between atoms: C_14  and  O_16
REMARK    5  A    between atoms: O_16  and  C_24
REMARK    6  A    between atoms: O_17  and  C_18
REMARK    7  A    between atoms: C_24  and  C_25
REMARK    8  A    between atoms: C_25  and  C_26
REMARK    9  A    between atoms: C_30  and  O_32
REMARK   10  A    between atoms: O_32  and  C_33
REMARK   11  A    between atoms: C_33  and  C_34
REMARK                            x       y       z     vdW  Elec       q    Type
REMARK                         _______ _______ _______ _____ _____    ______ ____
ROOT
ATOM      1  C   UNL A   1     -11.101   1.853  37.737  0.00  0.00    +0.038 A 
ATOM      2  C   UNL A   1     -12.214   2.206  37.422  0.00  0.00    +0.009 A 
ATOM      3  C   UNL A   1     -13.143   2.592  38.382  0.00  0.00    +0.001 A 
ATOM      4  C   UNL A   1     -14.543   3.036  38.123  0.00  0.00    +0.007 A 
ATOM      5  C   UNL A   1     -14.895   3.224  36.754  0.00  0.00    +0.080 A 
ATOM      6  C   UNL A   1     -13.917   2.883  35.798  0.00  0.00    +0.013 A 
ATOM      7  C   UNL A   1     -12.688   2.437  36.093  0.00  0.00    +0.076 A 
ATOM      8  C   UNL A   1     -10.856   1.203  39.073  0.00  0.00    +0.145 A 
ATOM      9  C   UNL A   1     -11.704   1.683  40.140  0.00  0.00    +0.037 A 
ATOM     10  C   UNL A   1     -12.931   2.272  39.806  0.00  0.00    +0.003 A 
ENDROOT
BRANCH   5  11
ATOM     11  C   UNL A   1     -16.233   3.749  36.445  0.00  0.00    +0.388 C 
ATOM     12  O   UNL A   1     -16.715   3.732  35.296  0.00  0.00    -0.241 OA
ATOM     13  O   UNL A   1     -16.927   4.174  37.472  0.00  0.00    -0.241 OA
ENDBRANCH   5  11
BRANCH   7  14
ATOM     14  C   UNL A   1     -11.721   2.239  34.980  0.00  0.00    +0.341 C 
ATOM     15  O   UNL A   1     -11.395   1.236  34.616  0.00  0.00    -0.245 OA
BRANCH  14  16
ATOM     16  O   UNL A   1     -11.311   3.417  34.457  0.00  0.00    -0.445 OA
BRANCH  16  17
ATOM     17  C   UNL A   1     -10.133   3.889  34.835  0.00  0.00    +0.213 C 
BRANCH  17  18
ATOM     18  C   UNL A   1     -10.244   5.299  35.094  0.00  0.00    +0.074 C 
BRANCH  18  19
ATOM     19  C   UNL A   1     -10.495   5.465  36.474  0.00  0.00    -0.015 A 
ATOM     20  C   UNL A   1     -11.799   6.068  36.822  0.00  0.00    -0.004 A 
ATOM     21  C   UNL A   1     -12.255   6.067  38.139  0.00  0.00    +0.003 A 
ATOM     22  C   UNL A   1     -11.437   5.663  39.182  0.00  0.00    +0.037 A 
ATOM     23  C   UNL A   1     -10.153   5.143  38.842  0.00  0.00    +0.139 A 
ATOM     24  C   UNL A   1      -9.779   5.035  37.562  0.00  0.00    +0.033 A 
BRANCH  23  25
ATOM     25  O   UNL A   1      -9.343   4.559  39.749  0.00  0.00    -0.471 OA
BRANCH  25  26
ATOM     26  C   UNL A   1      -7.977   4.707  39.617  0.00  0.00    +0.232 C 
BRANCH  26  27
ATOM     27  C   UNL A   1      -7.242   3.473  39.802  0.00  0.00    +0.021 C 
ATOM     28  C   UNL A   1      -7.366   2.657  38.797  0.00  0.00    -0.001 C 
ENDBRANCH  26  27
ENDBRANCH  25  26
ENDBRANCH  23  25
ENDBRANCH  18  19
ENDBRANCH  17  18
ENDBRANCH  16  17
ENDBRANCH  14  16
ENDBRANCH   7  14
BRANCH   8  29
ATOM     29  O   UNL A   1      -9.952   0.429  39.244  0.00  0.00    -0.454 OA
BRANCH  29  30
ATOM     30  C   UNL A   1     -10.139  -0.944  39.164  0.00  0.00    +0.145 A 
ATOM     31  C   UNL A   1     -10.430  -1.407  37.853  0.00  0.00    +0.037 A 
ATOM     32  C   UNL A   1     -11.560  -1.859  37.721  0.00  0.00    +0.003 A 
ATOM     33  C   UNL A   1     -12.259  -2.627  38.819  0.00  0.00    +0.000 A 
ATOM     34  C   UNL A   1     -11.909  -2.225  40.149  0.00  0.00    +0.003 A 
ATOM     35  C   UNL A   1     -10.786  -1.561  40.274  0.00  0.00    +0.037 A 
ENDBRANCH  29  30
ENDBRANCH   8  29
TORSDOF 11
ENDMDL
ENDMDL
