REMARK  Name = No_726-gen_results/8p0m/2024-11-26-14-13-15/
REMARK  8 active torsions:
REMARK  status: ('A' for Active; 'I' for Inactive)
REMARK    1  A    between atoms: C_3  and  C_7
REMARK    2  A    between atoms: C_7  and  C_8
REMARK    3  A    between atoms: C_7  and  C_18
REMARK    4  A    between atoms: C_17  and  C_30
REMARK    5  A    between atoms: N_20  and  C_21
REMARK    6  A    between atoms: C_21  and  C_22
REMARK    7  A    between atoms: C_30  and  C_31
REMARK    8  A    between atoms: C_32  and  C_33
REMARK                            x       y       z     vdW  Elec       q    Type
REMARK                         _______ _______ _______ _____ _____    ______ ____
ROOT
ATOM      1  C   UNL A   1     -27.459   0.493  26.770  0.00  0.00    +0.123 C 
ENDROOT
BRANCH   1   2
ATOM      2  C   UNL A   1     -26.026   0.384  26.762  0.00  0.00    -0.010 A 
ATOM      3  C   UNL A   1     -25.290   0.932  25.783  0.00  0.00    -0.004 A 
ATOM      4  C   UNL A   1     -23.897   0.907  25.841  0.00  0.00    -0.000 A 
ATOM      5  C   UNL A   1     -23.250   0.716  27.066  0.00  0.00    -0.000 A 
ATOM      6  C   UNL A   1     -21.894   0.973  27.367  0.00  0.00    -0.000 A 
ATOM      7  C   UNL A   1     -24.071   0.418  28.261  0.00  0.00    -0.004 A 
ATOM      8  C   UNL A   1     -25.435   0.243  28.105  0.00  0.00    -0.004 A 
ATOM      9  C   UNL A   1     -21.240   1.056  28.387  0.00  0.00    -0.000 A 
ATOM     10  C   UNL A   1     -21.961   0.510  29.587  0.00  0.00    -0.004 A 
ATOM     11  C   UNL A   1     -23.416   0.269  29.508  0.00  0.00    -0.018 A 
BRANCH  11  12
ATOM     12  C   UNL A   1     -24.076  -0.190  30.722  0.00  0.00    +0.052 C 
BRANCH  12  13
ATOM     13  C   UNL A   1     -24.748   0.808  31.420  0.00  0.00    -0.021 C 
ATOM     14  C   UNL A   1     -25.615   0.451  32.541  0.00  0.00    -0.005 C 
BRANCH  14  15
ATOM     15  C   UNL A   1     -26.416   1.404  33.160  0.00  0.00    -0.005 C 
ATOM     16  C   UNL A   1     -26.431   2.735  32.690  0.00  0.00    -0.026 C 
ATOM     17  C   UNL A   1     -25.566   3.104  31.637  0.00  0.00    +0.031 C 
ENDBRANCH  14  15
ENDBRANCH  12  13
ENDBRANCH  11  12
ENDBRANCH   1   2
BRANCH   1  20
ATOM     18  C   UNL A   1     -28.016  -0.814  28.878  0.00  0.00    +0.026 A 
ATOM     19  C   UNL A   1     -28.469  -0.785  29.829  0.00  0.00    +0.143 A 
ATOM     20  C   UNL A   1     -28.182   0.428  28.113  0.00  0.00    -0.004 A 
ATOM     21  C   UNL A   1     -28.984   1.415  28.515  0.00  0.00    +0.039 A 
ATOM     22  C   UNL A   1     -29.380   0.138  30.461  0.00  0.00    +0.072 A 
ATOM     23  C   UNL A   1     -29.541   1.274  29.724  0.00  0.00    +0.198 A 
ATOM     24  O   UNL A   1     -30.442   2.265  30.226  0.00  0.00    -0.286 OA
ATOM     25  F   UNL A   1     -28.295  -1.939  30.698  0.00  0.00    -0.204 F 
ENDBRANCH   1  20
BRANCH   1  26
ATOM     26  C   UNL A   1     -28.232   0.445  25.629  0.00  0.00    +0.249 C 
ATOM     27  O   UNL A   1     -28.438  -0.367  24.988  0.00  0.00    -0.273 OA
ATOM     28  N   UNL A   1     -28.706   1.761  25.303  0.00  0.00    -0.200 NA
BRANCH  28  29
ATOM     29  C   UNL A   1     -29.482   1.961  24.058  0.00  0.00    +0.141 C 
BRANCH  29  30
ATOM     30  C   UNL A   1     -30.888   2.086  24.288  0.00  0.00    -0.001 A 
ATOM     31  C   UNL A   1     -31.312   3.014  24.905  0.00  0.00    -0.003 A 
ATOM     32  C   UNL A   1     -32.782   3.269  25.116  0.00  0.00    -0.000 A 
ATOM     33  C   UNL A   1     -33.604   2.441  24.396  0.00  0.00    -0.000 A 
ATOM     34  C   UNL A   1     -33.105   1.502  23.536  0.00  0.00    -0.000 A 
ATOM     35  C   UNL A   1     -31.739   1.345  23.414  0.00  0.00    -0.003 A 
ENDBRANCH  29  30
ENDBRANCH  28  29
ENDBRANCH   1  26
TORSDOF 8
