MODEL 726
MODEL 1
REMARK VINA RESULT:    -8.783      0.000      0.000
REMARK INTER + INTRA:         -14.793
REMARK INTER:                 -12.891
REMARK INTRA:                  -1.902
REMARK UNBOUND:                -1.902
REMARK  Name = No_726-gen_results/8p0m/2024-11-26-14-13-15/
REMARK  8 active torsions:
REMARK  status: ('A' for Active; 'I' for Inactive)
REMARK    1  A    between atoms: C_3  and  C_7
REMARK    2  A    between atoms: C_7  and  C_8
REMARK    3  A    between atoms: C_7  and  C_18
REMARK    4  A    between atoms: C_17  and  C_30
REMARK    5  A    between atoms: N_20  and  C_21
REMARK    6  A    between atoms: C_21  and  C_22
REMARK    7  A    between atoms: C_30  and  C_31
REMARK    8  A    between atoms: C_32  and  C_33
REMARK                            x       y       z     vdW  Elec       q    Type
REMARK                         _______ _______ _______ _____ _____    ______ ____
ROOT
ATOM      1  C   UNL A   1     -10.724   1.030  37.341  0.00  0.00    +0.123 C 
ENDROOT
BRANCH   1   2
ATOM      2  C   UNL A   1     -11.744   1.878  36.788  0.00  0.00    -0.010 A 
ATOM      3  C   UNL A   1     -12.037   1.854  35.478  0.00  0.00    -0.004 A 
ATOM      4  C   UNL A   1     -13.096   2.606  34.972  0.00  0.00    -0.000 A 
ATOM      5  C   UNL A   1     -14.114   3.045  35.824  0.00  0.00    -0.000 A 
ATOM      6  C   UNL A   1     -15.390   3.526  35.456  0.00  0.00    -0.000 A 
ATOM      7  C   UNL A   1     -13.975   2.802  37.278  0.00  0.00    -0.004 A 
ATOM      8  C   UNL A   1     -12.801   2.239  37.749  0.00  0.00    -0.004 A 
ATOM      9  C   UNL A   1     -16.429   3.747  36.045  0.00  0.00    -0.000 A 
ATOM     10  C   UNL A   1     -16.259   3.766  37.538  0.00  0.00    -0.004 A 
ATOM     11  C   UNL A   1     -15.028   3.208  38.133  0.00  0.00    -0.018 A 
BRANCH  11  12
ATOM     12  C   UNL A   1     -14.949   3.185  39.586  0.00  0.00    +0.052 C 
BRANCH  12  13
ATOM     13  C   UNL A   1     -16.123   2.786  40.217  0.00  0.00    -0.021 C 
ATOM     14  C   UNL A   1     -16.061   2.157  41.535  0.00  0.00    -0.005 C 
BRANCH  14  15
ATOM     15  C   UNL A   1     -17.196   1.612  42.124  0.00  0.00    -0.005 C 
ATOM     16  C   UNL A   1     -17.210   0.258  42.522  0.00  0.00    -0.026 C 
ATOM     17  C   UNL A   1     -16.089  -0.554  42.245  0.00  0.00    +0.031 C 
ENDBRANCH  14  15
ENDBRANCH  12  13
ENDBRANCH  11  12
ENDBRANCH   1   2
BRANCH   1  20
ATOM     18  C   UNL A   1     -11.330  -1.438  37.395  0.00  0.00    +0.026 A 
ATOM     19  C   UNL A   1     -11.557  -2.269  38.003  0.00  0.00    +0.143 A 
ATOM     20  C   UNL A   1     -11.159  -0.191  38.149  0.00  0.00    -0.004 A 
ATOM     21  C   UNL A   1     -11.447  -0.094  39.448  0.00  0.00    +0.039 A 
ATOM     22  C   UNL A   1     -11.925  -2.405  39.391  0.00  0.00    +0.072 A 
ATOM     23  C   UNL A   1     -11.784  -1.230  40.069  0.00  0.00    +0.198 A 
ATOM     24  O   UNL A   1     -12.141  -1.220  41.454  0.00  0.00    -0.286 OA
ATOM     25  F   UNL A   1     -11.669  -3.569  37.359  0.00  0.00    -0.204 F 
ENDBRANCH   1  20
BRANCH   1  26
ATOM     26  C   UNL A   1      -9.386   1.362  37.363  0.00  0.00    +0.249 C 
ATOM     27  O   UNL A   1      -8.839   1.907  38.081  0.00  0.00    -0.273 OA
ATOM     28  N   UNL A   1      -8.756   0.938  36.144  0.00  0.00    -0.200 NA
BRANCH  28  29
ATOM     29  C   UNL A   1      -7.334   1.277  35.910  0.00  0.00    +0.141 C 
BRANCH  29  30
ATOM     30  C   UNL A   1      -6.596   0.210  35.308  0.00  0.00    -0.001 A 
ATOM     31  C   UNL A   1      -5.440   0.065  35.563  0.00  0.00    -0.003 A 
ATOM     32  C   UNL A   1      -4.612  -1.082  35.044  0.00  0.00    -0.000 A 
ATOM     33  C   UNL A   1      -5.336  -2.045  34.389  0.00  0.00    -0.000 A 
ATOM     34  C   UNL A   1      -6.696  -1.966  34.270  0.00  0.00    -0.000 A 
ATOM     35  C   UNL A   1      -7.364  -0.871  34.781  0.00  0.00    -0.003 A 
ENDBRANCH  29  30
ENDBRANCH  28  29
ENDBRANCH   1  26
TORSDOF 8
ENDMDL
ENDMDL
