REMARK  Name = No_727-gen_results/8p0m/2024-11-26-14-13-15/
REMARK  0 active torsions:
REMARK  status: ('A' for Active; 'I' for Inactive)
REMARK                            x       y       z     vdW  Elec       q    Type
REMARK                         _______ _______ _______ _____ _____    ______ ____
ROOT
ATOM      1  C   UNL A   1     -28.016  -0.814  28.878  0.00  0.00    +0.005 A 
ATOM      2  C   UNL A   1     -28.469  -0.785  29.829  0.00  0.00    +0.050 A 
ATOM      3  C   UNL A   1     -26.504  -0.778  28.877  0.00  0.00    +0.011 A 
ATOM      4  C   UNL A   1     -25.810  -0.853  30.103  0.00  0.00    +0.057 A 
ATOM      5  C   UNL A   1     -27.991  -0.892  31.226  0.00  0.00    -0.015 A 
ATOM      6  C   UNL A   1     -26.604  -0.868  31.265  0.00  0.00    +0.007 A 
ATOM      7 CL   UNL A   1     -24.165  -0.791  30.172  0.00  0.00    -0.082 Cl
ATOM      8  C   UNL A   1     -30.099  -0.836  29.851  0.00  0.00    +0.249 C 
ATOM      9  O   UNL A   1     -30.526  -0.437  28.916  0.00  0.00    -0.270 OA
ATOM     10  N   UNL A   1     -30.790  -1.343  30.904  0.00  0.00    -0.277 N 
ATOM     11  C   UNL A   1     -32.226  -1.372  30.840  0.00  0.00    +0.094 C 
ATOM     12  C   UNL A   1     -32.760  -2.149  31.615  0.00  0.00    +0.022 C 
ATOM     13  C   UNL A   1     -32.089  -2.809  32.730  0.00  0.00    +0.004 C 
ATOM     14  C   UNL A   1     -30.685  -2.784  32.754  0.00  0.00    +0.020 C 
ATOM     15  C   UNL A   1     -30.050  -2.009  32.048  0.00  0.00    +0.080 C 
ATOM     16  C   UNL A   1     -28.558  -1.987  31.920  0.00  0.00    +0.046 C 
ENDROOT
TORSDOF 0
