REMARK  Name = No_728-gen_results/8p0m/2024-11-26-14-13-15/
REMARK  4 active torsions:
REMARK  status: ('A' for Active; 'I' for Inactive)
REMARK    1  A    between atoms: C_1  and  C_6
REMARK    2  A    between atoms: C_3  and  C_14
REMARK    3  A    between atoms: C_5  and  C_11
REMARK    4  A    between atoms: C_14  and  C_15
REMARK                            x       y       z     vdW  Elec       q    Type
REMARK                         _______ _______ _______ _____ _____    ______ ____
ROOT
ATOM      1  C   UNL A   1     -28.016  -0.814  28.878  0.00  0.00    +0.071 A 
ATOM      2  C   UNL A   1     -27.064  -0.119  28.608  0.00  0.00    -0.000 A 
ATOM      3  C   UNL A   1     -26.972   0.714  27.506  0.00  0.00    -0.018 A 
ATOM      4  C   UNL A   1     -28.105   0.774  26.642  0.00  0.00    +0.003 A 
ATOM      5  C   UNL A   1     -29.201   0.104  27.053  0.00  0.00    +0.079 A 
ATOM      6  C   UNL A   1     -29.164  -0.639  28.148  0.00  0.00    +0.010 A 
ENDROOT
BRANCH   1   7
ATOM      7  C   UNL A   1     -28.022  -1.590  30.088  0.00  0.00    +0.419 C 
ATOM      8  F   UNL A   1     -27.113  -2.392  30.234  0.00  0.00    -0.166 F 
ATOM      9  F   UNL A   1     -28.014  -0.888  31.271  0.00  0.00    -0.166 F 
ATOM     10  F   UNL A   1     -29.232  -2.308  30.185  0.00  0.00    -0.166 F 
ENDBRANCH   1   7
BRANCH   5  11
ATOM     11  C   UNL A   1     -30.377   0.207  26.159  0.00  0.00    +0.388 C 
ATOM     12  O   UNL A   1     -30.390   0.214  24.976  0.00  0.00    -0.241 OA
ATOM     13  O   UNL A   1     -31.568   0.120  26.761  0.00  0.00    -0.241 OA
ENDBRANCH   5  11
BRANCH   3  14
ATOM     14  C   UNL A   1     -25.692   1.412  27.156  0.00  0.00    +0.045 C 
ATOM     15  C   UNL A   1     -25.973   2.396  25.986  0.00  0.00    +0.009 C 
BRANCH  14  16
ATOM     16  C   UNL A   1     -24.665   0.811  26.991  0.00  0.00    -0.018 A 
ATOM     17  C   UNL A   1     -23.389   1.565  26.801  0.00  0.00    -0.003 A 
ATOM     18  C   UNL A   1     -22.114   1.193  27.224  0.00  0.00    +0.011 A 
ATOM     19  C   UNL A   1     -22.062   0.095  28.153  0.00  0.00    +0.058 A 
ATOM     20  C   UNL A   1     -23.273  -0.630  28.459  0.00  0.00    +0.011 A 
ATOM     21  C   UNL A   1     -24.477  -0.247  27.906  0.00  0.00    -0.003 A 
ATOM     22 CL   UNL A   1     -20.548  -0.325  28.782  0.00  0.00    -0.082 Cl
ENDBRANCH  14  16
ENDBRANCH   3  14
TORSDOF 4
