MODEL 728
MODEL 1
REMARK VINA RESULT:    -7.012      0.000      0.000
REMARK INTER + INTRA:          -9.820
REMARK INTER:                  -8.652
REMARK INTRA:                  -1.168
REMARK UNBOUND:                -1.168
REMARK  Name = No_728-gen_results/8p0m/2024-11-26-14-13-15/
REMARK  4 active torsions:
REMARK  status: ('A' for Active; 'I' for Inactive)
REMARK    1  A    between atoms: C_1  and  C_6
REMARK    2  A    between atoms: C_3  and  C_14
REMARK    3  A    between atoms: C_5  and  C_11
REMARK    4  A    between atoms: C_14  and  C_15
REMARK                            x       y       z     vdW  Elec       q    Type
REMARK                         _______ _______ _______ _____ _____    ______ ____
ROOT
ATOM      1  C   UNL A   1     -24.755   0.908  26.092  0.00  0.00    +0.071 A 
ATOM      2  C   UNL A   1     -24.209   0.348  27.014  0.00  0.00    -0.000 A 
ATOM      3  C   UNL A   1     -23.756   0.966  28.167  0.00  0.00    -0.018 A 
ATOM      4  C   UNL A   1     -23.981   2.369  28.282  0.00  0.00    +0.003 A 
ATOM      5  C   UNL A   1     -24.723   2.933  27.307  0.00  0.00    +0.079 A 
ATOM      6  C   UNL A   1     -25.119   2.219  26.266  0.00  0.00    +0.010 A 
ENDROOT
BRANCH   1   7
ATOM      7  C   UNL A   1     -25.241   0.149  24.973  0.00  0.00    +0.419 C 
ATOM      8  F   UNL A   1     -24.468  -0.021  24.043  0.00  0.00    -0.166 F 
ATOM      9  F   UNL A   1     -25.693  -1.123  25.240  0.00  0.00    -0.166 F 
ATOM     10  F   UNL A   1     -26.397   0.764  24.449  0.00  0.00    -0.166 F 
ENDBRANCH   1   7
BRANCH   5  11
ATOM     11  C   UNL A   1     -24.974   4.384  27.463  0.00  0.00    +0.388 C 
ATOM     12  O   UNL A   1     -25.038   5.204  26.613  0.00  0.00    -0.241 OA
ATOM     13  O   UNL A   1     -25.327   4.779  28.691  0.00  0.00    -0.241 OA
ENDBRANCH   5  11
BRANCH   3  14
ATOM     14  C   UNL A   1     -22.941   0.225  29.185  0.00  0.00    +0.045 C 
ATOM     15  C   UNL A   1     -21.525  -0.023  28.594  0.00  0.00    +0.009 C 
BRANCH  14  16
ATOM     16  C   UNL A   1     -23.361  -0.749  29.749  0.00  0.00    -0.018 A 
ATOM     17  C   UNL A   1     -24.752  -0.744  30.296  0.00  0.00    -0.003 A 
ATOM     18  C   UNL A   1     -25.634  -1.820  30.375  0.00  0.00    +0.011 A 
ATOM     19  C   UNL A   1     -25.257  -2.991  29.628  0.00  0.00    +0.058 A 
ATOM     20  C   UNL A   1     -23.960  -3.037  28.993  0.00  0.00    +0.011 A 
ATOM     21  C   UNL A   1     -23.110  -1.954  29.059  0.00  0.00    -0.003 A 
ATOM     22 CL   UNL A   1     -26.346  -4.286  29.602  0.00  0.00    -0.082 Cl
ENDBRANCH  14  16
ENDBRANCH   3  14
TORSDOF 4
ENDMDL
ENDMDL
