REMARK  Name = No_729-gen_results/8p0m/2024-11-26-14-13-15/
REMARK  3 active torsions:
REMARK  status: ('A' for Active; 'I' for Inactive)
REMARK    1  A    between atoms: C_2  and  N_7
REMARK    2  A    between atoms: C_4  and  O_14
REMARK    3  A    between atoms: N_7  and  C_8
REMARK                            x       y       z     vdW  Elec       q    Type
REMARK                         _______ _______ _______ _____ _____    ______ ____
ROOT
ATOM      1  C   UNL A   1     -28.016  -0.814  28.878  0.00  0.00    +0.073 A 
ATOM      2  C   UNL A   1     -27.064  -0.119  28.608  0.00  0.00    +0.155 A 
ATOM      3  N   UNL A   1     -26.951   1.129  28.957  0.00  0.00    -0.227 NA
ATOM      4  C   UNL A   1     -29.109  -0.210  29.632  0.00  0.00    +0.143 A 
ATOM      5  C   UNL A   1     -29.088   1.063  29.942  0.00  0.00    +0.058 A 
ATOM      6  C   UNL A   1     -27.955   1.768  29.591  0.00  0.00    +0.103 A 
ENDROOT
BRANCH   4   7
ATOM      7  O   UNL A   1     -30.166  -1.035  29.941  0.00  0.00    -0.471 OA
ATOM      8  C   UNL A   1     -30.012  -2.108  30.705  0.00  0.00    +0.253 C 
ENDBRANCH   4   7
BRANCH   2   9
ATOM      9  N   UNL A   1     -25.910  -0.625  27.977  0.00  0.00    -0.194 NA
BRANCH   9  10
ATOM     10  C   UNL A   1     -24.569  -0.387  28.454  0.00  0.00    +0.072 A 
ATOM     11  C   UNL A   1     -24.352  -0.307  29.688  0.00  0.00    +0.017 A 
ATOM     12  C   UNL A   1     -23.010  -0.089  30.176  0.00  0.00    +0.001 A 
ATOM     13  C   UNL A   1     -21.980   0.011  29.213  0.00  0.00    +0.000 A 
ATOM     14  C   UNL A   1     -22.254   0.118  27.895  0.00  0.00    +0.001 A 
ATOM     15  C   UNL A   1     -23.593  -0.089  27.481  0.00  0.00    +0.017 A 
ENDBRANCH   9  10
ENDBRANCH   2   9
TORSDOF 3
