MODEL 729
MODEL 1
REMARK VINA RESULT:    -6.024      0.000      0.000
REMARK INTER + INTRA:          -7.363
REMARK INTER:                  -7.081
REMARK INTRA:                  -0.282
REMARK UNBOUND:                -0.282
REMARK  Name = No_729-gen_results/8p0m/2024-11-26-14-13-15/
REMARK  3 active torsions:
REMARK  status: ('A' for Active; 'I' for Inactive)
REMARK    1  A    between atoms: C_2  and  N_7
REMARK    2  A    between atoms: C_4  and  O_14
REMARK    3  A    between atoms: N_7  and  C_8
REMARK                            x       y       z     vdW  Elec       q    Type
REMARK                         _______ _______ _______ _____ _____    ______ ____
ROOT
ATOM      1  C   UNL A   1     -24.420  -0.196  27.679  0.00  0.00    +0.073 A 
ATOM      2  C   UNL A   1     -23.626  -0.321  28.583  0.00  0.00    +0.155 A 
ATOM      3  N   UNL A   1     -22.562   0.414  28.725  0.00  0.00    -0.227 NA
ATOM      4  C   UNL A   1     -24.160   0.836  26.681  0.00  0.00    +0.143 A 
ATOM      5  C   UNL A   1     -23.064   1.554  26.727  0.00  0.00    +0.058 A 
ATOM      6  C   UNL A   1     -22.225   1.336  27.800  0.00  0.00    +0.103 A 
ENDROOT
BRANCH   4   7
ATOM      7  O   UNL A   1     -25.094   0.966  25.680  0.00  0.00    -0.471 OA
ATOM      8  C   UNL A   1     -25.322  -0.008  24.809  0.00  0.00    +0.253 C 
ENDBRANCH   4   7
BRANCH   2   9
ATOM      9  N   UNL A   1     -23.832  -1.212  29.655  0.00  0.00    -0.194 NA
BRANCH   9  10
ATOM     10  C   UNL A   1     -24.441  -2.512  29.508  0.00  0.00    +0.072 A 
ATOM     11  C   UNL A   1     -23.813  -3.433  28.931  0.00  0.00    +0.017 A 
ATOM     12  C   UNL A   1     -24.407  -4.743  28.797  0.00  0.00    +0.001 A 
ATOM     13  C   UNL A   1     -25.694  -4.929  29.350  0.00  0.00    +0.000 A 
ATOM     14  C   UNL A   1     -26.431  -3.887  29.790  0.00  0.00    +0.001 A 
ATOM     15  C   UNL A   1     -25.796  -2.623  29.882  0.00  0.00    +0.017 A 
ENDBRANCH   9  10
ENDBRANCH   2   9
TORSDOF 3
ENDMDL
ENDMDL
