MODEL 72
MODEL 1
REMARK VINA RESULT:    -7.513      0.000      0.000
REMARK INTER + INTRA:          -8.155
REMARK INTER:                  -7.953
REMARK INTRA:                  -0.203
REMARK UNBOUND:                -0.203
REMARK  Name = No_72-gen_results/8p0m/2024-11-26-14-13-15/
REMARK  1 active torsions:
REMARK  status: ('A' for Active; 'I' for Inactive)
REMARK    1  A    between atoms: C_2  and  C_7
REMARK                            x       y       z     vdW  Elec       q    Type
REMARK                         _______ _______ _______ _____ _____    ______ ____
ROOT
ATOM      1  C   UNL A   1     -23.565  -1.479  28.889  0.00  0.00    +0.000 A 
ATOM      2  C   UNL A   1     -22.688  -1.205  29.336  0.00  0.00    +0.000 A 
ATOM      3  C   UNL A   1     -21.785  -0.021  29.085  0.00  0.00    +0.000 A 
ATOM      4  C   UNL A   1     -22.204   0.902  28.147  0.00  0.00    +0.002 A 
ATOM      5  C   UNL A   1     -23.430   0.702  27.508  0.00  0.00    +0.019 A 
ATOM      6  C   UNL A   1     -24.148  -0.423  27.790  0.00  0.00    +0.003 A 
ATOM      7  C   UNL A   1     -23.868   1.638  26.481  0.00  0.00    +0.099 A 
ATOM      8  N   UNL A   1     -25.208   1.511  26.121  0.00  0.00    -0.242 NA
ATOM      9  C   UNL A   1     -25.841   0.302  26.379  0.00  0.00    +0.099 A 
ATOM     10  C   UNL A   1     -25.417  -0.594  27.236  0.00  0.00    +0.021 A 
ENDROOT
BRANCH   1  12
ATOM     11  C   UNL A   1     -25.603  -2.450  29.700  0.00  0.00    +0.000 A 
ATOM     12  C   UNL A   1     -24.523  -2.582  29.170  0.00  0.00    +0.000 A 
ATOM     13  C   UNL A   1     -24.079  -3.829  28.747  0.00  0.00    +0.000 A 
ATOM     14  C   UNL A   1     -24.871  -5.012  28.967  0.00  0.00    +0.000 A 
ATOM     15  C   UNL A   1     -26.094  -4.772  29.606  0.00  0.00    +0.000 A 
ATOM     16  C   UNL A   1     -26.460  -3.575  30.002  0.00  0.00    +0.000 A 
ENDBRANCH   1  12
TORSDOF 1
ENDMDL
ENDMDL
