REMARK  Name = No_73-gen_results/8p0m/2024-11-26-14-13-15/
REMARK  3 active torsions:
REMARK  status: ('A' for Active; 'I' for Inactive)
REMARK    1  A    between atoms: C_2  and  C_11
REMARK    2  A    between atoms: C_6  and  C_8
REMARK    3  A    between atoms: C_12  and  C_17
REMARK                            x       y       z     vdW  Elec       q    Type
REMARK                         _______ _______ _______ _____ _____    ______ ____
ROOT
ATOM      1  C   UNL A   1     -28.016  -0.814  28.878  0.00  0.00    +0.196 A 
ATOM      2  C   UNL A   1     -27.064  -0.119  28.608  0.00  0.00    +0.039 A 
ATOM      3  C   UNL A   1     -27.001   0.691  27.491  0.00  0.00    +0.003 A 
ATOM      4  C   UNL A   1     -28.142   0.828  26.799  0.00  0.00    +0.007 A 
ATOM      5  C   UNL A   1     -29.290  -0.487  28.366  0.00  0.00    +0.049 A 
ATOM      6  C   UNL A   1     -29.285   0.261  27.262  0.00  0.00    +0.083 A 
ATOM      7  O   UNL A   1     -27.974  -1.589  30.064  0.00  0.00    -0.287 OA
ENDROOT
BRANCH   2   8
ATOM      8  C   UNL A   1     -25.648  -0.369  29.347  0.00  0.00    +0.005 A 
ATOM      9  C   UNL A   1     -24.823   0.347  29.735  0.00  0.00    +0.019 A 
ATOM     10  C   UNL A   1     -23.522  -0.009  30.144  0.00  0.00    +0.002 A 
ATOM     11  C   UNL A   1     -23.258  -1.367  30.278  0.00  0.00    +0.000 A 
ATOM     12  C   UNL A   1     -25.236  -1.852  29.339  0.00  0.00    +0.000 A 
ATOM     13  C   UNL A   1     -24.096  -2.252  29.784  0.00  0.00    +0.000 A 
BRANCH   9  14
ATOM     14  C   UNL A   1     -25.052   1.888  29.750  0.00  0.00    +0.093 C 
ATOM     15  N   UNL A   1     -25.299   2.680  30.811  0.00  0.00    -0.267 NA
ATOM     16  C   UNL A   1     -25.614   3.943  30.732  0.00  0.00    +0.152 C 
ENDBRANCH   9  14
ENDBRANCH   2   8
BRANCH   6  17
ATOM     17  C   UNL A   1     -30.425   0.480  26.306  0.00  0.00    +0.388 C 
ATOM     18  O   UNL A   1     -30.423   0.635  25.171  0.00  0.00    -0.241 OA
ATOM     19  O   UNL A   1     -31.617   0.586  26.903  0.00  0.00    -0.241 OA
ENDBRANCH   6  17
TORSDOF 3
