REMARK  Name = No_730-gen_results/8p0m/2024-11-26-14-13-15/
REMARK  1 active torsions:
REMARK  status: ('A' for Active; 'I' for Inactive)
REMARK    1  A    between atoms: C_2  and  C_5
REMARK                            x       y       z     vdW  Elec       q    Type
REMARK                         _______ _______ _______ _____ _____    ______ ____
ROOT
ATOM      1  C   UNL A   1     -28.016  -0.814  28.878  0.00  0.00    +0.008 A 
ATOM      2  C   UNL A   1     -28.469  -0.785  29.829  0.00  0.00    +0.042 A 
ATOM      3  C   UNL A   1     -27.087   0.290  28.638  0.00  0.00    +0.055 A 
ATOM      4  C   UNL A   1     -26.252   0.411  27.422  0.00  0.00    +0.198 A 
ATOM      5  C   UNL A   1     -25.146   1.240  27.356  0.00  0.00    +0.055 A 
ATOM      6  C   UNL A   1     -24.256   1.304  26.289  0.00  0.00    +0.005 A 
ATOM      7  C   UNL A   1     -23.137   2.137  26.337  0.00  0.00    +0.000 A 
ATOM      8  C   UNL A   1     -22.483   2.197  27.486  0.00  0.00    +0.002 A 
ATOM      9  C   UNL A   1     -23.176   1.838  28.704  0.00  0.00    +0.017 A 
ATOM     10  C   UNL A   1     -24.380   1.230  28.593  0.00  0.00    +0.063 A 
ATOM     11  C   UNL A   1     -28.187   0.200  30.966  0.00  0.00    +0.005 A 
ATOM     12  C   UNL A   1     -27.364   1.178  30.764  0.00  0.00    +0.017 A 
ATOM     13  C   UNL A   1     -26.719   1.260  29.565  0.00  0.00    +0.063 A 
ATOM     14  N   UNL A   1     -25.205   1.249  29.805  0.00  0.00    -0.325 N 
ATOM     15  C   UNL A   1     -24.581   1.090  31.035  0.00  0.00    +0.130 C 
ATOM     16  O   UNL A   1     -26.780  -0.023  26.288  0.00  0.00    -0.286 OA
ENDROOT
BRANCH   2  17
ATOM     17  C   UNL A   1     -29.431  -1.931  30.271  0.00  0.00    +0.234 C 
ATOM     18  O   UNL A   1     -29.244  -2.671  31.095  0.00  0.00    -0.283 OA
ENDBRANCH   2  17
TORSDOF 1
