MODEL 730
MODEL 1
REMARK VINA RESULT:    -6.519      0.000      0.000
REMARK INTER + INTRA:          -6.943
REMARK INTER:                  -6.900
REMARK INTRA:                  -0.043
REMARK UNBOUND:                -0.043
REMARK  Name = No_730-gen_results/8p0m/2024-11-26-14-13-15/
REMARK  1 active torsions:
REMARK  status: ('A' for Active; 'I' for Inactive)
REMARK    1  A    between atoms: C_2  and  C_5
REMARK                            x       y       z     vdW  Elec       q    Type
REMARK                         _______ _______ _______ _____ _____    ______ ____
ROOT
ATOM      1  C   UNL A   1     -22.833  -1.422  28.930  0.00  0.00    +0.008 A 
ATOM      2  C   UNL A   1     -22.392  -0.556  29.338  0.00  0.00    +0.042 A 
ATOM      3  C   UNL A   1     -23.851  -2.023  29.793  0.00  0.00    +0.055 A 
ATOM      4  C   UNL A   1     -24.683  -3.180  29.397  0.00  0.00    +0.198 A 
ATOM      5  C   UNL A   1     -25.855  -3.515  30.052  0.00  0.00    +0.055 A 
ATOM      6  C   UNL A   1     -26.739  -4.512  29.653  0.00  0.00    +0.005 A 
ATOM      7  C   UNL A   1     -27.925  -4.742  30.352  0.00  0.00    +0.000 A 
ATOM      8  C   UNL A   1     -28.590  -3.678  30.770  0.00  0.00    +0.002 A 
ATOM      9  C   UNL A   1     -27.879  -2.429  30.934  0.00  0.00    +0.017 A 
ATOM     10  C   UNL A   1     -26.627  -2.341  30.428  0.00  0.00    +0.063 A 
ATOM     11  C   UNL A   1     -22.765   0.154  30.641  0.00  0.00    +0.005 A 
ATOM     12  C   UNL A   1     -23.666  -0.368  31.409  0.00  0.00    +0.017 A 
ATOM     13  C   UNL A   1     -24.307  -1.500  30.999  0.00  0.00    +0.063 A 
ATOM     14  N   UNL A   1     -25.816  -1.237  30.952  0.00  0.00    -0.325 N 
ATOM     15  C   UNL A   1     -26.434  -0.019  31.198  0.00  0.00    +0.130 C 
ATOM     16  O   UNL A   1     -24.112  -4.093  28.626  0.00  0.00    -0.286 OA
ENDROOT
BRANCH   2  17
ATOM     17  C   UNL A   1     -21.340   0.247  28.513  0.00  0.00    +0.234 C 
ATOM     18  O   UNL A   1     -20.312  -0.106  28.228  0.00  0.00    -0.283 OA
ENDBRANCH   2  17
TORSDOF 1
ENDMDL
ENDMDL
