REMARK  Name = No_731-gen_results/8p0m/2024-11-26-14-13-15/
REMARK  5 active torsions:
REMARK  status: ('A' for Active; 'I' for Inactive)
REMARK    1  A    between atoms: C_3  and  C_4
REMARK    2  A    between atoms: C_4  and  C_8
REMARK    3  A    between atoms: C_4  and  C_14
REMARK    4  A    between atoms: C_14  and  C_15
REMARK    5  A    between atoms: C_15  and  C_16
REMARK                            x       y       z     vdW  Elec       q    Type
REMARK                         _______ _______ _______ _____ _____    ______ ____
ROOT
ATOM      1  C   UNL A   1     -26.252   0.411  27.422  0.00  0.00    +0.052 C 
ENDROOT
BRANCH   1   4
ATOM      2  C   UNL A   1     -28.016  -0.814  28.878  0.00  0.00    -0.004 A 
ATOM      3  C   UNL A   1     -28.469  -0.785  29.829  0.00  0.00    -0.000 A 
ATOM      4  C   UNL A   1     -27.087   0.290  28.638  0.00  0.00    -0.018 A 
ATOM      5  C   UNL A   1     -28.391   0.104  30.980  0.00  0.00    -0.000 A 
ATOM      6  C   UNL A   1     -27.533   1.167  30.787  0.00  0.00    -0.000 A 
ATOM      7  C   UNL A   1     -26.828   1.256  29.645  0.00  0.00    -0.004 A 
ENDBRANCH   1   4
BRANCH   1   8
ATOM      8  C   UNL A   1     -25.139   0.675  27.231  0.00  0.00    -0.018 A 
ATOM      9  C   UNL A   1     -24.316   0.867  28.442  0.00  0.00    -0.004 A 
ATOM     10  C   UNL A   1     -22.939   1.296  28.077  0.00  0.00    -0.000 A 
ATOM     11  C   UNL A   1     -22.616   1.859  26.886  0.00  0.00    -0.000 A 
ATOM     12  C   UNL A   1     -23.713   1.960  26.032  0.00  0.00    -0.000 A 
ATOM     13  C   UNL A   1     -24.829   1.365  26.089  0.00  0.00    -0.004 A 
ENDBRANCH   1   8
BRANCH   1  14
ATOM     14  C   UNL A   1     -27.064  -0.043  26.201  0.00  0.00    +0.073 C 
BRANCH  14  15
ATOM     15  C   UNL A   1     -27.921   1.033  25.733  0.00  0.00    +0.150 C 
ATOM     16  O   UNL A   1     -27.866   2.183  26.349  0.00  0.00    -0.296 OA
BRANCH  15  17
ATOM     17  C   UNL A   1     -28.777   0.709  24.700  0.00  0.00    +0.051 C 
ATOM     18  C   UNL A   1     -30.031   0.599  25.142  0.00  0.00    +0.007 C 
ATOM     19  C   UNL A   1     -31.017   1.296  24.826  0.00  0.00    +0.000 C 
ATOM     20  C   UNL A   1     -30.881   2.043  23.524  0.00  0.00    +0.000 C 
ATOM     21  C   UNL A   1     -29.611   2.243  23.019  0.00  0.00    +0.000 C 
ATOM     22  C   UNL A   1     -28.750   2.114  23.873  0.00  0.00    +0.007 C 
ATOM     23  C   UNL A   1     -28.376  -0.359  23.743  0.00  0.00    +0.007 C 
ENDBRANCH  15  17
ENDBRANCH  14  15
ENDBRANCH   1  14
TORSDOF 5
