MODEL 731
MODEL 1
REMARK VINA RESULT:    -7.528      0.000      0.000
REMARK INTER + INTRA:         -11.838
REMARK INTER:                  -9.728
REMARK INTRA:                  -2.109
REMARK UNBOUND:                -2.109
REMARK  Name = No_731-gen_results/8p0m/2024-11-26-14-13-15/
REMARK  5 active torsions:
REMARK  status: ('A' for Active; 'I' for Inactive)
REMARK    1  A    between atoms: C_3  and  C_4
REMARK    2  A    between atoms: C_4  and  C_8
REMARK    3  A    between atoms: C_4  and  C_14
REMARK    4  A    between atoms: C_14  and  C_15
REMARK    5  A    between atoms: C_15  and  C_16
REMARK                            x       y       z     vdW  Elec       q    Type
REMARK                         _______ _______ _______ _____ _____    ______ ____
ROOT
ATOM      1  C   UNL A   1     -24.723  -1.385  29.861  0.00  0.00    +0.052 C 
ENDROOT
BRANCH   1   4
ATOM      2  C   UNL A   1     -26.201  -3.516  29.955  0.00  0.00    -0.004 A 
ATOM      3  C   UNL A   1     -26.218  -4.525  29.654  0.00  0.00    -0.000 A 
ATOM      4  C   UNL A   1     -24.950  -2.830  29.634  0.00  0.00    -0.018 A 
ATOM      5  C   UNL A   1     -25.281  -5.416  28.984  0.00  0.00    -0.000 A 
ATOM      6  C   UNL A   1     -24.081  -4.808  28.675  0.00  0.00    -0.000 A 
ATOM      7  C   UNL A   1     -23.908  -3.501  28.942  0.00  0.00    -0.004 A 
ENDBRANCH   1   4
BRANCH   1   8
ATOM      8  C   UNL A   1     -25.055  -0.636  30.682  0.00  0.00    -0.018 A 
ATOM      9  C   UNL A   1     -26.442  -0.141  30.567  0.00  0.00    -0.004 A 
ATOM     10  C   UNL A   1     -26.722   0.881  31.610  0.00  0.00    -0.000 A 
ATOM     11  C   UNL A   1     -25.757   1.579  32.260  0.00  0.00    -0.000 A 
ATOM     12  C   UNL A   1     -24.474   1.205  31.863  0.00  0.00    -0.000 A 
ATOM     13  C   UNL A   1     -24.098   0.166  31.245  0.00  0.00    -0.004 A 
ENDBRANCH   1   8
BRANCH   1  14
ATOM     14  C   UNL A   1     -23.729  -0.857  28.818  0.00  0.00    +0.073 C 
BRANCH  14  15
ATOM     15  C   UNL A   1     -24.430  -0.135  27.769  0.00  0.00    +0.150 C 
ATOM     16  O   UNL A   1     -25.318  -0.778  27.060  0.00  0.00    -0.296 OA
BRANCH  15  17
ATOM     17  C   UNL A   1     -24.033   1.173  27.576  0.00  0.00    +0.051 C 
ATOM     18  C   UNL A   1     -22.744   1.326  27.882  0.00  0.00    +0.007 C 
ATOM     19  C   UNL A   1     -21.811   1.653  27.119  0.00  0.00    +0.000 C 
ATOM     20  C   UNL A   1     -22.236   2.349  25.852  0.00  0.00    +0.000 C 
ATOM     21  C   UNL A   1     -23.545   2.203  25.437  0.00  0.00    +0.000 C 
ATOM     22  C   UNL A   1     -24.085   1.236  25.948  0.00  0.00    +0.007 C 
ATOM     23  C   UNL A   1     -24.908   2.270  28.075  0.00  0.00    +0.007 C 
ENDBRANCH  15  17
ENDBRANCH  14  15
ENDBRANCH   1  14
TORSDOF 5
ENDMDL
ENDMDL
