REMARK  Name = No_732-gen_results/8p0m/2024-11-26-14-13-15/
REMARK  6 active torsions:
REMARK  status: ('A' for Active; 'I' for Inactive)
REMARK    1  A    between atoms: C_1  and  C_2
REMARK    2  A    between atoms: C_1  and  C_8
REMARK    3  A    between atoms: C_5  and  C_10
REMARK    4  A    between atoms: C_8  and  C_9
REMARK    5  A    between atoms: C_8  and  C_19
REMARK    6  A    between atoms: C_19  and  C_20
REMARK                            x       y       z     vdW  Elec       q    Type
REMARK                         _______ _______ _______ _____ _____    ______ ____
ROOT
ATOM      1  C   UNL A   1     -28.016  -0.814  28.878  0.00  0.00    +0.031 C 
ENDROOT
BRANCH   1   2
ATOM      2  C   UNL A   1     -27.064  -0.119  28.608  0.00  0.00    -0.022 A 
ATOM      3  C   UNL A   1     -25.792  -0.430  29.076  0.00  0.00    -0.004 A 
ATOM      4  C   UNL A   1     -24.546   0.349  28.823  0.00  0.00    +0.004 A 
ATOM      5  C   UNL A   1     -24.659   1.420  27.888  0.00  0.00    +0.071 A 
ATOM      6  C   UNL A   1     -25.947   1.681  27.379  0.00  0.00    +0.004 A 
ATOM      7  C   UNL A   1     -27.044   0.974  27.687  0.00  0.00    -0.004 A 
BRANCH   5   8
ATOM      8  C   UNL A   1     -23.447   2.147  27.592  0.00  0.00    +0.419 C 
ATOM      9  F   UNL A   1     -22.503   1.992  28.194  0.00  0.00    -0.166 F 
ATOM     10  F   UNL A   1     -23.141   1.878  26.180  0.00  0.00    -0.166 F 
ATOM     11  F   UNL A   1     -23.808   3.508  27.525  0.00  0.00    -0.166 F 
ENDBRANCH   5   8
ENDBRANCH   1   2
BRANCH   1  12
ATOM     12  C   UNL A   1     -28.660  -0.460  30.201  0.00  0.00    +0.031 C 
BRANCH  12  13
ATOM     13  C   UNL A   1     -29.750  -1.249  30.677  0.00  0.00    -0.022 A 
ATOM     14  C   UNL A   1     -30.187  -2.173  29.873  0.00  0.00    -0.004 A 
ATOM     15  C   UNL A   1     -31.316  -2.945  30.434  0.00  0.00    -0.000 A 
ATOM     16  C   UNL A   1     -31.813  -2.687  31.597  0.00  0.00    -0.000 A 
ATOM     17  C   UNL A   1     -31.338  -1.703  32.429  0.00  0.00    -0.000 A 
ATOM     18  C   UNL A   1     -30.268  -0.945  31.988  0.00  0.00    -0.004 A 
ENDBRANCH  12  13
BRANCH  12  19
ATOM     19  C   UNL A   1     -28.121   0.621  31.038  0.00  0.00    +0.030 C 
BRANCH  19  20
ATOM     20  C   UNL A   1     -27.239   1.490  30.696  0.00  0.00    -0.030 C 
ATOM     21  C   UNL A   1     -26.968   2.455  31.818  0.00  0.00    -0.030 C 
ATOM     22  C   UNL A   1     -25.996   3.575  31.689  0.00  0.00    +0.030 C 
ENDBRANCH  19  20
ENDBRANCH  12  19
ENDBRANCH   1  12
TORSDOF 6
