MODEL 732
MODEL 1
REMARK VINA RESULT:    -7.458      0.000      0.000
REMARK INTER + INTRA:         -11.618
REMARK INTER:                 -10.074
REMARK INTRA:                  -1.545
REMARK UNBOUND:                -1.545
REMARK  Name = No_732-gen_results/8p0m/2024-11-26-14-13-15/
REMARK  6 active torsions:
REMARK  status: ('A' for Active; 'I' for Inactive)
REMARK    1  A    between atoms: C_1  and  C_2
REMARK    2  A    between atoms: C_1  and  C_8
REMARK    3  A    between atoms: C_5  and  C_10
REMARK    4  A    between atoms: C_8  and  C_9
REMARK    5  A    between atoms: C_8  and  C_19
REMARK    6  A    between atoms: C_19  and  C_20
REMARK                            x       y       z     vdW  Elec       q    Type
REMARK                         _______ _______ _______ _____ _____    ______ ____
ROOT
ATOM      1  C   UNL A   1     -22.581  -0.423  30.427  0.00  0.00    +0.031 C 
ENDROOT
BRANCH   1   2
ATOM      2  C   UNL A   1     -23.264  -0.340  31.422  0.00  0.00    -0.022 A 
ATOM      3  C   UNL A   1     -24.283   0.600  31.517  0.00  0.00    -0.004 A 
ATOM      4  C   UNL A   1     -25.183   0.808  32.687  0.00  0.00    +0.004 A 
ATOM      5  C   UNL A   1     -25.078  -0.155  33.734  0.00  0.00    +0.071 A 
ATOM      6  C   UNL A   1     -24.077  -1.137  33.590  0.00  0.00    +0.004 A 
ATOM      7  C   UNL A   1     -23.259  -1.240  32.532  0.00  0.00    -0.004 A 
BRANCH   5   8
ATOM      8  C   UNL A   1     -25.983   0.003  34.848  0.00  0.00    +0.419 C 
ATOM      9  F   UNL A   1     -26.498   0.987  35.055  0.00  0.00    -0.166 F 
ATOM     10  F   UNL A   1     -27.014  -1.032  34.689  0.00  0.00    -0.166 F 
ATOM     11  F   UNL A   1     -25.302  -0.482  35.983  0.00  0.00    -0.166 F 
ENDBRANCH   5   8
ENDBRANCH   1   2
BRANCH   1  12
ATOM     12  C   UNL A   1     -23.386  -0.639  29.164  0.00  0.00    +0.031 C 
BRANCH  12  13
ATOM     13  C   UNL A   1     -23.242   0.280  28.082  0.00  0.00    -0.022 A 
ATOM     14  C   UNL A   1     -24.252   0.375  27.268  0.00  0.00    -0.004 A 
ATOM     15  C   UNL A   1     -24.028   1.343  26.174  0.00  0.00    -0.000 A 
ATOM     16  C   UNL A   1     -22.920   1.994  26.050  0.00  0.00    -0.000 A 
ATOM     17  C   UNL A   1     -21.863   1.875  26.919  0.00  0.00    -0.000 A 
ATOM     18  C   UNL A   1     -21.998   1.003  27.984  0.00  0.00    -0.004 A 
ENDBRANCH  12  13
BRANCH  12  19
ATOM     19  C   UNL A   1     -24.237  -1.827  29.005  0.00  0.00    +0.030 C 
BRANCH  19  20
ATOM     20  C   UNL A   1     -23.847  -3.049  28.945  0.00  0.00    -0.030 C 
ATOM     21  C   UNL A   1     -25.009  -3.994  29.086  0.00  0.00    -0.030 C 
ATOM     22  C   UNL A   1     -24.841  -5.473  29.065  0.00  0.00    +0.030 C 
ENDBRANCH  19  20
ENDBRANCH  12  19
ENDBRANCH   1  12
TORSDOF 6
ENDMDL
ENDMDL
