REMARK  Name = No_733-gen_results/8p0m/2024-11-26-14-13-15/
REMARK  2 active torsions:
REMARK  status: ('A' for Active; 'I' for Inactive)
REMARK    1  A    between atoms: C_1  and  C_8
REMARK    2  A    between atoms: C_4  and  C_5
REMARK                            x       y       z     vdW  Elec       q    Type
REMARK                         _______ _______ _______ _____ _____    ______ ____
ROOT
ATOM      1  C   UNL A   1     -28.016  -0.814  28.878  0.00  0.00    +0.057 A 
ATOM      2  C   UNL A   1     -27.064  -0.119  28.608  0.00  0.00    +0.005 A 
ATOM      3  C   UNL A   1     -26.972   0.714  27.506  0.00  0.00    +0.008 A 
ATOM      4  C   UNL A   1     -28.105   0.774  26.642  0.00  0.00    +0.043 A 
ATOM      5  C   UNL A   1     -29.269  -0.533  28.224  0.00  0.00    +0.005 A 
ATOM      6  C   UNL A   1     -29.223   0.136  27.033  0.00  0.00    +0.008 A 
ENDROOT
BRANCH   1   7
ATOM      7  C   UNL A   1     -28.044  -1.655  30.151  0.00  0.00    +0.284 C 
ATOM      8  N   UNL A   1     -27.033  -2.456  30.335  0.00  0.00    -0.084 NA
ATOM      9  O   UNL A   1     -29.018  -1.780  30.860  0.00  0.00    -0.267 OA
ENDBRANCH   1   7
BRANCH   4  10
ATOM     10  C   UNL A   1     -28.068   1.487  25.512  0.00  0.00    -0.051 C 
ATOM     11  C   UNL A   1     -27.782   2.178  24.795  0.00  0.00    -0.009 C 
ENDBRANCH   4  10
TORSDOF 2
