MODEL 733
MODEL 1
REMARK VINA RESULT:    -5.452      0.000      0.000
REMARK INTER + INTRA:          -6.218
REMARK INTER:                  -6.089
REMARK INTRA:                  -0.128
REMARK UNBOUND:                -0.128
REMARK  Name = No_733-gen_results/8p0m/2024-11-26-14-13-15/
REMARK  2 active torsions:
REMARK  status: ('A' for Active; 'I' for Inactive)
REMARK    1  A    between atoms: C_1  and  C_8
REMARK    2  A    between atoms: C_4  and  C_5
REMARK                            x       y       z     vdW  Elec       q    Type
REMARK                         _______ _______ _______ _____ _____    ______ ____
ROOT
ATOM      1  C   UNL A   1     -28.126 -11.315  32.542  0.00  0.00    +0.057 A 
ATOM      2  C   UNL A   1     -29.030 -10.513  32.580  0.00  0.00    +0.005 A 
ATOM      3  C   UNL A   1     -29.840 -10.173  31.509  0.00  0.00    +0.008 A 
ATOM      4  C   UNL A   1     -29.603 -10.849  30.276  0.00  0.00    +0.043 A 
ATOM      5  C   UNL A   1     -28.077 -12.231  31.430  0.00  0.00    +0.005 A 
ATOM      6  C   UNL A   1     -28.715 -11.860  30.279  0.00  0.00    +0.008 A 
ENDROOT
BRANCH   1   7
ATOM      7  C   UNL A   1     -27.328 -11.665  33.794  0.00  0.00    +0.284 C 
ATOM      8  N   UNL A   1     -26.965 -10.663  34.544  0.00  0.00    -0.084 NA
ATOM      9  O   UNL A   1     -26.840 -12.753  34.006  0.00  0.00    -0.267 OA
ENDBRANCH   1   7
BRANCH   4  10
ATOM     10  C   UNL A   1     -30.282 -10.521  29.173  0.00  0.00    -0.051 C 
ATOM     11  C   UNL A   1     -30.591 -10.479  28.185  0.00  0.00    -0.009 C 
ENDBRANCH   4  10
TORSDOF 2
ENDMDL
ENDMDL
