REMARK  Name = No_734-gen_results/8p0m/2024-11-26-14-13-15/
REMARK  2 active torsions:
REMARK  status: ('A' for Active; 'I' for Inactive)
REMARK    1  A    between atoms: C_2  and  N_7
REMARK    2  A    between atoms: C_11  and  C_12
REMARK                            x       y       z     vdW  Elec       q    Type
REMARK                         _______ _______ _______ _____ _____    ______ ____
ROOT
ATOM      1  N   UNL A   1     -29.972  -0.790  29.922  0.00  0.00    -0.307 N 
ATOM      2  C   UNL A   1     -30.726  -1.629  30.431  0.00  0.00    +0.091 C 
ATOM      3  C   UNL A   1     -32.110  -1.553  30.248  0.00  0.00    +0.022 C 
ATOM      4  C   UNL A   1     -30.608   0.222  29.185  0.00  0.00    +0.095 C 
ATOM      5  C   UNL A   1     -31.910   0.319  28.991  0.00  0.00    +0.042 C 
ATOM      6  C   UNL A   1     -32.642  -0.671  29.599  0.00  0.00    +0.008 C 
ENDROOT
BRANCH   1   8
ATOM      7  C   UNL A   1     -28.016  -0.814  28.878  0.00  0.00    +0.015 A 
ATOM      8  C   UNL A   1     -28.469  -0.785  29.829  0.00  0.00    +0.048 A 
ATOM      9  C   UNL A   1     -26.546  -0.876  28.850  0.00  0.00    +0.001 A 
ATOM     10  C   UNL A   1     -25.897  -0.827  29.889  0.00  0.00    +0.000 A 
ATOM     11  C   UNL A   1     -27.913  -0.839  31.194  0.00  0.00    +0.015 A 
ATOM     12  C   UNL A   1     -26.552  -0.832  31.177  0.00  0.00    +0.001 A 
ENDBRANCH   1   8
BRANCH   5  13
ATOM     13  C   UNL A   1     -32.443   1.364  28.208  0.00  0.00    -0.029 C 
ATOM     14  C   UNL A   1     -33.584   1.717  28.102  0.00  0.00    -0.030 C 
ATOM     15  C   UNL A   1     -34.082   2.739  27.199  0.00  0.00    +0.030 C 
ENDBRANCH   5  13
TORSDOF 2
