MODEL 734
MODEL 1
REMARK VINA RESULT:    -6.853      0.000      0.000
REMARK INTER + INTRA:          -8.131
REMARK INTER:                  -7.654
REMARK INTRA:                  -0.478
REMARK UNBOUND:                -0.478
REMARK  Name = No_734-gen_results/8p0m/2024-11-26-14-13-15/
REMARK  2 active torsions:
REMARK  status: ('A' for Active; 'I' for Inactive)
REMARK    1  A    between atoms: C_2  and  N_7
REMARK    2  A    between atoms: C_11  and  C_12
REMARK                            x       y       z     vdW  Elec       q    Type
REMARK                         _______ _______ _______ _____ _____    ______ ____
ROOT
ATOM      1  N   UNL A   1     -23.955  -1.426  29.882  0.00  0.00    -0.307 N 
ATOM      2  C   UNL A   1     -24.087  -0.797  30.940  0.00  0.00    +0.091 C 
ATOM      3  C   UNL A   1     -23.790   0.568  31.004  0.00  0.00    +0.022 C 
ATOM      4  C   UNL A   1     -23.478  -0.678  28.793  0.00  0.00    +0.095 C 
ATOM      5  C   UNL A   1     -23.193   0.610  28.821  0.00  0.00    +0.042 C 
ATOM      6  C   UNL A   1     -23.384   1.200  30.046  0.00  0.00    +0.008 C 
ENDROOT
BRANCH   1   8
ATOM      7  C   UNL A   1     -23.738  -3.442  28.986  0.00  0.00    +0.015 A 
ATOM      8  C   UNL A   1     -24.389  -2.827  29.541  0.00  0.00    +0.048 A 
ATOM      9  C   UNL A   1     -24.242  -4.777  28.623  0.00  0.00    +0.001 A 
ATOM     10  C   UNL A   1     -25.339  -5.160  29.015  0.00  0.00    +0.000 A 
ATOM     11  C   UNL A   1     -25.773  -3.019  30.012  0.00  0.00    +0.015 A 
ATOM     12  C   UNL A   1     -26.223  -4.273  29.737  0.00  0.00    +0.001 A 
ENDBRANCH   1   8
BRANCH   5  13
ATOM     13  C   UNL A   1     -22.745   1.271  27.658  0.00  0.00    -0.029 C 
ATOM     14  C   UNL A   1     -23.391   1.714  26.750  0.00  0.00    -0.030 C 
ATOM     15  C   UNL A   1     -22.862   2.296  25.530  0.00  0.00    +0.030 C 
ENDBRANCH   5  13
TORSDOF 2
ENDMDL
ENDMDL
