MODEL 735
MODEL 1
REMARK VINA RESULT:    -6.109      0.000      0.000
REMARK INTER + INTRA:          -6.753
REMARK INTER:                  -6.467
REMARK INTRA:                  -0.287
REMARK UNBOUND:                -0.287
REMARK  Name = No_735-gen_results/8p0m/2024-11-26-14-13-15/
REMARK  1 active torsions:
REMARK  status: ('A' for Active; 'I' for Inactive)
REMARK    1  A    between atoms: C_4  and  C_7
REMARK                            x       y       z     vdW  Elec       q    Type
REMARK                         _______ _______ _______ _____ _____    ______ ____
ROOT
ATOM      1  C   UNL A   1     -26.564  -3.960  29.944  0.00  0.00    -0.000 A 
ATOM      2  C   UNL A   1     -26.154  -4.893  29.676  0.00  0.00    -0.000 A 
ATOM      3  C   UNL A   1     -25.708  -2.781  29.737  0.00  0.00    -0.000 A 
ATOM      4  C   UNL A   1     -24.452  -2.904  29.075  0.00  0.00    -0.004 A 
ATOM      5  C   UNL A   1     -24.077  -4.177  28.728  0.00  0.00    -0.000 A 
ATOM      6  C   UNL A   1     -24.891  -5.228  28.965  0.00  0.00    -0.000 A 
ENDROOT
BRANCH   4   7
ATOM      7  C   UNL A   1     -23.610  -1.758  28.847  0.00  0.00    -0.018 C 
ATOM      8  C   UNL A   1     -22.715  -1.538  29.278  0.00  0.00    -0.004 C 
ATOM      9  C   UNL A   1     -21.923  -0.217  29.189  0.00  0.00    -0.004 C 
ATOM     10  C   UNL A   1     -22.773   0.679  28.504  0.00  0.00    -0.021 C 
ATOM     11  C   UNL A   1     -24.180  -0.554  28.099  0.00  0.00    +0.052 C 
ENDBRANCH   4   7
TORSDOF 1
ENDMDL
ENDMDL
