REMARK  Name = No_736-gen_results/8p0m/2024-11-26-14-13-15/
REMARK  8 active torsions:
REMARK  status: ('A' for Active; 'I' for Inactive)
REMARK    1  A    between atoms: C_2  and  P_7
REMARK    2  A    between atoms: C_6  and  C_11
REMARK    3  A    between atoms: P_7  and  O_9
REMARK    4  A    between atoms: O_9  and  C_14
REMARK    5  A    between atoms: C_14  and  C_15
REMARK    6  A    between atoms: C_15  and  C_16
REMARK    7  A    between atoms: C_15  and  O_17
REMARK    8  A    between atoms: O_17  and  C_19
REMARK                            x       y       z     vdW  Elec       q    Type
REMARK                         _______ _______ _______ _____ _____    ______ ____
ROOT
ATOM      1  O   UNL A   1     -26.395   2.464  28.340  0.00  0.00    -0.285 OA
ENDROOT
BRANCH   1   2
ATOM      2  P   UNL A   1     -27.115   1.353  27.593  0.00  0.00    +0.392 P 
ATOM      3  O   UNL A   1     -26.455   1.067  26.486  0.00  0.00    -0.251 OA
ATOM      4  O   UNL A   1     -28.564   1.724  27.456  0.00  0.00    -0.136 OA
BRANCH   2   6
ATOM      5  C   UNL A   1     -28.016  -0.814  28.878  0.00  0.00    +0.014 A 
ATOM      6  C   UNL A   1     -27.064  -0.119  28.608  0.00  0.00    +0.083 A 
ATOM      7  C   UNL A   1     -25.792  -0.430  29.076  0.00  0.00    +0.007 A 
ATOM      8  C   UNL A   1     -25.576  -1.565  29.936  0.00  0.00    +0.001 A 
ATOM      9  C   UNL A   1     -26.735  -2.300  30.217  0.00  0.00    +0.007 A 
ATOM     10  C   UNL A   1     -27.918  -1.954  29.763  0.00  0.00    +0.080 A 
BRANCH  10  11
ATOM     11  C   UNL A   1     -29.057  -2.768  30.216  0.00  0.00    +0.388 C 
ATOM     12  O   UNL A   1     -30.102  -2.492  30.098  0.00  0.00    -0.241 OA
ATOM     13  O   UNL A   1     -28.732  -3.936  30.784  0.00  0.00    -0.241 OA
ENDBRANCH  10  11
ENDBRANCH   2   6
ENDBRANCH   1   2
BRANCH   1  14
ATOM     14  C   UNL A   1     -26.554   2.904  29.408  0.00  0.00    +0.206 C 
BRANCH  14  15
ATOM     15  C   UNL A   1     -26.060   4.267  29.627  0.00  0.00    +0.285 C 
BRANCH  15  16
ATOM     16  C   UNL A   1     -25.860   5.061  28.558  0.00  0.00    +0.353 C 
ATOM     17  O   UNL A   1     -25.645   6.327  28.685  0.00  0.00    -0.255 OA
ATOM     18  F   UNL A   1     -25.863   4.606  27.320  0.00  0.00    -0.160 F 
ENDBRANCH  15  16
BRANCH  15  19
ATOM     19  O   UNL A   1     -26.828   5.043  30.597  0.00  0.00    -0.466 OA
BRANCH  19  20
ATOM     20  C   UNL A   1     -28.050   4.932  30.675  0.00  0.00    +0.139 A 
ATOM     21  C   UNL A   1     -28.914   5.582  30.374  0.00  0.00    +0.037 A 
ATOM     22  C   UNL A   1     -30.337   5.347  30.550  0.00  0.00    +0.003 A 
ATOM     23  C   UNL A   1     -30.642   4.116  31.186  0.00  0.00    +0.000 A 
ATOM     24  C   UNL A   1     -29.679   3.231  31.550  0.00  0.00    +0.003 A 
ATOM     25  C   UNL A   1     -28.372   3.571  31.351  0.00  0.00    +0.037 A 
ENDBRANCH  19  20
ENDBRANCH  15  19
ENDBRANCH  14  15
ENDBRANCH   1  14
TORSDOF 8
