MODEL 736
MODEL 1
REMARK VINA RESULT:    -5.910      0.000      0.000
REMARK INTER + INTRA:         -11.282
REMARK INTER:                  -8.674
REMARK INTRA:                  -2.608
REMARK UNBOUND:                -2.608
REMARK  Name = No_736-gen_results/8p0m/2024-11-26-14-13-15/
REMARK  8 active torsions:
REMARK  status: ('A' for Active; 'I' for Inactive)
REMARK    1  A    between atoms: C_2  and  P_7
REMARK    2  A    between atoms: C_6  and  C_11
REMARK    3  A    between atoms: P_7  and  O_9
REMARK    4  A    between atoms: O_9  and  C_14
REMARK    5  A    between atoms: C_14  and  C_15
REMARK    6  A    between atoms: C_15  and  C_16
REMARK    7  A    between atoms: C_15  and  O_17
REMARK    8  A    between atoms: O_17  and  C_19
REMARK                            x       y       z     vdW  Elec       q    Type
REMARK                         _______ _______ _______ _____ _____    ______ ____
ROOT
ATOM      1  O   UNL A   1     -20.075 -20.076   7.154  0.00  0.00    -0.285 OA
ENDROOT
BRANCH   1   2
ATOM      2  P   UNL A   1     -19.183 -20.284   5.941  0.00  0.00    +0.392 P 
ATOM      3  O   UNL A   1     -18.626 -19.135   5.602  0.00  0.00    -0.251 OA
ATOM      4  O   UNL A   1     -19.967 -21.009   4.884  0.00  0.00    -0.136 OA
BRANCH   2   6
ATOM      5  C   UNL A   1     -17.377 -21.458   7.527  0.00  0.00    +0.014 A 
ATOM      6  C   UNL A   1     -17.847 -21.373   6.416  0.00  0.00    +0.083 A 
ATOM      7  C   UNL A   1     -17.372 -22.162   5.374  0.00  0.00    +0.007 A 
ATOM      8  C   UNL A   1     -16.274 -23.073   5.574  0.00  0.00    +0.001 A 
ATOM      9  C   UNL A   1     -15.776 -23.090   6.883  0.00  0.00    +0.007 A 
ATOM     10  C   UNL A   1     -16.249 -22.312   7.830  0.00  0.00    +0.080 A 
BRANCH  10  11
ATOM     11  C   UNL A   1     -15.565 -22.373   9.131  0.00  0.00    +0.388 C 
ATOM     12  O   UNL A   1     -14.518 -22.129   9.293  0.00  0.00    -0.241 OA
ATOM     13  O   UNL A   1     -16.337 -22.736  10.163  0.00  0.00    -0.241 OA
ENDBRANCH  10  11
ENDBRANCH   2   6
ENDBRANCH   1   2
BRANCH   1  14
ATOM     14  C   UNL A   1     -21.182 -20.378   7.358  0.00  0.00    +0.206 C 
BRANCH  14  15
ATOM     15  C   UNL A   1     -21.412 -21.261   8.506  0.00  0.00    +0.285 C 
BRANCH  15  16
ATOM     16  C   UNL A   1     -22.265 -20.861   9.468  0.00  0.00    +0.353 C 
ATOM     17  O   UNL A   1     -23.130 -19.927   9.260  0.00  0.00    -0.255 OA
ATOM     18  F   UNL A   1     -22.281 -21.394  10.674  0.00  0.00    -0.160 F 
ENDBRANCH  15  16
BRANCH  15  19
ATOM     19  O   UNL A   1     -21.778 -22.631   8.155  0.00  0.00    -0.466 OA
BRANCH  19  20
ATOM     20  C   UNL A   1     -20.946 -23.413   7.697  0.00  0.00    +0.139 A 
ATOM     21  C   UNL A   1     -20.786 -23.880   6.689  0.00  0.00    +0.037 A 
ATOM     22  C   UNL A   1     -19.765 -24.828   6.275  0.00  0.00    +0.003 A 
ATOM     23  C   UNL A   1     -18.861 -25.186   7.307  0.00  0.00    +0.000 A 
ATOM     24  C   UNL A   1     -18.932 -24.648   8.551  0.00  0.00    +0.003 A 
ATOM     25  C   UNL A   1     -19.949 -23.780   8.829  0.00  0.00    +0.037 A 
ENDBRANCH  19  20
ENDBRANCH  15  19
ENDBRANCH  14  15
ENDBRANCH   1  14
TORSDOF 8
ENDMDL
ENDMDL
