REMARK  Name = No_737-gen_results/8p0m/2024-11-26-14-13-15/
REMARK  5 active torsions:
REMARK  status: ('A' for Active; 'I' for Inactive)
REMARK    1  A    between atoms: C_2  and  O_8
REMARK    2  A    between atoms: C_4  and  C_9
REMARK    3  A    between atoms: O_8  and  C_16
REMARK    4  A    between atoms: C_16  and  C_18
REMARK    5  A    between atoms: C_18  and  C_20
REMARK                            x       y       z     vdW  Elec       q    Type
REMARK                         _______ _______ _______ _____ _____    ______ ____
ROOT
ATOM      1  C   UNL A   1     -28.016  -0.814  28.878  0.00  0.00    +0.049 A 
ATOM      2  C   UNL A   1     -28.469  -0.785  29.829  0.00  0.00    +0.147 A 
ATOM      3  C   UNL A   1     -27.136   0.236  28.535  0.00  0.00    +0.061 A 
ATOM      4  C   UNL A   1     -26.875   1.282  29.398  0.00  0.00    +0.012 A 
ATOM      5  C   UNL A   1     -28.361   0.199  30.924  0.00  0.00    +0.038 A 
ATOM      6  C   UNL A   1     -27.528   1.223  30.636  0.00  0.00    +0.004 A 
ATOM      7 CL   UNL A   1     -26.296   0.279  27.026  0.00  0.00    -0.082 Cl
ENDROOT
BRANCH   4   8
ATOM      8  C   UNL A   1     -25.976   2.405  29.074  0.00  0.00    +0.011 A 
ATOM      9  C   UNL A   1     -26.166   3.221  28.020  0.00  0.00    +0.001 A 
ATOM     10  C   UNL A   1     -25.208   4.242  27.696  0.00  0.00    +0.000 A 
ATOM     11  C   UNL A   1     -24.848   2.663  29.914  0.00  0.00    +0.058 A 
ATOM     12 CL   UNL A   1     -24.700   1.557  31.313  0.00  0.00    -0.082 Cl
ATOM     13  C   UNL A   1     -24.116   4.443  28.283  0.00  0.00    +0.001 A 
ATOM     14  C   UNL A   1     -23.888   3.537  29.491  0.00  0.00    +0.011 A 
ENDBRANCH   4   8
BRANCH   2  15
ATOM     15  O   UNL A   1     -29.333  -1.881  30.245  0.00  0.00    -0.447 OA
BRANCH  15  16
ATOM     16  C   UNL A   1     -28.895  -3.148  30.567  0.00  0.00    +0.196 C 
ATOM     17  C   UNL A   1     -27.642  -3.371  30.715  0.00  0.00    +0.167 C 
ATOM     18  O   UNL A   1     -26.686  -2.522  30.556  0.00  0.00    -0.228 OA
BRANCH  16  19
ATOM     19  C   UNL A   1     -29.930  -4.094  30.645  0.00  0.00    +0.076 C 
BRANCH  19  20
ATOM     20  C   UNL A   1     -29.595  -5.339  31.137  0.00  0.00    +0.009 C 
ATOM     21  C   UNL A   1     -28.210  -5.595  31.400  0.00  0.00    +0.001 C 
ENDBRANCH  19  20
ENDBRANCH  16  19
ENDBRANCH  15  16
ENDBRANCH   2  15
TORSDOF 5
