MODEL 737
MODEL 1
REMARK VINA RESULT:    -6.690      0.000      0.000
REMARK INTER + INTRA:          -9.235
REMARK INTER:                  -8.645
REMARK INTRA:                  -0.589
REMARK UNBOUND:                -0.589
REMARK  Name = No_737-gen_results/8p0m/2024-11-26-14-13-15/
REMARK  5 active torsions:
REMARK  status: ('A' for Active; 'I' for Inactive)
REMARK    1  A    between atoms: C_2  and  O_8
REMARK    2  A    between atoms: C_4  and  C_9
REMARK    3  A    between atoms: O_8  and  C_16
REMARK    4  A    between atoms: C_16  and  C_18
REMARK    5  A    between atoms: C_18  and  C_20
REMARK                            x       y       z     vdW  Elec       q    Type
REMARK                         _______ _______ _______ _____ _____    ______ ____
ROOT
ATOM      1  C   UNL A   1     -23.713   1.012  29.345  0.00  0.00    +0.049 A 
ATOM      2  C   UNL A   1     -24.134   1.405  28.463  0.00  0.00    +0.147 A 
ATOM      3  C   UNL A   1     -23.877  -0.369  29.596  0.00  0.00    +0.061 A 
ATOM      4  C   UNL A   1     -24.575  -1.190  28.732  0.00  0.00    +0.012 A 
ATOM      5  C   UNL A   1     -24.912   0.757  27.389  0.00  0.00    +0.038 A 
ATOM      6  C   UNL A   1     -25.093  -0.566  27.590  0.00  0.00    +0.004 A 
ATOM      7 CL   UNL A   1     -23.194  -1.142  30.981  0.00  0.00    -0.082 Cl
ENDROOT
BRANCH   4   8
ATOM      8  C   UNL A   1     -24.783  -2.631  28.963  0.00  0.00    +0.011 A 
ATOM      9  C   UNL A   1     -23.918  -3.577  28.548  0.00  0.00    +0.001 A 
ATOM     10  C   UNL A   1     -24.216  -4.972  28.716  0.00  0.00    +0.000 A 
ATOM     11  C   UNL A   1     -25.947  -3.066  29.669  0.00  0.00    +0.058 A 
ATOM     12 CL   UNL A   1     -27.015  -1.740  30.220  0.00  0.00    -0.082 Cl
ATOM     13  C   UNL A   1     -25.278  -5.450  29.185  0.00  0.00    +0.001 A 
ATOM     14  C   UNL A   1     -26.266  -4.394  29.676  0.00  0.00    +0.011 A 
ENDBRANCH   4   8
BRANCH   2  15
ATOM     15  O   UNL A   1     -23.933   2.810  28.137  0.00  0.00    -0.447 OA
BRANCH  15  16
ATOM     16  C   UNL A   1     -24.793   3.570  27.374  0.00  0.00    +0.196 C 
ATOM     17  C   UNL A   1     -25.673   4.306  27.945  0.00  0.00    +0.167 C 
ATOM     18  O   UNL A   1     -25.890   4.401  29.211  0.00  0.00    -0.228 OA
BRANCH  16  19
ATOM     19  C   UNL A   1     -24.618   3.392  25.991  0.00  0.00    +0.076 C 
BRANCH  19  20
ATOM     20  C   UNL A   1     -23.325   3.464  25.516  0.00  0.00    +0.009 C 
ATOM     21  C   UNL A   1     -22.718   2.246  25.066  0.00  0.00    +0.001 C 
ENDBRANCH  19  20
ENDBRANCH  16  19
ENDBRANCH  15  16
ENDBRANCH   2  15
TORSDOF 5
ENDMDL
ENDMDL
