REMARK  Name = No_738-gen_results/8p0m/2024-11-26-14-13-15/
REMARK  6 active torsions:
REMARK  status: ('A' for Active; 'I' for Inactive)
REMARK    1  A    between atoms: C_3  and  C_14
REMARK    2  A    between atoms: C_6  and  C_7
REMARK    3  A    between atoms: C_14  and  N_16
REMARK    4  A    between atoms: N_16  and  C_17
REMARK    5  A    between atoms: C_18  and  C_19
REMARK    6  A    between atoms: C_20  and  C_21
REMARK                            x       y       z     vdW  Elec       q    Type
REMARK                         _______ _______ _______ _____ _____    ______ ____
ROOT
ATOM      1  C   UNL A   1     -28.016  -0.814  28.878  0.00  0.00    +0.099 A 
ATOM      2  N   UNL A   1     -27.188  -0.359  28.452  0.00  0.00    -0.244 NA
ATOM      3  C   UNL A   1     -28.106  -1.626  30.072  0.00  0.00    +0.048 A 
ATOM      4  C   UNL A   1     -26.794  -1.973  30.606  0.00  0.00    +0.003 A 
ATOM      5  C   UNL A   1     -25.639  -1.472  30.030  0.00  0.00    +0.019 A 
ATOM      6  C   UNL A   1     -25.850  -0.623  28.904  0.00  0.00    +0.081 A 
ENDROOT
BRANCH   6   7
ATOM      7  C   UNL A   1     -24.650  -0.013  28.319  0.00  0.00    +0.014 A 
ATOM      8  C   UNL A   1     -24.707   0.844  27.225  0.00  0.00    -0.020 A 
ATOM      9  C   UNL A   1     -25.723   1.174  26.506  0.00  0.00    +0.031 C 
ATOM     10  C   UNL A   1     -23.337  -0.376  28.861  0.00  0.00    +0.001 A 
ATOM     11  C   UNL A   1     -22.226   0.455  28.525  0.00  0.00    +0.000 A 
ATOM     12  C   UNL A   1     -23.524   1.621  26.765  0.00  0.00    -0.004 A 
ATOM     13  C   UNL A   1     -22.267   1.370  27.504  0.00  0.00    -0.000 A 
ENDBRANCH   6   7
BRANCH   3  14
ATOM     14  C   UNL A   1     -29.282  -2.190  30.658  0.00  0.00    +0.269 C 
ATOM     15  O   UNL A   1     -29.438  -3.369  30.602  0.00  0.00    -0.194 OA
BRANCH  14  16
ATOM     16  N   UNL A   1     -30.216  -1.387  31.152  0.00  0.00    -0.203 NA
BRANCH  16  17
ATOM     17  C   UNL A   1     -30.164   0.079  31.290  0.00  0.00    +0.083 C 
ATOM     18  C   UNL A   1     -29.099   0.501  31.728  0.00  0.00    +0.018 C 
BRANCH  18  19
ATOM     19  C   UNL A   1     -28.737   1.575  31.967  0.00  0.00    +0.001 C 
ATOM     20  C   UNL A   1     -27.832   2.267  32.016  0.00  0.00    +0.000 C 
BRANCH  20  21
ATOM     21  C   UNL A   1     -26.482   1.576  32.037  0.00  0.00    +0.000 C 
ATOM     22  C   UNL A   1     -26.607   0.218  32.090  0.00  0.00    +0.000 C 
ENDBRANCH  20  21
ENDBRANCH  18  19
ENDBRANCH  16  17
ENDBRANCH  14  16
ENDBRANCH   3  14
TORSDOF 6
