REMARK  Name = No_739-gen_results/8p0m/2024-11-26-14-13-15/
REMARK  0 active torsions:
REMARK  status: ('A' for Active; 'I' for Inactive)
REMARK                            x       y       z     vdW  Elec       q    Type
REMARK                         _______ _______ _______ _____ _____    ______ ____
ROOT
ATOM      1  C   UNL A   1     -28.016  -0.814  28.878  0.00  0.00    +0.061 A 
ATOM      2  C   UNL A   1     -28.469  -0.785  29.829  0.00  0.00    +0.012 A 
ATOM      3 CL   UNL A   1     -26.440  -1.221  28.782  0.00  0.00    -0.082 Cl
ATOM      4  C   UNL A   1     -29.896  -0.465  29.970  0.00  0.00    +0.004 A 
ATOM      5  C   UNL A   1     -30.536  -0.085  28.778  0.00  0.00    +0.034 A 
ATOM      6  C   UNL A   1     -29.804  -0.036  27.657  0.00  0.00    +0.141 A 
ATOM      7  C   UNL A   1     -28.497  -0.340  27.645  0.00  0.00    +0.048 A 
ATOM      8  O   UNL A   1     -30.365   0.353  26.452  0.00  0.00    -0.459 OA
ATOM      9  C   UNL A   1     -31.980   0.297  28.795  0.00  0.00    +0.004 A 
ATOM     10  C   UNL A   1     -32.808  -0.138  29.523  0.00  0.00    -0.000 A 
ATOM     11  C   UNL A   1     -34.185   0.317  29.531  0.00  0.00    -0.000 A 
ATOM     12  C   UNL A   1     -34.527   1.220  28.512  0.00  0.00    -0.000 A 
ATOM     13  C   UNL A   1     -33.590   1.667  27.633  0.00  0.00    +0.001 A 
ATOM     14  C   UNL A   1     -32.291   1.285  27.731  0.00  0.00    +0.033 A 
ATOM     15  C   UNL A   1     -31.618   0.818  26.436  0.00  0.00    +0.268 C 
ATOM     16 CL   UNL A   1     -32.192   1.216  24.934  0.00  0.00    -0.063 Cl
ENDROOT
TORSDOF 0
