MODEL 739
MODEL 1
REMARK VINA RESULT:    -6.857      0.000      0.000
REMARK INTER + INTRA:          -6.857
REMARK INTER:                  -6.857
REMARK INTRA:                   0.000
REMARK UNBOUND:                 0.000
REMARK  Name = No_739-gen_results/8p0m/2024-11-26-14-13-15/
REMARK  0 active torsions:
REMARK  status: ('A' for Active; 'I' for Inactive)
REMARK                            x       y       z     vdW  Elec       q    Type
REMARK                         _______ _______ _______ _____ _____    ______ ____
ROOT
ATOM      1  C   UNL A   1     -25.935  -3.427  29.646  0.00  0.00    +0.061 A 
ATOM      2  C   UNL A   1     -24.997  -3.850  29.416  0.00  0.00    +0.012 A 
ATOM      3 CL   UNL A   1     -27.157  -4.427  30.054  0.00  0.00    -0.082 Cl
ATOM      4  C   UNL A   1     -23.851  -2.993  29.082  0.00  0.00    +0.004 A 
ATOM      5  C   UNL A   1     -24.150  -1.625  28.971  0.00  0.00    +0.034 A 
ATOM      6  C   UNL A   1     -25.419  -1.239  29.159  0.00  0.00    +0.141 A 
ATOM      7  C   UNL A   1     -26.394  -2.113  29.451  0.00  0.00    +0.048 A 
ATOM      8  O   UNL A   1     -25.787   0.091  29.042  0.00  0.00    -0.459 OA
ATOM      9  C   UNL A   1     -23.076  -0.654  28.603  0.00  0.00    +0.004 A 
ATOM     10  C   UNL A   1     -21.926  -0.748  28.877  0.00  0.00    -0.000 A 
ATOM     11  C   UNL A   1     -20.919   0.199  28.439  0.00  0.00    -0.000 A 
ATOM     12  C   UNL A   1     -21.409   1.337  27.779  0.00  0.00    -0.000 A 
ATOM     13  C   UNL A   1     -22.738   1.478  27.525  0.00  0.00    +0.001 A 
ATOM     14  C   UNL A   1     -23.629   0.513  27.869  0.00  0.00    +0.033 A 
ATOM     15  C   UNL A   1     -24.892   0.980  28.599  0.00  0.00    +0.268 C 
ATOM     16 CL   UNL A   1     -25.437   2.543  28.537  0.00  0.00    -0.063 Cl
ENDROOT
TORSDOF 0
ENDMDL
ENDMDL
