MODEL 73
MODEL 1
REMARK VINA RESULT:    -6.592      0.000      0.000
REMARK INTER + INTRA:          -8.119
REMARK INTER:                  -7.749
REMARK INTRA:                  -0.371
REMARK UNBOUND:                -0.371
REMARK  Name = No_73-gen_results/8p0m/2024-11-26-14-13-15/
REMARK  3 active torsions:
REMARK  status: ('A' for Active; 'I' for Inactive)
REMARK    1  A    between atoms: C_2  and  C_11
REMARK    2  A    between atoms: C_6  and  C_8
REMARK    3  A    between atoms: C_12  and  C_17
REMARK                            x       y       z     vdW  Elec       q    Type
REMARK                         _______ _______ _______ _____ _____    ______ ____
ROOT
ATOM      1  C   UNL A   1     -23.766  -0.527  28.755  0.00  0.00    +0.196 A 
ATOM      2  C   UNL A   1     -24.526  -1.185  28.082  0.00  0.00    +0.039 A 
ATOM      3  C   UNL A   1     -25.238  -0.676  27.014  0.00  0.00    +0.003 A 
ATOM      4  C   UNL A   1     -24.903   0.562  26.621  0.00  0.00    +0.007 A 
ATOM      5  C   UNL A   1     -23.186   0.641  28.217  0.00  0.00    +0.049 A 
ATOM      6  C   UNL A   1     -23.857   1.197  27.208  0.00  0.00    +0.083 A 
ATOM      7  O   UNL A   1     -23.075  -1.165  29.815  0.00  0.00    -0.287 OA
ENDROOT
BRANCH   2   8
ATOM      8  C   UNL A   1     -25.037  -2.623  28.616  0.00  0.00    +0.005 A 
ATOM      9  C   UNL A   1     -25.877  -2.940  29.349  0.00  0.00    +0.019 A 
ATOM     10  C   UNL A   1     -26.063  -4.216  29.918  0.00  0.00    +0.002 A 
ATOM     11  C   UNL A   1     -25.281  -5.247  29.410  0.00  0.00    +0.000 A 
ATOM     12  C   UNL A   1     -24.080  -3.766  28.230  0.00  0.00    +0.000 A 
ATOM     13  C   UNL A   1     -24.248  -4.973  28.643  0.00  0.00    +0.000 A 
BRANCH   9  14
ATOM     14  C   UNL A   1     -26.894  -1.892  29.891  0.00  0.00    +0.093 C 
ATOM     15  N   UNL A   1     -27.149  -1.569  31.173  0.00  0.00    -0.267 NA
ATOM     16  C   UNL A   1     -28.111  -0.777  31.558  0.00  0.00    +0.152 C 
ENDBRANCH   9  14
ENDBRANCH   2   8
BRANCH   6  17
ATOM     17  C   UNL A   1     -23.696   2.591  26.666  0.00  0.00    +0.388 C 
ATOM     18  O   UNL A   1     -23.262   2.955  25.670  0.00  0.00    -0.241 OA
ATOM     19  O   UNL A   1     -24.047   3.550  27.530  0.00  0.00    -0.241 OA
ENDBRANCH   6  17
TORSDOF 3
ENDMDL
ENDMDL
