REMARK  Name = No_74-gen_results/8p0m/2024-11-26-14-13-15/
REMARK  2 active torsions:
REMARK  status: ('A' for Active; 'I' for Inactive)
REMARK    1  A    between atoms: C_4  and  C_5
REMARK    2  A    between atoms: C_10  and  C_11
REMARK                            x       y       z     vdW  Elec       q    Type
REMARK                         _______ _______ _______ _____ _____    ______ ____
ROOT
ATOM      1  C   UNL A   1     -28.144   1.432  25.488  0.00  0.00    -0.023 C 
ATOM      2  C   UNL A   1     -28.204   1.499  24.441  0.00  0.00    -0.030 C 
ATOM      3  C   UNL A   1     -28.394   2.573  23.555  0.00  0.00    +0.026 C 
ATOM      4  C   UNL A   1     -28.285   2.909  25.801  0.00  0.00    +0.044 C 
ATOM      5  C   UNL A   1     -28.382   3.635  24.510  0.00  0.00    +0.013 C 
ENDROOT
BRANCH   1   9
ATOM      6  C   UNL A   1     -28.016  -0.814  28.878  0.00  0.00    -0.000 A 
ATOM      7  C   UNL A   1     -27.064  -0.119  28.608  0.00  0.00    -0.000 A 
ATOM      8  C   UNL A   1     -27.001   0.691  27.491  0.00  0.00    -0.000 A 
ATOM      9  C   UNL A   1     -28.137   0.736  26.635  0.00  0.00    -0.004 A 
ATOM     10  C   UNL A   1     -29.280  -0.552  28.248  0.00  0.00    -0.000 A 
ATOM     11  C   UNL A   1     -29.255   0.095  27.045  0.00  0.00    -0.000 A 
ENDBRANCH   1   9
BRANCH   4  12
ATOM     12  C   UNL A   1     -28.184   3.599  27.029  0.00  0.00    -0.027 C 
ATOM     13  C   UNL A   1     -29.175   4.503  27.205  0.00  0.00    -0.030 C 
ATOM     14  C   UNL A   1     -29.180   5.219  28.461  0.00  0.00    +0.030 C 
ENDBRANCH   4  12
TORSDOF 2
