MODEL 740
MODEL 1
REMARK VINA RESULT:    -6.412      0.000      0.000
REMARK INTER + INTRA:          -7.614
REMARK INTER:                  -7.161
REMARK INTRA:                  -0.453
REMARK UNBOUND:                -0.453
REMARK  Name = No_740-gen_results/8p0m/2024-11-26-14-13-15/
REMARK  2 active torsions:
REMARK  status: ('A' for Active; 'I' for Inactive)
REMARK    1  A    between atoms: C_3  and  C_4
REMARK    2  A    between atoms: C_4  and  C_8
REMARK                            x       y       z     vdW  Elec       q    Type
REMARK                         _______ _______ _______ _____ _____    ______ ____
ROOT
ATOM      1  C   UNL A   1     -23.427  -1.431  29.323  0.00  0.00    +0.053 C 
ENDROOT
BRANCH   1   4
ATOM      2  C   UNL A   1     -24.687  -0.290  27.327  0.00  0.00    -0.004 A 
ATOM      3  C   UNL A   1     -24.587   0.461  26.595  0.00  0.00    -0.000 A 
ATOM      4  C   UNL A   1     -23.601  -0.397  28.314  0.00  0.00    -0.018 A 
ATOM      5  C   UNL A   1     -23.643   1.598  26.474  0.00  0.00    -0.000 A 
ATOM      6  C   UNL A   1     -22.587   1.573  27.379  0.00  0.00    -0.000 A 
ATOM      7  C   UNL A   1     -22.524   0.599  28.353  0.00  0.00    -0.004 A 
ENDBRANCH   1   4
BRANCH   1   8
ATOM      8  C   UNL A   1     -24.421  -2.517  29.310  0.00  0.00    -0.018 A 
ATOM      9  C   UNL A   1     -23.925  -3.705  28.883  0.00  0.00    -0.004 A 
ATOM     10  C   UNL A   1     -24.803  -4.858  28.924  0.00  0.00    -0.000 A 
ATOM     11  C   UNL A   1     -26.046  -4.776  29.460  0.00  0.00    -0.000 A 
ATOM     12  C   UNL A   1     -25.662  -2.431  29.918  0.00  0.00    -0.004 A 
ATOM     13  C   UNL A   1     -26.472  -3.526  29.992  0.00  0.00    -0.000 A 
ENDBRANCH   1   8
TORSDOF 2
ENDMDL
ENDMDL
