REMARK  Name = No_741-gen_results/8p0m/2024-11-26-14-13-15/
REMARK  2 active torsions:
REMARK  status: ('A' for Active; 'I' for Inactive)
REMARK    1  A    between atoms: C_4  and  C_11
REMARK    2  A    between atoms: C_11  and  C_13
REMARK                            x       y       z     vdW  Elec       q    Type
REMARK                         _______ _______ _______ _____ _____    ______ ____
ROOT
ATOM      1  C   UNL A   1     -28.016  -0.814  28.878  0.00  0.00    -0.000 A 
ATOM      2  C   UNL A   1     -27.064  -0.119  28.608  0.00  0.00    -0.000 A 
ATOM      3  C   UNL A   1     -25.765  -0.390  29.036  0.00  0.00    -0.002 A 
ATOM      4  C   UNL A   1     -24.552   0.406  28.765  0.00  0.00    -0.000 A 
ATOM      5  C   UNL A   1     -23.230   0.118  29.258  0.00  0.00    -0.003 A 
ATOM      6  C   UNL A   1     -23.094  -1.131  29.873  0.00  0.00    -0.000 A 
ATOM      7  C   UNL A   1     -27.798  -1.934  29.856  0.00  0.00    -0.000 A 
ATOM      8  C   UNL A   1     -26.542  -2.327  30.258  0.00  0.00    -0.000 A 
ATOM      9  C   UNL A   1     -25.491  -1.669  29.953  0.00  0.00    -0.000 A 
ATOM     10  C   UNL A   1     -24.160  -1.944  30.290  0.00  0.00    -0.000 A 
ENDROOT
BRANCH   4  11
ATOM     11  C   UNL A   1     -24.657   1.643  27.960  0.00  0.00    +0.166 C 
ATOM     12 CL   UNL A   1     -24.821   1.585  26.574  0.00  0.00    -0.102 Cl
BRANCH  11  13
ATOM     13  C   UNL A   1     -24.702   2.865  28.767  0.00  0.00    +0.228 C 
ATOM     14  O   UNL A   1     -24.782   3.943  28.053  0.00  0.00    -0.287 OA
ENDBRANCH  11  13
ENDBRANCH   4  11
TORSDOF 2
