MODEL 741
MODEL 1
REMARK VINA RESULT:    -6.182      0.000      0.000
REMARK INTER + INTRA:          -7.106
REMARK INTER:                  -6.905
REMARK INTRA:                  -0.201
REMARK UNBOUND:                -0.201
REMARK  Name = No_741-gen_results/8p0m/2024-11-26-14-13-15/
REMARK  2 active torsions:
REMARK  status: ('A' for Active; 'I' for Inactive)
REMARK    1  A    between atoms: C_4  and  C_11
REMARK    2  A    between atoms: C_11  and  C_13
REMARK                            x       y       z     vdW  Elec       q    Type
REMARK                         _______ _______ _______ _____ _____    ______ ____
ROOT
ATOM      1  C   UNL A   1     -23.981  -4.710  28.547  0.00  0.00    -0.000 A 
ATOM      2  C   UNL A   1     -23.883  -3.505  28.583  0.00  0.00    -0.000 A 
ATOM      3  C   UNL A   1     -24.830  -2.672  29.176  0.00  0.00    -0.002 A 
ATOM      4  C   UNL A   1     -24.797  -1.198  29.255  0.00  0.00    -0.000 A 
ATOM      5  C   UNL A   1     -25.815  -0.365  29.842  0.00  0.00    -0.003 A 
ATOM      6  C   UNL A   1     -26.798  -1.058  30.556  0.00  0.00    -0.000 A 
ATOM      7  C   UNL A   1     -25.270  -5.313  29.030  0.00  0.00    -0.000 A 
ATOM      8  C   UNL A   1     -26.217  -4.580  29.708  0.00  0.00    -0.000 A 
ATOM      9  C   UNL A   1     -26.138  -3.312  29.833  0.00  0.00    -0.000 A 
ATOM     10  C   UNL A   1     -27.019  -2.442  30.488  0.00  0.00    -0.000 A 
ENDROOT
BRANCH   4  11
ATOM     11  C   UNL A   1     -23.664  -0.462  28.654  0.00  0.00    +0.166 C 
ATOM     12 CL   UNL A   1     -23.810   0.210  27.438  0.00  0.00    -0.102 Cl
BRANCH  11  13
ATOM     13  C   UNL A   1     -22.476  -0.413  29.511  0.00  0.00    +0.228 C 
ATOM     14  O   UNL A   1     -21.453  -1.018  28.996  0.00  0.00    -0.287 OA
ENDBRANCH  11  13
ENDBRANCH   4  11
TORSDOF 2
ENDMDL
ENDMDL
