MODEL 742
MODEL 1
REMARK VINA RESULT:    -7.850      0.000      0.000
REMARK INTER + INTRA:         -10.783
REMARK INTER:                  -9.685
REMARK INTRA:                  -1.098
REMARK UNBOUND:                -1.098
REMARK  Name = No_742-gen_results/8p0m/2024-11-26-14-13-15/
REMARK  4 active torsions:
REMARK  status: ('A' for Active; 'I' for Inactive)
REMARK    1  A    between atoms: N_3  and  C_10
REMARK    2  A    between atoms: C_5  and  C_6
REMARK    3  A    between atoms: C_10  and  C_11
REMARK    4  A    between atoms: C_16  and  C_17
REMARK                            x       y       z     vdW  Elec       q    Type
REMARK                         _______ _______ _______ _____ _____    ______ ____
ROOT
ATOM      1  C   UNL A   1     -23.045  -0.237  28.670  0.00  0.00    -0.004 A 
ATOM      2  C   UNL A   1     -22.583   0.796  28.171  0.00  0.00    +0.027 A 
ATOM      3  C   UNL A   1     -23.277   1.526  27.055  0.00  0.00    +0.140 A 
ATOM      4  C   UNL A   1     -24.346   0.780  26.504  0.00  0.00    +0.030 A 
ATOM      5  C   UNL A   1     -24.838  -0.366  27.118  0.00  0.00    +0.002 A 
ATOM      6  C   UNL A   1     -24.205  -0.862  28.226  0.00  0.00    -0.003 A 
ATOM      7  F   UNL A   1     -22.765   2.501  26.428  0.00  0.00    -0.204 F 
ENDROOT
BRANCH   6   8
ATOM      8  C   UNL A   1     -24.694  -2.074  28.825  0.00  0.00    -0.000 A 
ATOM      9  C   UNL A   1     -25.843  -2.120  29.418  0.00  0.00    -0.000 A 
ATOM     10  C   UNL A   1     -26.440  -3.319  29.909  0.00  0.00    -0.000 A 
ATOM     11  C   UNL A   1     -25.803  -4.542  29.667  0.00  0.00    -0.000 A 
ATOM     12  C   UNL A   1     -24.573  -4.535  29.022  0.00  0.00    -0.000 A 
ATOM     13  C   UNL A   1     -23.972  -3.338  28.568  0.00  0.00    -0.000 A 
ENDBRANCH   6   8
BRANCH   1  14
ATOM     14  C   UNL A   1     -22.576  -0.551  30.005  0.00  0.00    +0.100 C 
BRANCH  14  17
ATOM     15 CL   UNL A   1     -22.700  -1.528  32.682  0.00  0.00    -0.097 Cl
ATOM     16  C   UNL A   1     -23.726  -0.742  32.044  0.00  0.00    +0.139 C 
ATOM     17  N   UNL A   1     -23.417   0.058  31.076  0.00  0.00    -0.256 NA
ATOM     18  C   UNL A   1     -23.840   1.351  30.906  0.00  0.00    +0.088 C 
ATOM     19  C   UNL A   1     -24.837   1.733  31.282  0.00  0.00    +0.107 C 
ATOM     20  C   UNL A   1     -25.780   0.905  32.187  0.00  0.00    +0.019 C 
ATOM     21  C   UNL A   1     -24.983  -0.315  32.765  0.00  0.00    +0.034 C 
BRANCH  19  22
ATOM     22  C   UNL A   1     -25.456   3.080  31.125  0.00  0.00    +0.073 C 
ATOM     23  N   UNL A   1     -25.363   4.283  30.774  0.00  0.00    -0.196 NA
ENDBRANCH  19  22
ENDBRANCH  14  17
ENDBRANCH   1  14
TORSDOF 4
ENDMDL
ENDMDL
