MODEL 743
MODEL 1
REMARK VINA RESULT:    -6.858      0.000      0.000
REMARK INTER + INTRA:         -10.501
REMARK INTER:                  -9.263
REMARK INTRA:                  -1.238
REMARK UNBOUND:                -1.238
REMARK  Name = No_743-gen_results/8p0m/2024-11-26-14-13-15/
REMARK  6 active torsions:
REMARK  status: ('A' for Active; 'I' for Inactive)
REMARK    1  A    between atoms: C_3  and  C_4
REMARK    2  A    between atoms: C_6  and  C_13
REMARK    3  A    between atoms: C_13  and  O_15
REMARK    4  A    between atoms: O_15  and  C_17
REMARK    5  A    between atoms: C_17  and  C_18
REMARK    6  A    between atoms: N_20  and  C_21
REMARK                            x       y       z     vdW  Elec       q    Type
REMARK                         _______ _______ _______ _____ _____    ______ ____
ROOT
ATOM      1  C   UNL A   1     -12.876   2.207  34.371  0.00  0.00    +0.006 A 
ATOM      2  C   UNL A   1     -13.902   2.408  34.978  0.00  0.00    +0.000 A 
ATOM      3  C   UNL A   1     -13.890   3.019  36.227  0.00  0.00    +0.000 A 
ATOM      4  C   UNL A   1     -11.576   2.435  35.022  0.00  0.00    +0.076 A 
ATOM      5  C   UNL A   1     -11.458   3.096  36.209  0.00  0.00    +0.006 A 
ATOM      6  C   UNL A   1     -12.649   3.424  36.879  0.00  0.00    +0.000 A 
ENDROOT
BRANCH   3   7
ATOM      7  C   UNL A   1     -15.080   3.311  37.076  0.00  0.00    +0.003 A 
ATOM      8  C   UNL A   1     -15.173   3.071  38.492  0.00  0.00    +0.000 A 
ATOM      9  C   UNL A   1     -16.330   3.404  39.134  0.00  0.00    +0.003 A 
ATOM     10  C   UNL A   1     -17.343   4.183  38.672  0.00  0.00    +0.042 A 
ATOM     11  C   UNL A   1     -16.181   4.101  36.546  0.00  0.00    +0.042 A 
ATOM     12  C   UNL A   1     -17.256   4.499  37.340  0.00  0.00    +0.196 A 
ATOM     13  O   UNL A   1     -18.205   5.123  36.590  0.00  0.00    -0.287 OA
ENDBRANCH   3   7
BRANCH   4  14
ATOM     14  C   UNL A   1     -10.279   2.102  34.332  0.00  0.00    +0.342 C 
ATOM     15  O   UNL A   1     -10.268   1.858  33.147  0.00  0.00    -0.245 OA
BRANCH  14  16
ATOM     16  O   UNL A   1      -9.270   1.749  35.068  0.00  0.00    -0.435 OA
BRANCH  16  17
ATOM     17  C   UNL A   1      -8.990   0.562  35.316  0.00  0.00    +0.295 C 
BRANCH  17  18
ATOM     18  C   UNL A   1      -9.423   0.088  36.586  0.00  0.00    +0.290 C 
ATOM     19  O   UNL A   1      -8.702   0.164  37.498  0.00  0.00    -0.269 OA
ATOM     20  N   UNL A   1     -10.687  -0.407  36.748  0.00  0.00    -0.176 NA
BRANCH  20  21
ATOM     21  C   UNL A   1     -11.199  -0.849  38.035  0.00  0.00    +0.073 A 
ATOM     22  C   UNL A   1     -11.314  -1.890  38.339  0.00  0.00    +0.017 A 
ATOM     23  C   UNL A   1     -11.894  -2.334  39.659  0.00  0.00    +0.001 A 
ATOM     24  C   UNL A   1     -12.313  -1.286  40.519  0.00  0.00    +0.000 A 
ATOM     25  C   UNL A   1     -12.176   0.021  40.073  0.00  0.00    +0.001 A 
ATOM     26  C   UNL A   1     -11.633   0.327  38.889  0.00  0.00    +0.017 A 
ENDBRANCH  20  21
ENDBRANCH  17  18
ENDBRANCH  16  17
ENDBRANCH  14  16
ENDBRANCH   4  14
TORSDOF 6
ENDMDL
ENDMDL
