REMARK  Name = No_745-gen_results/8p0m/2024-11-26-14-13-15/
REMARK  6 active torsions:
REMARK  status: ('A' for Active; 'I' for Inactive)
REMARK    1  A    between atoms: C_1  and  C_2
REMARK    2  A    between atoms: C_1  and  N_8
REMARK    3  A    between atoms: C_5  and  C_13
REMARK    4  A    between atoms: N_8  and  C_9
REMARK    5  A    between atoms: C_9  and  C_10
REMARK    6  A    between atoms: C_17  and  C_19
REMARK                            x       y       z     vdW  Elec       q    Type
REMARK                         _______ _______ _______ _____ _____    ______ ____
ROOT
ATOM      1  C   UNL A   1     -28.016  -0.814  28.878  0.00  0.00    +0.115 C 
ENDROOT
BRANCH   1   2
ATOM      2  C   UNL A   1     -27.064  -0.119  28.608  0.00  0.00    -0.005 A 
ATOM      3  C   UNL A   1     -27.001   0.691  27.491  0.00  0.00    -0.003 A 
ATOM      4  C   UNL A   1     -25.855   1.482  27.083  0.00  0.00    -0.003 A 
ATOM      5  C   UNL A   1     -24.690   1.453  27.881  0.00  0.00    -0.007 A 
ATOM      6  C   UNL A   1     -24.738   0.601  29.042  0.00  0.00    -0.003 A 
ATOM      7  C   UNL A   1     -25.823  -0.169  29.389  0.00  0.00    -0.003 A 
BRANCH   5   8
ATOM      8  C   UNL A   1     -23.528   2.207  27.561  0.00  0.00    +0.102 C 
ATOM      9 CL   UNL A   1     -22.330   2.313  28.597  0.00  0.00    -0.110 Cl
ATOM     10  C   UNL A   1     -23.371   2.709  26.205  0.00  0.00    +0.022 C 
ENDBRANCH   5   8
ENDBRANCH   1   2
BRANCH   1  11
ATOM     11  N   UNL A   1     -28.757  -0.548  30.019  0.00  0.00    -0.212 NA
BRANCH  11  12
ATOM     12  C   UNL A   1     -29.760  -1.326  30.517  0.00  0.00    +0.106 C 
BRANCH  12  13
ATOM     13  C   UNL A   1     -30.231  -2.294  29.887  0.00  0.00    +0.091 C 
ATOM     14  N   UNL A   1     -30.723  -3.185  30.295  0.00  0.00    -0.218 NA
ATOM     15  C   UNL A   1     -31.145  -4.377  29.586  0.00  0.00    +0.089 C 
ATOM     16  C   UNL A   1     -32.059  -4.166  28.585  0.00  0.00    +0.027 C 
ATOM     17  C   UNL A   1     -31.984  -2.873  28.052  0.00  0.00    +0.068 C 
ATOM     18  C   UNL A   1     -31.224  -1.891  28.746  0.00  0.00    +0.027 C 
BRANCH  17  19
ATOM     19  C   UNL A   1     -32.688  -2.536  26.825  0.00  0.00    +0.207 C 
ATOM     20  O   UNL A   1     -32.987  -3.300  26.029  0.00  0.00    -0.288 OA
ENDBRANCH  17  19
ENDBRANCH  12  13
ENDBRANCH  11  12
ENDBRANCH   1  11
TORSDOF 6
