MODEL 745
MODEL 1
REMARK VINA RESULT:    -5.672      0.000      0.000
REMARK INTER + INTRA:          -8.517
REMARK INTER:                  -7.662
REMARK INTRA:                  -0.855
REMARK UNBOUND:                -0.855
REMARK  Name = No_745-gen_results/8p0m/2024-11-26-14-13-15/
REMARK  6 active torsions:
REMARK  status: ('A' for Active; 'I' for Inactive)
REMARK    1  A    between atoms: C_1  and  C_2
REMARK    2  A    between atoms: C_1  and  N_8
REMARK    3  A    between atoms: C_5  and  C_13
REMARK    4  A    between atoms: N_8  and  C_9
REMARK    5  A    between atoms: C_9  and  C_10
REMARK    6  A    between atoms: C_17  and  C_19
REMARK                            x       y       z     vdW  Elec       q    Type
REMARK                         _______ _______ _______ _____ _____    ______ ____
ROOT
ATOM      1  C   UNL A   1     -22.079  -0.523  29.493  0.00  0.00    +0.115 C 
ENDROOT
BRANCH   1   2
ATOM      2  C   UNL A   1     -23.104  -1.139  29.673  0.00  0.00    -0.005 A 
ATOM      3  C   UNL A   1     -23.484  -2.229  28.915  0.00  0.00    -0.003 A 
ATOM      4  C   UNL A   1     -24.736  -2.952  29.040  0.00  0.00    -0.003 A 
ATOM      5  C   UNL A   1     -25.665  -2.538  30.020  0.00  0.00    -0.007 A 
ATOM      6  C   UNL A   1     -25.286  -1.393  30.808  0.00  0.00    -0.003 A 
ATOM      7  C   UNL A   1     -24.110  -0.700  30.647  0.00  0.00    -0.003 A 
BRANCH   5   8
ATOM      8  C   UNL A   1     -26.908  -3.198  30.218  0.00  0.00    +0.102 C 
ATOM      9 CL   UNL A   1     -27.057  -4.744  29.892  0.00  0.00    -0.110 Cl
ATOM     10  C   UNL A   1     -27.976  -2.487  30.905  0.00  0.00    +0.022 C 
ENDBRANCH   5   8
ENDBRANCH   1   2
BRANCH   1  11
ATOM     11  N   UNL A   1     -21.961   0.302  28.385  0.00  0.00    -0.212 NA
BRANCH  11  12
ATOM     12  C   UNL A   1     -22.400   1.590  28.301  0.00  0.00    +0.106 C 
BRANCH  12  13
ATOM     13  C   UNL A   1     -23.501   1.890  27.796  0.00  0.00    +0.091 C 
ATOM     14  N   UNL A   1     -23.842   2.879  27.468  0.00  0.00    -0.218 NA
ATOM     15  C   UNL A   1     -25.163   3.264  27.013  0.00  0.00    +0.089 C 
ATOM     16  C   UNL A   1     -25.616   2.593  25.906  0.00  0.00    +0.027 C 
ATOM     17  C   UNL A   1     -25.033   1.327  25.769  0.00  0.00    +0.068 C 
ATOM     18  C   UNL A   1     -23.901   1.005  26.568  0.00  0.00    +0.027 C 
BRANCH  17  19
ATOM     19  C   UNL A   1     -25.562   0.368  24.812  0.00  0.00    +0.207 C 
ATOM     20  O   UNL A   1     -25.723  -0.741  25.040  0.00  0.00    -0.288 OA
ENDBRANCH  17  19
ENDBRANCH  12  13
ENDBRANCH  11  12
ENDBRANCH   1  11
TORSDOF 6
ENDMDL
ENDMDL
