REMARK  Name = No_746-gen_results/8p0m/2024-11-26-14-13-15/
REMARK  1 active torsions:
REMARK  status: ('A' for Active; 'I' for Inactive)
REMARK    1  A    between atoms: C_1  and  C_7
REMARK                            x       y       z     vdW  Elec       q    Type
REMARK                         _______ _______ _______ _____ _____    ______ ____
ROOT
ATOM      1  C   UNL A   1     -28.016  -0.814  28.878  0.00  0.00    +0.080 A 
ATOM      2  C   UNL A   1     -27.064  -0.119  28.608  0.00  0.00    +0.007 A 
ATOM      3  C   UNL A   1     -27.001   0.691  27.491  0.00  0.00    +0.000 A 
ATOM      4  C   UNL A   1     -28.137   0.736  26.635  0.00  0.00    +0.000 A 
ATOM      5  C   UNL A   1     -29.236   0.076  27.069  0.00  0.00    +0.000 A 
ATOM      6  C   UNL A   1     -29.218  -0.643  28.175  0.00  0.00    +0.007 A 
ENDROOT
BRANCH   1   7
ATOM      7  C   UNL A   1     -28.003  -1.660  30.127  0.00  0.00    +0.388 C 
ATOM      8  O   UNL A   1     -27.122  -2.502  30.244  0.00  0.00    -0.241 OA
ATOM      9  O   UNL A   1     -29.147  -1.838  30.801  0.00  0.00    -0.241 OA
ENDBRANCH   1   7
TORSDOF 1
