MODEL 746
MODEL 1
REMARK VINA RESULT:    -4.952      0.000      0.000
REMARK INTER + INTRA:          -5.276
REMARK INTER:                  -5.241
REMARK INTRA:                  -0.034
REMARK UNBOUND:                -0.034
REMARK  Name = No_746-gen_results/8p0m/2024-11-26-14-13-15/
REMARK  1 active torsions:
REMARK  status: ('A' for Active; 'I' for Inactive)
REMARK    1  A    between atoms: C_1  and  C_7
REMARK                            x       y       z     vdW  Elec       q    Type
REMARK                         _______ _______ _______ _____ _____    ______ ____
ROOT
ATOM      1  C   UNL A   1     -28.028 -11.286  32.540  0.00  0.00    +0.080 A 
ATOM      2  C   UNL A   1     -28.930 -10.492  32.679  0.00  0.00    +0.007 A 
ATOM      3  C   UNL A   1     -29.789 -10.125  31.661  0.00  0.00    +0.000 A 
ATOM      4  C   UNL A   1     -29.623 -10.748  30.392  0.00  0.00    +0.000 A 
ATOM      5  C   UNL A   1     -28.715 -11.750  30.334  0.00  0.00    +0.000 A 
ATOM      6  C   UNL A   1     -27.963 -12.062  31.373  0.00  0.00    +0.007 A 
ENDROOT
BRANCH   1   7
ATOM      7  C   UNL A   1     -27.145 -11.637  33.712  0.00  0.00    +0.388 C 
ATOM      8  O   UNL A   1     -26.817 -12.808  33.856  0.00  0.00    -0.241 OA
ATOM      9  O   UNL A   1     -27.149 -10.839  34.788  0.00  0.00    -0.241 OA
ENDBRANCH   1   7
TORSDOF 1
ENDMDL
ENDMDL
