MODEL 747
MODEL 1
REMARK VINA RESULT:    -4.345      0.000      0.000
REMARK INTER + INTRA:          -4.345
REMARK INTER:                  -4.345
REMARK INTRA:                   0.000
REMARK UNBOUND:                 0.000
REMARK  Name = No_747-gen_results/8p0m/2024-11-26-14-13-15/
REMARK  0 active torsions:
REMARK  status: ('A' for Active; 'I' for Inactive)
REMARK                            x       y       z     vdW  Elec       q    Type
REMARK                         _______ _______ _______ _____ _____    ______ ____
ROOT
ATOM      1  C   UNL A   1     -24.778  -2.699  29.123  0.00  0.00    +0.000 A 
ATOM      2  C   UNL A   1     -24.040  -3.332  28.718  0.00  0.00    +0.000 A 
ATOM      3  C   UNL A   1     -25.898  -3.424  29.736  0.00  0.00    +0.000 A 
ATOM      4  C   UNL A   1     -26.045  -4.744  29.621  0.00  0.00    +0.000 A 
ATOM      5  C   UNL A   1     -23.987  -4.751  28.465  0.00  0.00    +0.000 A 
ATOM      6  C   UNL A   1     -25.047  -5.404  29.020  0.00  0.00    +0.000 A 
ENDROOT
TORSDOF 0
ENDMDL
ENDMDL
