MODEL 748
MODEL 1
REMARK VINA RESULT:    -5.328      0.000      0.000
REMARK INTER + INTRA:          -5.702
REMARK INTER:                  -5.639
REMARK INTRA:                  -0.062
REMARK UNBOUND:                -0.062
REMARK  Name = No_748-gen_results/8p0m/2024-11-26-14-13-15/
REMARK  1 active torsions:
REMARK  status: ('A' for Active; 'I' for Inactive)
REMARK    1  A    between atoms: C_2  and  C_7
REMARK                            x       y       z     vdW  Elec       q    Type
REMARK                         _______ _______ _______ _____ _____    ______ ____
ROOT
ATOM      1  C   UNL A   1     -25.508  -2.578  29.578  0.00  0.00    +0.005 A 
ATOM      2  C   UNL A   1     -24.589  -2.819  29.121  0.00  0.00    +0.055 A 
ATOM      3  C   UNL A   1     -26.411  -3.702  29.871  0.00  0.00    +0.000 A 
ATOM      4  C   UNL A   1     -26.121  -4.844  29.532  0.00  0.00    +0.000 A 
ATOM      5  C   UNL A   1     -23.979  -4.106  28.738  0.00  0.00    +0.005 A 
ATOM      6  C   UNL A   1     -24.834  -5.143  28.947  0.00  0.00    +0.000 A 
ENDROOT
BRANCH   2   7
ATOM      7  C   UNL A   1     -23.520  -1.652  28.841  0.00  0.00    +0.265 C 
ATOM      8  O   UNL A   1     -22.471  -1.781  28.958  0.00  0.00    -0.268 OA
ATOM      9  N   UNL A   1     -24.051  -0.419  28.289  0.00  0.00    -0.200 NA
ATOM     10  C   UNL A   1     -23.121   0.599  27.928  0.00  0.00    +0.139 C 
ENDBRANCH   2   7
TORSDOF 1
ENDMDL
ENDMDL
