REMARK  Name = No_749-gen_results/8p0m/2024-11-26-14-13-15/
REMARK  2 active torsions:
REMARK  status: ('A' for Active; 'I' for Inactive)
REMARK    1  A    between atoms: C_3  and  C_6
REMARK    2  A    between atoms: C_9  and  C_10
REMARK                            x       y       z     vdW  Elec       q    Type
REMARK                         _______ _______ _______ _____ _____    ______ ____
ROOT
ATOM      1  O   UNL A   1     -28.123  -1.335  28.487  0.00  0.00    -0.273 OA
ATOM      2  C   UNL A   1     -28.521  -0.436  29.078  0.00  0.00    +0.245 C 
ATOM      3  C   UNL A   1     -28.589   0.592  28.946  0.00  0.00    +0.100 C 
ATOM      4  N   UNL A   1     -28.787  -0.887  30.487  0.00  0.00    -0.205 NA
ATOM      5  C   UNL A   1     -29.332   1.632  29.509  0.00  0.00    +0.015 C 
ATOM      6  C   UNL A   1     -29.500  -0.012  31.347  0.00  0.00    +0.115 C 
ATOM      7  C   UNL A   1     -29.660   1.292  30.882  0.00  0.00    +0.024 C 
ENDROOT
BRANCH   3   8
ATOM      8  C   UNL A   1     -27.902   1.165  27.632  0.00  0.00    -0.017 C 
ATOM      9  C   UNL A   1     -28.401   1.313  26.553  0.00  0.00    -0.004 C 
BRANCH   9  10
ATOM     10  C   UNL A   1     -27.670   1.671  25.347  0.00  0.00    -0.005 C 
ATOM     11  C   UNL A   1     -26.261   1.768  25.351  0.00  0.00    -0.026 C 
ATOM     12  C   UNL A   1     -25.638   1.563  26.454  0.00  0.00    +0.031 C 
ENDBRANCH   9  10
ENDBRANCH   3   8
TORSDOF 2
