MODEL 749
MODEL 1
REMARK VINA RESULT:    -5.306      0.000      0.000
REMARK INTER + INTRA:          -6.255
REMARK INTER:                  -5.926
REMARK INTRA:                  -0.330
REMARK UNBOUND:                -0.330
REMARK  Name = No_749-gen_results/8p0m/2024-11-26-14-13-15/
REMARK  2 active torsions:
REMARK  status: ('A' for Active; 'I' for Inactive)
REMARK    1  A    between atoms: C_3  and  C_6
REMARK    2  A    between atoms: C_9  and  C_10
REMARK                            x       y       z     vdW  Elec       q    Type
REMARK                         _______ _______ _______ _____ _____    ______ ____
ROOT
ATOM      1  O   UNL A   1     -22.949  -0.316  30.665  0.00  0.00    -0.273 OA
ATOM      2  C   UNL A   1     -23.355  -0.093  29.615  0.00  0.00    +0.245 C 
ATOM      3  C   UNL A   1     -23.690  -0.637  28.797  0.00  0.00    +0.100 C 
ATOM      4  N   UNL A   1     -23.096   1.357  29.316  0.00  0.00    -0.205 NA
ATOM      5  C   UNL A   1     -24.458  -0.375  27.660  0.00  0.00    +0.015 C 
ATOM      6  C   UNL A   1     -23.712   1.925  28.171  0.00  0.00    +0.115 C 
ATOM      7  C   UNL A   1     -24.292   1.018  27.286  0.00  0.00    +0.024 C 
ENDROOT
BRANCH   3   8
ATOM      8  C   UNL A   1     -23.559  -2.217  28.919  0.00  0.00    -0.017 C 
ATOM      9  C   UNL A   1     -24.376  -3.042  28.627  0.00  0.00    -0.004 C 
BRANCH   9  10
ATOM     10  C   UNL A   1     -24.264  -4.460  28.932  0.00  0.00    -0.005 C 
ATOM     11  C   UNL A   1     -25.363  -5.184  29.445  0.00  0.00    -0.026 C 
ATOM     12  C   UNL A   1     -26.459  -4.555  29.666  0.00  0.00    +0.031 C 
ENDBRANCH   9  10
ENDBRANCH   3   8
TORSDOF 2
ENDMDL
ENDMDL
