MODEL 74
MODEL 1
REMARK VINA RESULT:    -6.723      0.000      0.000
REMARK INTER + INTRA:          -8.098
REMARK INTER:                  -7.509
REMARK INTRA:                  -0.589
REMARK UNBOUND:                -0.589
REMARK  Name = No_74-gen_results/8p0m/2024-11-26-14-13-15/
REMARK  2 active torsions:
REMARK  status: ('A' for Active; 'I' for Inactive)
REMARK    1  A    between atoms: C_4  and  C_5
REMARK    2  A    between atoms: C_10  and  C_11
REMARK                            x       y       z     vdW  Elec       q    Type
REMARK                         _______ _______ _______ _____ _____    ______ ____
ROOT
ATOM      1  C   UNL A   1     -23.590  -1.502  29.289  0.00  0.00    -0.023 C 
ATOM      2  C   UNL A   1     -22.746  -0.952  29.588  0.00  0.00    -0.030 C 
ATOM      3  C   UNL A   1     -22.138   0.218  29.102  0.00  0.00    +0.026 C 
ATOM      4  C   UNL A   1     -24.025  -0.611  28.142  0.00  0.00    +0.044 C 
ATOM      5  C   UNL A   1     -23.090   0.541  28.087  0.00  0.00    +0.013 C 
ENDROOT
BRANCH   1   9
ATOM      6  C   UNL A   1     -25.907  -4.835  29.560  0.00  0.00    -0.000 A 
ATOM      7  C   UNL A   1     -26.388  -3.769  29.867  0.00  0.00    -0.000 A 
ATOM      8  C   UNL A   1     -25.700  -2.573  29.805  0.00  0.00    -0.000 A 
ATOM      9  C   UNL A   1     -24.364  -2.597  29.315  0.00  0.00    -0.004 A 
ATOM     10  C   UNL A   1     -24.713  -4.865  28.763  0.00  0.00    -0.000 A 
ATOM     11  C   UNL A   1     -23.904  -3.764  28.809  0.00  0.00    -0.000 A 
ENDBRANCH   1   9
BRANCH   4  12
ATOM     12  C   UNL A   1     -25.176  -0.665  27.324  0.00  0.00    -0.027 C 
ATOM     13  C   UNL A   1     -25.041   0.047  26.182  0.00  0.00    -0.030 C 
ATOM     14  C   UNL A   1     -26.153   0.003  25.259  0.00  0.00    +0.030 C 
ENDBRANCH   4  12
TORSDOF 2
ENDMDL
ENDMDL
