REMARK  Name = No_750-gen_results/8p0m/2024-11-26-14-13-15/
REMARK  0 active torsions:
REMARK  status: ('A' for Active; 'I' for Inactive)
REMARK                            x       y       z     vdW  Elec       q    Type
REMARK                         _______ _______ _______ _____ _____    ______ ____
ROOT
ATOM      1  C   UNL A   1     -28.016  -0.814  28.878  0.00  0.00    +0.011 A 
ATOM      2  C   UNL A   1     -27.064  -0.119  28.608  0.00  0.00    +0.058 A 
ATOM      3  C   UNL A   1     -26.929   1.171  29.008  0.00  0.00    +0.011 A 
ATOM      4  C   UNL A   1     -27.956   1.741  29.784  0.00  0.00    -0.003 A 
ATOM      5  C   UNL A   1     -29.057  -0.327  29.747  0.00  0.00    +0.001 A 
ATOM      6  C   UNL A   1     -28.983   0.972  30.152  0.00  0.00    -0.000 A 
ATOM      7 CL   UNL A   1     -25.735  -0.730  27.663  0.00  0.00    -0.082 Cl
ATOM      8  C   UNL A   1     -30.081   1.511  31.011  0.00  0.00    +0.000 A 
ATOM      9  C   UNL A   1     -29.760   2.446  31.840  0.00  0.00    +0.004 A 
ATOM     10  C   UNL A   1     -28.610   3.338  31.444  0.00  0.00    +0.051 A 
ATOM     11  C   UNL A   1     -28.282   4.564  32.198  0.00  0.00    +0.265 C 
ATOM     12  C   UNL A   1     -27.642   2.930  30.513  0.00  0.00    -0.016 A 
ATOM     13  O   UNL A   1     -28.742   4.918  33.199  0.00  0.00    -0.268 OA
ATOM     14  N   UNL A   1     -27.214   5.351  31.653  0.00  0.00    -0.201 NA
ATOM     15  C   UNL A   1     -26.446   4.974  30.621  0.00  0.00    +0.120 C 
ATOM     16  C   UNL A   1     -26.588   3.740  30.025  0.00  0.00    +0.050 C 
ENDROOT
TORSDOF 0
