MODEL 750
MODEL 1
REMARK VINA RESULT:    -6.819      0.000      0.000
REMARK INTER + INTRA:          -6.819
REMARK INTER:                  -6.819
REMARK INTRA:                   0.000
REMARK UNBOUND:                 0.000
REMARK  Name = No_750-gen_results/8p0m/2024-11-26-14-13-15/
REMARK  0 active torsions:
REMARK  status: ('A' for Active; 'I' for Inactive)
REMARK                            x       y       z     vdW  Elec       q    Type
REMARK                         _______ _______ _______ _____ _____    ______ ____
ROOT
ATOM      1  C   UNL A   1     -30.393 -10.868  28.164  0.00  0.00    +0.011 A 
ATOM      2  C   UNL A   1     -29.538 -11.706  28.331  0.00  0.00    +0.058 A 
ATOM      3  C   UNL A   1     -28.823 -11.842  29.476  0.00  0.00    +0.011 A 
ATOM      4  C   UNL A   1     -29.087 -10.957  30.538  0.00  0.00    -0.003 A 
ATOM      5  C   UNL A   1     -30.781  -9.991  29.239  0.00  0.00    +0.001 A 
ATOM      6  C   UNL A   1     -30.073 -10.068  30.401  0.00  0.00    -0.000 A 
ATOM      7 CL   UNL A   1     -29.142 -12.857  27.085  0.00  0.00    -0.082 Cl
ATOM      8  C   UNL A   1     -30.427  -9.131  31.510  0.00  0.00    +0.000 A 
ATOM      9  C   UNL A   1     -30.221  -9.554  32.712  0.00  0.00    +0.004 A 
ATOM     10  C   UNL A   1     -29.104 -10.550  32.898  0.00  0.00    +0.051 A 
ATOM     11  C   UNL A   1     -28.633 -10.948  34.239  0.00  0.00    +0.265 C 
ATOM     12  C   UNL A   1     -28.629 -11.338  31.838  0.00  0.00    -0.016 A 
ATOM     13  O   UNL A   1     -29.104 -10.674  35.260  0.00  0.00    -0.268 OA
ATOM     14  N   UNL A   1     -27.510 -11.841  34.254  0.00  0.00    -0.201 NA
ATOM     15  C   UNL A   1     -26.982 -12.412  33.162  0.00  0.00    +0.120 C 
ATOM     16  C   UNL A   1     -27.530 -12.227  31.912  0.00  0.00    +0.050 C 
ENDROOT
TORSDOF 0
ENDMDL
ENDMDL
