REMARK  Name = No_751-gen_results/8p0m/2024-11-26-14-13-15/
REMARK  0 active torsions:
REMARK  status: ('A' for Active; 'I' for Inactive)
REMARK                            x       y       z     vdW  Elec       q    Type
REMARK                         _______ _______ _______ _____ _____    ______ ____
ROOT
ATOM      1  C   UNL A   1     -28.016  -0.814  28.878  0.00  0.00    +0.196 A 
ATOM      2  C   UNL A   1     -27.064  -0.119  28.608  0.00  0.00    +0.042 A 
ATOM      3  C   UNL A   1     -27.001   0.691  27.491  0.00  0.00    +0.003 A 
ATOM      4  C   UNL A   1     -28.137   0.736  26.635  0.00  0.00    +0.000 A 
ATOM      5  C   UNL A   1     -29.236   0.076  27.069  0.00  0.00    +0.003 A 
ATOM      6  C   UNL A   1     -29.218  -0.643  28.175  0.00  0.00    +0.042 A 
ATOM      7  O   UNL A   1     -28.033  -1.574  30.042  0.00  0.00    -0.287 OA
ENDROOT
TORSDOF 0
