MODEL 751
MODEL 1
REMARK VINA RESULT:    -5.096      0.000      0.000
REMARK INTER + INTRA:          -5.096
REMARK INTER:                  -5.096
REMARK INTRA:                   0.000
REMARK UNBOUND:                 0.000
REMARK  Name = No_751-gen_results/8p0m/2024-11-26-14-13-15/
REMARK  0 active torsions:
REMARK  status: ('A' for Active; 'I' for Inactive)
REMARK                            x       y       z     vdW  Elec       q    Type
REMARK                         _______ _______ _______ _____ _____    ______ ____
ROOT
ATOM      1  C   UNL A   1     -10.079 -10.181  17.910  0.00  0.00    +0.196 A 
ATOM      2  C   UNL A   1      -9.072 -10.849  17.869  0.00  0.00    +0.042 A 
ATOM      3  C   UNL A   1      -8.031 -10.717  18.767  0.00  0.00    +0.003 A 
ATOM      4  C   UNL A   1      -8.174  -9.770  19.819  0.00  0.00    +0.000 A 
ATOM      5  C   UNL A   1      -9.383  -9.172  19.922  0.00  0.00    +0.003 A 
ATOM      6  C   UNL A   1     -10.338  -9.389  19.038  0.00  0.00    +0.042 A 
ATOM      7  O   UNL A   1     -11.109 -10.393  17.000  0.00  0.00    -0.287 OA
ENDROOT
TORSDOF 0
ENDMDL
ENDMDL
