REMARK  Name = No_752-gen_results/8p0m/2024-11-26-14-13-15/
REMARK  8 active torsions:
REMARK  status: ('A' for Active; 'I' for Inactive)
REMARK    1  A    between atoms: C_1  and  N_11
REMARK    2  A    between atoms: C_5  and  C_7
REMARK    3  A    between atoms: N_11  and  C_12
REMARK    4  A    between atoms: C_13  and  C_14
REMARK    5  A    between atoms: C_18  and  C_33
REMARK    6  A    between atoms: C_23  and  C_27
REMARK    7  A    between atoms: C_27  and  N_28
REMARK    8  A    between atoms: N_28  and  C_29
REMARK                            x       y       z     vdW  Elec       q    Type
REMARK                         _______ _______ _______ _____ _____    ______ ____
ROOT
ATOM      1  N   UNL A   1     -28.032  -1.607  30.067  0.00  0.00    -0.238 N 
ATOM      2  C   UNL A   1     -27.300  -2.895  29.862  0.00  0.00    +0.256 C 
ATOM      3  O   UNL A   1     -27.755  -3.959  30.008  0.00  0.00    -0.269 OA
ENDROOT
BRANCH   1   4
ATOM      4  C   UNL A   1     -28.016  -0.814  28.878  0.00  0.00    +0.060 A 
ATOM      5  C   UNL A   1     -27.064  -0.119  28.608  0.00  0.00    +0.045 A 
ATOM      6  C   UNL A   1     -26.972   0.714  27.506  0.00  0.00    +0.142 A 
ATOM      7  C   UNL A   1     -28.105   0.774  26.642  0.00  0.00    +0.036 A 
ATOM      8  C   UNL A   1     -29.204   0.118  27.048  0.00  0.00    +0.083 A 
ATOM      9  C   UNL A   1     -29.213  -0.609  28.128  0.00  0.00    +0.022 A 
ATOM     10  F   UNL A   1     -25.811   1.355  27.173  0.00  0.00    -0.204 F 
BRANCH   8  11
ATOM     11  C   UNL A   1     -30.371   0.233  26.138  0.00  0.00    +0.388 C 
ATOM     12  O   UNL A   1     -31.252  -0.404  26.304  0.00  0.00    -0.241 OA
ATOM     13  O   UNL A   1     -30.441   1.259  25.295  0.00  0.00    -0.241 OA
ENDBRANCH   8  11
ENDBRANCH   1   4
BRANCH   1  14
ATOM     14  C   UNL A   1     -28.784  -1.623  31.039  0.00  0.00    +0.034 C 
ATOM     15  C   UNL A   1     -28.794  -0.428  31.849  0.00  0.00    -0.015 C 
ATOM     16  C   UNL A   1     -29.594  -0.277  32.919  0.00  0.00    +0.030 C 
ATOM     17  C   UNL A   1     -30.249  -1.942  30.834  0.00  0.00    +0.075 C 
ATOM     18  C   UNL A   1     -31.085  -2.047  32.067  0.00  0.00    +0.154 C 
ATOM     19  C   UNL A   1     -31.063  -0.699  32.792  0.00  0.00    +0.039 C 
ATOM     20  F   UNL A   1     -32.432  -2.212  31.705  0.00  0.00    -0.238 F 
BRANCH  18  21
ATOM     21  C   UNL A   1     -30.643  -3.128  32.955  0.00  0.00    +0.110 C 
BRANCH  21  22
ATOM     22  N   UNL A   1     -30.255  -4.183  32.568  0.00  0.00    -0.216 NA
ATOM     23  C   UNL A   1     -30.640  -4.809  31.292  0.00  0.00    +0.095 C 
BRANCH  22  24
ATOM     24  C   UNL A   1     -29.682  -5.146  33.297  0.00  0.00    +0.375 C 
ATOM     25  F   UNL A   1     -29.042  -4.642  34.339  0.00  0.00    -0.181 F 
ATOM     26  O   UNL A   1     -30.516  -6.104  33.799  0.00  0.00    -0.165 OA
ENDBRANCH  22  24
ENDBRANCH  21  22
ENDBRANCH  18  21
ENDBRANCH   1  14
BRANCH   2  27
ATOM     27  C   UNL A   1     -25.892  -2.740  29.740  0.00  0.00    +0.054 A 
ATOM     28  C   UNL A   1     -25.088  -3.724  29.151  0.00  0.00    +0.004 A 
ATOM     29  C   UNL A   1     -23.716  -3.406  28.880  0.00  0.00    -0.000 A 
ATOM     30  C   UNL A   1     -23.246  -2.094  29.006  0.00  0.00    -0.003 A 
ATOM     31  C   UNL A   1     -24.055  -1.114  29.620  0.00  0.00    -0.007 A 
ATOM     32  C   UNL A   1     -25.358  -1.438  29.954  0.00  0.00    +0.001 A 
BRANCH  31  33
ATOM     33  C   UNL A   1     -23.401   0.180  29.837  0.00  0.00    +0.102 C 
ATOM     34 CL   UNL A   1     -22.866   1.013  29.448  0.00  0.00    -0.110 Cl
ATOM     35  C   UNL A   1     -23.303   0.166  31.440  0.00  0.00    +0.022 C 
ENDBRANCH  31  33
ENDBRANCH   2  27
TORSDOF 8
