MODEL 752
MODEL 1
REMARK VINA RESULT:    -7.021      0.000      0.000
REMARK INTER + INTRA:         -12.927
REMARK INTER:                 -10.304
REMARK INTRA:                  -2.623
REMARK UNBOUND:                -2.623
REMARK  Name = No_752-gen_results/8p0m/2024-11-26-14-13-15/
REMARK  8 active torsions:
REMARK  status: ('A' for Active; 'I' for Inactive)
REMARK    1  A    between atoms: C_1  and  N_11
REMARK    2  A    between atoms: C_5  and  C_7
REMARK    3  A    between atoms: N_11  and  C_12
REMARK    4  A    between atoms: C_13  and  C_14
REMARK    5  A    between atoms: C_18  and  C_33
REMARK    6  A    between atoms: C_23  and  C_27
REMARK    7  A    between atoms: C_27  and  N_28
REMARK    8  A    between atoms: N_28  and  C_29
REMARK                            x       y       z     vdW  Elec       q    Type
REMARK                         _______ _______ _______ _____ _____    ______ ____
ROOT
ATOM      1  N   UNL A   1     -20.721 -20.572   5.602  0.00  0.00    -0.238 N 
ATOM      2  C   UNL A   1     -19.293 -20.176   5.807  0.00  0.00    +0.256 C 
ATOM      3  O   UNL A   1     -18.863 -19.103   5.652  0.00  0.00    -0.269 OA
ENDROOT
BRANCH   1   4
ATOM      4  C   UNL A   1     -21.272 -21.135   6.795  0.00  0.00    +0.060 A 
ATOM      5  C   UNL A   1     -21.247 -20.524   7.838  0.00  0.00    +0.045 A 
ATOM      6  C   UNL A   1     -21.715 -21.000   9.052  0.00  0.00    +0.142 A 
ATOM      7  C   UNL A   1     -22.239 -22.326   9.070  0.00  0.00    +0.036 A 
ATOM      8  C   UNL A   1     -22.110 -23.037   7.938  0.00  0.00    +0.083 A 
ATOM      9  C   UNL A   1     -21.614 -22.519   6.851  0.00  0.00    +0.022 A 
ATOM     10  F   UNL A   1     -21.800 -20.205  10.161  0.00  0.00    -0.204 F 
BRANCH   8  11
ATOM     11  C   UNL A   1     -22.638 -24.422   8.009  0.00  0.00    +0.388 C 
ATOM     12  O   UNL A   1     -23.045 -24.894   7.102  0.00  0.00    -0.241 OA
ATOM     13  O   UNL A   1     -22.393 -25.158   9.089  0.00  0.00    -0.241 OA
ENDBRANCH   8  11
ENDBRANCH   1   4
BRANCH   1  14
ATOM     14  C   UNL A   1     -21.240 -20.038   4.625  0.00  0.00    +0.034 C 
ATOM     15  C   UNL A   1     -21.222 -20.805   3.402  0.00  0.00    -0.015 C 
ATOM     16  C   UNL A   1     -21.786 -20.375   2.260  0.00  0.00    +0.030 C 
ATOM     17  C   UNL A   1     -22.665 -19.538   4.726  0.00  0.00    +0.075 C 
ATOM     18  C   UNL A   1     -23.198 -18.807   3.538  0.00  0.00    +0.154 C 
ATOM     19  C   UNL A   1     -23.186 -19.752   2.333  0.00  0.00    +0.039 C 
ATOM     20  F   UNL A   1     -24.561 -18.530   3.734  0.00  0.00    -0.238 F 
BRANCH  18  21
ATOM     21  C   UNL A   1     -22.448 -17.580   3.250  0.00  0.00    +0.110 C 
BRANCH  21  22
ATOM     22  N   UNL A   1     -22.798 -16.497   3.594  0.00  0.00    -0.216 NA
ATOM     23  C   UNL A   1     -23.273 -15.435   2.689  0.00  0.00    +0.095 C 
BRANCH  22  24
ATOM     24  C   UNL A   1     -22.544 -15.902   4.764  0.00  0.00    +0.375 C 
ATOM     25  F   UNL A   1     -21.684 -16.606   5.482  0.00  0.00    -0.181 F 
ATOM     26  O   UNL A   1     -22.032 -14.638   4.703  0.00  0.00    -0.165 OA
ENDBRANCH  22  24
ENDBRANCH  21  22
ENDBRANCH  18  21
ENDBRANCH   1  14
BRANCH   2  27
ATOM     27  C   UNL A   1     -18.406 -21.279   5.940  0.00  0.00    +0.054 A 
ATOM     28  C   UNL A   1     -18.156 -22.159   4.879  0.00  0.00    +0.004 A 
ATOM     29  C   UNL A   1     -17.099 -23.117   5.028  0.00  0.00    -0.000 A 
ATOM     30  C   UNL A   1     -16.212 -23.044   6.107  0.00  0.00    -0.003 A 
ATOM     31  C   UNL A   1     -16.483 -22.170   7.181  0.00  0.00    -0.007 A 
ATOM     32  C   UNL A   1     -17.549 -21.294   7.076  0.00  0.00    +0.001 A 
BRANCH  31  33
ATOM     33  C   UNL A   1     -15.571 -22.292   8.323  0.00  0.00    +0.102 C 
ATOM     34 CL   UNL A   1     -14.588 -22.447   8.698  0.00  0.00    -0.110 Cl
ATOM     35  C   UNL A   1     -16.643 -22.475   9.505  0.00  0.00    +0.022 C 
ENDBRANCH  31  33
ENDBRANCH   2  27
TORSDOF 8
ENDMDL
ENDMDL
