MODEL 753
MODEL 1
REMARK VINA RESULT:    -4.241      0.000      0.000
REMARK INTER + INTRA:          -4.241
REMARK INTER:                  -4.241
REMARK INTRA:                   0.000
REMARK UNBOUND:                 0.000
REMARK  Name = No_753-gen_results/8p0m/2024-11-26-14-13-15/
REMARK  0 active torsions:
REMARK  status: ('A' for Active; 'I' for Inactive)
REMARK                            x       y       z     vdW  Elec       q    Type
REMARK                         _______ _______ _______ _____ _____    ______ ____
ROOT
ATOM      1  C   UNL A   1     -25.188  -5.326  29.203  0.00  0.00    +0.000 A 
ATOM      2  C   UNL A   1     -26.111  -4.674  29.633  0.00  0.00    +0.000 A 
ATOM      3  C   UNL A   1     -26.085  -3.298  29.753  0.00  0.00    +0.000 A 
ATOM      4  C   UNL A   1     -24.921  -2.612  29.307  0.00  0.00    +0.000 A 
ATOM      5  C   UNL A   1     -23.990  -3.366  28.678  0.00  0.00    +0.000 A 
ATOM      6  C   UNL A   1     -24.117  -4.675  28.573  0.00  0.00    +0.000 A 
ENDROOT
TORSDOF 0
ENDMDL
ENDMDL
