MODEL 754
MODEL 1
REMARK VINA RESULT:    -4.311      0.000      0.000
REMARK INTER + INTRA:          -4.311
REMARK INTER:                  -4.311
REMARK INTRA:                   0.000
REMARK UNBOUND:                 0.000
REMARK  Name = No_754-gen_results/8p0m/2024-11-26-14-13-15/
REMARK  0 active torsions:
REMARK  status: ('A' for Active; 'I' for Inactive)
REMARK                            x       y       z     vdW  Elec       q    Type
REMARK                         _______ _______ _______ _____ _____    ______ ____
ROOT
ATOM      1  C   UNL A   1     -24.153  -4.888  28.636  0.00  0.00    +0.000 A 
ATOM      2  C   UNL A   1     -25.052  -5.248  29.052  0.00  0.00    +0.000 A 
ATOM      3  C   UNL A   1     -23.929  -3.457  28.874  0.00  0.00    +0.000 A 
ATOM      4  C   UNL A   1     -24.863  -2.664  29.402  0.00  0.00    +0.000 A 
ATOM      5  C   UNL A   1     -26.199  -4.597  29.635  0.00  0.00    +0.000 A 
ATOM      6  C   UNL A   1     -25.982  -3.264  29.826  0.00  0.00    +0.000 A 
ENDROOT
TORSDOF 0
ENDMDL
ENDMDL
