REMARK  Name = No_755-gen_results/8p0m/2024-11-26-14-13-15/
REMARK  6 active torsions:
REMARK  status: ('A' for Active; 'I' for Inactive)
REMARK    1  A    between atoms: C_1  and  C_2
REMARK    2  A    between atoms: C_4  and  C_18
REMARK    3  A    between atoms: C_5  and  C_9
REMARK    4  A    between atoms: N_8  and  C_13
REMARK    5  A    between atoms: C_9  and  O_11
REMARK    6  A    between atoms: C_29  and  C_34
REMARK                            x       y       z     vdW  Elec       q    Type
REMARK                         _______ _______ _______ _____ _____    ______ ____
ROOT
ATOM      1  C   UNL A   1     -27.064  -0.119  28.608  0.00  0.00    +0.054 A 
ATOM      2  C   UNL A   1     -26.929   1.171  29.008  0.00  0.00    +0.009 A 
ATOM      3  C   UNL A   1     -25.770   2.034  28.688  0.00  0.00    +0.060 A 
ATOM      4  C   UNL A   1     -24.714   1.443  27.919  0.00  0.00    +0.080 A 
ATOM      5  C   UNL A   1     -24.859   0.078  27.584  0.00  0.00    +0.007 A 
ATOM      6  C   UNL A   1     -25.965  -0.661  27.916  0.00  0.00    +0.005 A 
ENDROOT
BRANCH   3   7
ATOM      7  C   UNL A   1     -25.649   3.417  29.064  0.00  0.00    +0.249 C 
ATOM      8  O   UNL A   1     -25.473   3.659  30.308  0.00  0.00    -0.270 OA
ATOM      9  N   UNL A   1     -26.211   4.380  28.327  0.00  0.00    -0.276 N 
ATOM     10  C   UNL A   1     -26.724   4.311  27.020  0.00  0.00    +0.094 C 
ATOM     11  C   UNL A   1     -26.150   5.811  28.790  0.00  0.00    +0.094 C 
ATOM     12  C   UNL A   1     -26.513   6.702  28.060  0.00  0.00    +0.022 C 
ATOM     13  C   UNL A   1     -27.148   6.583  26.835  0.00  0.00    +0.004 C 
ATOM     14  C   UNL A   1     -27.291   5.313  26.384  0.00  0.00    +0.022 C 
ENDBRANCH   3   7
BRANCH   1  15
ATOM     15  C   UNL A   1     -28.016  -0.814  28.878  0.00  0.00    +0.252 C 
ATOM     16  N   UNL A   1     -27.982  -1.611  30.103  0.00  0.00    -0.233 N 
ATOM     17  O   UNL A   1     -29.211  -0.589  28.514  0.00  0.00    -0.270 OA
ATOM     18  C   UNL A   1     -26.688  -1.894  30.780  0.00  0.00    +0.119 C 
BRANCH  16  19
ATOM     19  C   UNL A   1     -29.041  -2.496  30.578  0.00  0.00    +0.349 C 
ATOM     20  C   UNL A   1     -28.864  -3.843  30.254  0.00  0.00    +0.383 C 
ATOM     21  O   UNL A   1     -29.765  -4.689  30.422  0.00  0.00    -0.417 OA
ATOM     22  O   UNL A   1     -27.689  -4.339  29.894  0.00  0.00    -0.244 OA
ATOM     23  C   UNL A   1     -30.969  -4.365  30.155  0.00  0.00    +0.182 A 
ATOM     24  C   UNL A   1     -31.632  -5.348  29.501  0.00  0.00    +0.038 A 
ATOM     25  C   UNL A   1     -32.446  -5.043  28.498  0.00  0.00    +0.000 A 
ATOM     26  C   UNL A   1     -32.912  -3.673  28.321  0.00  0.00    +0.001 A 
ATOM     27  C   UNL A   1     -32.206  -2.709  29.008  0.00  0.00    +0.040 A 
ATOM     28  C   UNL A   1     -31.265  -3.053  29.843  0.00  0.00    +0.175 A 
ATOM     29  O   UNL A   1     -30.459  -2.029  30.401  0.00  0.00    -0.448 OA
BRANCH  25  30
ATOM     30  C   UNL A   1     -33.254  -6.050  27.727  0.00  0.00    +0.136 C 
ATOM     31  N   UNL A   1     -33.204  -7.166  27.753  0.00  0.00    -0.126 NA
ENDBRANCH  25  30
ENDBRANCH  16  19
ENDBRANCH   1  15
BRANCH   4  32
ATOM     32  C   UNL A   1     -23.535   2.170  27.555  0.00  0.00    +0.342 C 
ATOM     33  O   UNL A   1     -23.419   3.010  26.997  0.00  0.00    -0.245 OA
BRANCH  32  34
ATOM     34  O   UNL A   1     -22.348   1.486  27.979  0.00  0.00    -0.441 OA
ATOM     35  C   UNL A   1     -21.214   1.631  27.278  0.00  0.00    +0.256 C 
ENDBRANCH  32  34
ENDBRANCH   4  32
TORSDOF 6
