MODEL 755
MODEL 1
REMARK VINA RESULT:    -8.042      0.000      0.000
REMARK INTER + INTRA:         -11.423
REMARK INTER:                 -10.863
REMARK INTRA:                  -0.560
REMARK UNBOUND:                -0.560
REMARK  Name = No_755-gen_results/8p0m/2024-11-26-14-13-15/
REMARK  6 active torsions:
REMARK  status: ('A' for Active; 'I' for Inactive)
REMARK    1  A    between atoms: C_1  and  C_2
REMARK    2  A    between atoms: C_4  and  C_18
REMARK    3  A    between atoms: C_5  and  C_9
REMARK    4  A    between atoms: N_8  and  C_13
REMARK    5  A    between atoms: C_9  and  O_11
REMARK    6  A    between atoms: C_29  and  C_34
REMARK                            x       y       z     vdW  Elec       q    Type
REMARK                         _______ _______ _______ _____ _____    ______ ____
ROOT
ATOM      1  C   UNL A   1     -24.806   1.877  29.039  0.00  0.00    +0.054 A 
ATOM      2  C   UNL A   1     -24.385   0.618  28.756  0.00  0.00    +0.009 A 
ATOM      3  C   UNL A   1     -23.881  -0.346  29.760  0.00  0.00    +0.060 A 
ATOM      4  C   UNL A   1     -23.819   0.107  31.119  0.00  0.00    +0.080 A 
ATOM      5  C   UNL A   1     -24.197   1.447  31.361  0.00  0.00    +0.007 A 
ATOM      6  C   UNL A   1     -24.656   2.284  30.377  0.00  0.00    +0.005 A 
ENDROOT
BRANCH   3   7
ATOM      7  C   UNL A   1     -23.487  -1.699  29.472  0.00  0.00    +0.249 C 
ATOM      8  O   UNL A   1     -22.426  -1.849  28.773  0.00  0.00    -0.270 OA
ATOM      9  N   UNL A   1     -24.389  -2.683  29.434  0.00  0.00    -0.276 N 
ATOM     10  C   UNL A   1     -25.714  -2.690  29.905  0.00  0.00    +0.094 C 
ATOM     11  C   UNL A   1     -23.967  -4.073  29.040  0.00  0.00    +0.094 C 
ATOM     12  C   UNL A   1     -24.736  -4.998  29.155  0.00  0.00    +0.022 C 
ATOM     13  C   UNL A   1     -26.080  -4.941  29.484  0.00  0.00    +0.004 C 
ATOM     14  C   UNL A   1     -26.543  -3.706  29.793  0.00  0.00    +0.022 C 
ENDBRANCH   3   7
BRANCH   1  15
ATOM     15  C   UNL A   1     -25.214   2.655  28.208  0.00  0.00    +0.252 C 
ATOM     16  N   UNL A   1     -26.520   2.414  27.597  0.00  0.00    -0.233 N 
ATOM     17  O   UNL A   1     -24.900   3.883  28.142  0.00  0.00    -0.270 OA
ATOM     18  C   UNL A   1     -27.145   1.066  27.667  0.00  0.00    +0.119 C 
BRANCH  16  19
ATOM     19  C   UNL A   1     -27.160   3.250  26.587  0.00  0.00    +0.349 C 
ATOM     20  C   UNL A   1     -28.426   3.723  26.939  0.00  0.00    +0.383 C 
ATOM     21  O   UNL A   1     -29.175   4.289  26.117  0.00  0.00    -0.417 OA
ATOM     22  O   UNL A   1     -28.854   3.743  28.193  0.00  0.00    -0.244 OA
ATOM     23  C   UNL A   1     -29.230   3.837  24.925  0.00  0.00    +0.182 A 
ATOM     24  C   UNL A   1     -30.497   3.800  24.449  0.00  0.00    +0.038 A 
ATOM     25  C   UNL A   1     -30.903   2.760  23.731  0.00  0.00    +0.000 A 
ATOM     26  C   UNL A   1     -29.930   1.843  23.150  0.00  0.00    +0.001 A 
ATOM     27  C   UNL A   1     -28.655   1.920  23.667  0.00  0.00    +0.040 A 
ATOM     28  C   UNL A   1     -28.352   2.846  24.534  0.00  0.00    +0.175 A 
ATOM     29  O   UNL A   1     -27.081   2.787  25.159  0.00  0.00    -0.448 OA
BRANCH  25  30
ATOM     30  C   UNL A   1     -32.275   2.632  23.128  0.00  0.00    +0.136 C 
ATOM     31  N   UNL A   1     -32.567   2.313  22.097  0.00  0.00    -0.126 NA
ENDBRANCH  25  30
ENDBRANCH  16  19
ENDBRANCH   1  15
BRANCH   4  32
ATOM     32  C   UNL A   1     -23.339  -0.727  32.181  0.00  0.00    +0.342 C 
ATOM     33  O   UNL A   1     -22.412  -1.097  32.366  0.00  0.00    -0.245 OA
BRANCH  32  34
ATOM     34  O   UNL A   1     -24.413  -1.172  33.021  0.00  0.00    -0.441 OA
ATOM     35  C   UNL A   1     -24.304  -1.055  34.352  0.00  0.00    +0.256 C 
ENDBRANCH  32  34
ENDBRANCH   4  32
TORSDOF 6
ENDMDL
ENDMDL
