MODEL 756
MODEL 1
REMARK VINA RESULT:    -4.444      0.000      0.000
REMARK INTER + INTRA:          -4.444
REMARK INTER:                  -4.444
REMARK INTRA:                   0.000
REMARK UNBOUND:                 0.000
REMARK  Name = No_756-gen_results/8p0m/2024-11-26-14-13-15/
REMARK  0 active torsions:
REMARK  status: ('A' for Active; 'I' for Inactive)
REMARK                            x       y       z     vdW  Elec       q    Type
REMARK                         _______ _______ _______ _____ _____    ______ ____
ROOT
ATOM      1  C   UNL A   1     -24.032  -4.146  28.776  0.00  0.00    +0.011 A 
ATOM      2  C   UNL A   1     -24.254  -3.011  29.130  0.00  0.00    +0.058 A 
ATOM      3  C   UNL A   1     -25.415  -2.610  29.706  0.00  0.00    +0.011 A 
ATOM      4  C   UNL A   1     -26.428  -3.567  29.905  0.00  0.00    +0.001 A 
ATOM      5  C   UNL A   1     -24.986  -5.195  29.036  0.00  0.00    +0.001 A 
ATOM      6  C   UNL A   1     -26.180  -4.838  29.585  0.00  0.00    +0.000 A 
ATOM      7 CL   UNL A   1     -23.064  -1.754  28.939  0.00  0.00    -0.082 Cl
ENDROOT
TORSDOF 0
ENDMDL
ENDMDL
