MODEL 757
MODEL 1
REMARK VINA RESULT:    -4.730      0.000      0.000
REMARK INTER + INTRA:          -5.398
REMARK INTER:                  -5.283
REMARK INTRA:                  -0.115
REMARK UNBOUND:                -0.115
REMARK  Name = No_757-gen_results/8p0m/2024-11-26-14-13-15/
REMARK  2 active torsions:
REMARK  status: ('A' for Active; 'I' for Inactive)
REMARK    1  A    between atoms: C_1  and  C_2
REMARK    2  A    between atoms: C_1  and  C_8
REMARK                            x       y       z     vdW  Elec       q    Type
REMARK                         _______ _______ _______ _____ _____    ______ ____
ROOT
ATOM      1  C   UNL A   1     -25.043  -2.521  29.436  0.00  0.00    -0.021 A 
ATOM      2  C   UNL A   1     -26.132  -3.292  29.793  0.00  0.00    -0.004 A 
ATOM      3  C   UNL A   1     -26.097  -4.680  29.677  0.00  0.00    -0.000 A 
ATOM      4  C   UNL A   1     -25.029  -5.371  28.971  0.00  0.00    -0.000 A 
ATOM      5  C   UNL A   1     -23.956  -4.565  28.558  0.00  0.00    -0.000 A 
ATOM      6  C   UNL A   1     -23.969  -3.237  28.857  0.00  0.00    -0.004 A 
ENDROOT
BRANCH   1   7
ATOM      7  C   UNL A   1     -24.803  -1.438  29.918  0.00  0.00    +0.047 C 
BRANCH   7   8
ATOM      8  C   UNL A   1     -23.860  -1.558  31.096  0.00  0.00    +0.114 C 
ATOM      9  N   UNL A   1     -22.860  -0.700  31.234  0.00  0.00    -0.131 NA
ENDBRANCH   7   8
ENDBRANCH   1   7
TORSDOF 2
ENDMDL
ENDMDL
