MODEL 758
MODEL 1
REMARK VINA RESULT:    -6.326      0.000      0.000
REMARK INTER + INTRA:          -8.264
REMARK INTER:                  -7.805
REMARK INTRA:                  -0.459
REMARK UNBOUND:                -0.459
REMARK  Name = No_758-gen_results/8p0m/2024-11-26-14-13-15/
REMARK  4 active torsions:
REMARK  status: ('A' for Active; 'I' for Inactive)
REMARK    1  A    between atoms: C_3  and  C_10
REMARK    2  A    between atoms: C_5  and  C_7
REMARK    3  A    between atoms: C_11  and  C_12
REMARK    4  A    between atoms: C_13  and  C_14
REMARK                            x       y       z     vdW  Elec       q    Type
REMARK                         _______ _______ _______ _____ _____    ______ ____
ROOT
ATOM      1  C   UNL A   1     -24.443  -4.731  28.739  0.00  0.00    +0.000 A 
ATOM      2  C   UNL A   1     -23.871  -3.687  28.951  0.00  0.00    +0.000 A 
ATOM      3  C   UNL A   1     -24.439  -2.575  29.549  0.00  0.00    +0.000 A 
ATOM      4  C   UNL A   1     -25.797  -2.687  29.971  0.00  0.00    +0.007 A 
ATOM      5  C   UNL A   1     -26.358  -3.903  29.868  0.00  0.00    +0.080 A 
ATOM      6  C   UNL A   1     -25.729  -4.908  29.331  0.00  0.00    +0.007 A 
ENDROOT
BRANCH   5   7
ATOM      7  C   UNL A   1     -27.760  -3.985  30.349  0.00  0.00    +0.388 C 
ATOM      8  O   UNL A   1     -28.262  -4.985  30.798  0.00  0.00    -0.241 OA
ATOM      9  O   UNL A   1     -28.571  -2.989  30.123  0.00  0.00    -0.241 OA
ENDBRANCH   5   7
BRANCH   3  10
ATOM     10  C   UNL A   1     -23.717  -1.230  29.599  0.00  0.00    +0.000 C 
ATOM     11  C   UNL A   1     -22.795  -0.948  28.675  0.00  0.00    +0.000 C 
BRANCH  11  12
ATOM     12  C   UNL A   1     -22.048   0.322  28.821  0.00  0.00    +0.000 C 
ATOM     13  C   UNL A   1     -22.268   1.411  27.946  0.00  0.00    +0.000 C 
BRANCH  13  14
ATOM     14  C   UNL A   1     -23.285   1.330  26.998  0.00  0.00    +0.000 C 
ATOM     15  C   UNL A   1     -23.252   2.084  25.799  0.00  0.00    +0.000 C 
ENDBRANCH  13  14
ENDBRANCH  11  12
ENDBRANCH   3  10
TORSDOF 4
ENDMDL
ENDMDL
