MODEL 759
MODEL 1
REMARK VINA RESULT:    -5.349      0.000      0.000
REMARK INTER + INTRA:          -5.887
REMARK INTER:                  -5.662
REMARK INTRA:                  -0.225
REMARK UNBOUND:                -0.225
REMARK  Name = No_759-gen_results/8p0m/2024-11-26-14-13-15/
REMARK  1 active torsions:
REMARK  status: ('A' for Active; 'I' for Inactive)
REMARK    1  A    between atoms: C_3  and  C_4
REMARK                            x       y       z     vdW  Elec       q    Type
REMARK                         _______ _______ _______ _____ _____    ______ ____
ROOT
ATOM      1  C   UNL A   1      -8.444  -9.596  19.621  0.00  0.00    +0.004 A 
ATOM      2  C   UNL A   1      -7.735  -8.894  19.961  0.00  0.00    -0.000 A 
ATOM      3  C   UNL A   1      -8.721  -9.635  18.237  0.00  0.00    +0.071 A 
ATOM      4  C   UNL A   1      -6.944  -7.883  19.238  0.00  0.00    -0.000 A 
ATOM      5  C   UNL A   1      -7.169  -7.862  17.861  0.00  0.00    -0.000 A 
ATOM      6  C   UNL A   1      -8.024  -8.764  17.316  0.00  0.00    +0.004 A 
ENDROOT
BRANCH   3   7
ATOM      7  C   UNL A   1      -9.608 -10.633  17.583  0.00  0.00    +0.419 C 
ATOM      8  F   UNL A   1     -10.677 -10.499  18.037  0.00  0.00    -0.166 F 
ATOM      9  F   UNL A   1      -9.176 -11.862  17.969  0.00  0.00    -0.166 F 
ATOM     10  F   UNL A   1      -9.582 -10.551  16.231  0.00  0.00    -0.166 F 
ENDBRANCH   3   7
TORSDOF 1
ENDMDL
ENDMDL
