REMARK  Name = No_76-gen_results/8p0m/2024-11-26-14-13-15/
REMARK  0 active torsions:
REMARK  status: ('A' for Active; 'I' for Inactive)
REMARK                            x       y       z     vdW  Elec       q    Type
REMARK                         _______ _______ _______ _____ _____    ______ ____
ROOT
ATOM      1  O   UNL A   1     -28.123  -1.335  28.487  0.00  0.00    -0.272 OA
ATOM      2  C   UNL A   1     -27.481  -0.404  28.709  0.00  0.00    +0.258 C 
ATOM      3  C   UNL A   1     -26.380  -0.087  27.939  0.00  0.00    +0.160 C 
ATOM      4  N   UNL A   1     -27.899   0.646  29.632  0.00  0.00    -0.203 NA
ATOM      5  N   UNL A   1     -25.448   0.723  28.509  0.00  0.00    -0.265 NA
ATOM      6  C   UNL A   1     -24.196   0.977  28.060  0.00  0.00    +0.072 C 
ATOM      7  C   UNL A   1     -23.230   1.510  28.930  0.00  0.00    +0.017 C 
ATOM      8  C   UNL A   1     -27.047   1.590  30.104  0.00  0.00    +0.131 C 
ATOM      9  C   UNL A   1     -25.483   1.335  29.902  0.00  0.00    +0.080 C 
ATOM     10  C   UNL A   1     -23.411   1.961  30.118  0.00  0.00    +0.003 C 
ATOM     11  C   UNL A   1     -24.651   1.949  30.582  0.00  0.00    +0.018 C 
ENDROOT
TORSDOF 0
