REMARK  Name = No_760-gen_results/8p0m/2024-11-26-14-13-15/
REMARK  6 active torsions:
REMARK  status: ('A' for Active; 'I' for Inactive)
REMARK    1  A    between atoms: C_1  and  C_2
REMARK    2  A    between atoms: C_1  and  CA_8
REMARK    3  A    between atoms: C_5  and  C_10
REMARK    4  A    between atoms: CA_8  and  C_9
REMARK    5  A    between atoms: CA_8  and  N_16
REMARK    6  A    between atoms: N_16  and  C_17
REMARK                            x       y       z     vdW  Elec       q    Type
REMARK                         _______ _______ _______ _____ _____    ______ ____
ROOT
ATOM      1  C   UNL A   1     -27.064  -0.119  28.608  0.00  0.00    -0.020 A 
ATOM      2  C   UNL A   1     -26.972   0.714  27.506  0.00  0.00    -0.004 A 
ATOM      3  C   UNL A   1     -25.820   1.491  27.116  0.00  0.00    +0.004 A 
ATOM      4  C   UNL A   1     -24.656   1.424  27.918  0.00  0.00    +0.071 A 
ATOM      5  C   UNL A   1     -24.685   0.590  29.066  0.00  0.00    +0.004 A 
ATOM      6  C   UNL A   1     -25.810  -0.127  29.334  0.00  0.00    -0.004 A 
ENDROOT
BRANCH   4   7
ATOM      7  C   UNL A   1     -23.461   2.194  27.601  0.00  0.00    +0.419 C 
ATOM      8  F   UNL A   1     -22.563   2.066  28.371  0.00  0.00    -0.166 F 
ATOM      9  F   UNL A   1     -23.709   3.499  27.459  0.00  0.00    -0.166 F 
ATOM     10  F   UNL A   1     -22.985   1.790  26.353  0.00  0.00    -0.166 F 
ENDBRANCH   4   7
BRANCH   1  11
ATOM     11  C   UNL A   1     -28.016  -0.814  28.878  0.00  0.00    +0.059 C 
BRANCH  11  12
ATOM     12  CA  UNL A   1     -29.244  -0.077  29.201  0.00  0.00    +0.199 C 
BRANCH  12  13
ATOM     13  C   UNL A   1     -30.371  -0.803  29.689  0.00  0.00    +0.384 C 
ATOM     14  O   UNL A   1     -31.405  -0.805  29.133  0.00  0.00    -0.244 OA
ATOM     15  OXT UNL A   1     -30.228  -1.527  30.799  0.00  0.00    -0.244 OA
ENDBRANCH  12  13
BRANCH  12  16
ATOM     16  N   UNL A   1     -28.949   1.015  30.102  0.00  0.00    -0.227 NA
BRANCH  16  17
ATOM     17  C   UNL A   1     -29.055   2.318  29.712  0.00  0.00    +0.076 C 
ATOM     18  C   UNL A   1     -29.701   2.738  28.648  0.00  0.00    -0.008 C 
ATOM     19  C   UNL A   1     -29.628   4.105  28.297  0.00  0.00    +0.032 C 
ENDBRANCH  16  17
ENDBRANCH  12  16
ENDBRANCH  11  12
ENDBRANCH   1  11
TORSDOF 6
