MODEL 760
MODEL 1
REMARK VINA RESULT:    -6.427      0.000      0.000
REMARK INTER + INTRA:          -9.622
REMARK INTER:                  -8.682
REMARK INTRA:                  -0.940
REMARK UNBOUND:                -0.940
REMARK  Name = No_760-gen_results/8p0m/2024-11-26-14-13-15/
REMARK  6 active torsions:
REMARK  status: ('A' for Active; 'I' for Inactive)
REMARK    1  A    between atoms: C_1  and  C_2
REMARK    2  A    between atoms: C_1  and  CA_8
REMARK    3  A    between atoms: C_5  and  C_10
REMARK    4  A    between atoms: CA_8  and  C_9
REMARK    5  A    between atoms: CA_8  and  N_16
REMARK    6  A    between atoms: N_16  and  C_17
REMARK                            x       y       z     vdW  Elec       q    Type
REMARK                         _______ _______ _______ _____ _____    ______ ____
ROOT
ATOM      1  C   UNL A   1     -10.357   0.678  36.914  0.00  0.00    -0.020 A 
ATOM      2  C   UNL A   1     -11.162   1.034  37.982  0.00  0.00    -0.004 A 
ATOM      3  C   UNL A   1     -11.770   0.134  38.932  0.00  0.00    +0.004 A 
ATOM      4  C   UNL A   1     -11.549  -1.256  38.783  0.00  0.00    +0.071 A 
ATOM      5  C   UNL A   1     -10.735  -1.690  37.705  0.00  0.00    +0.004 A 
ATOM      6  C   UNL A   1     -10.182  -0.760  36.879  0.00  0.00    -0.004 A 
ENDROOT
BRANCH   4   7
ATOM      7  C   UNL A   1     -12.145  -2.228  39.689  0.00  0.00    +0.419 C 
ATOM      8  F   UNL A   1     -12.639  -3.172  39.158  0.00  0.00    -0.166 F 
ATOM      9  F   UNL A   1     -13.052  -1.686  40.507  0.00  0.00    -0.166 F 
ATOM     10  F   UNL A   1     -11.153  -2.716  40.540  0.00  0.00    -0.166 F 
ENDBRANCH   4   7
BRANCH   1  11
ATOM     11  C   UNL A   1      -9.802   1.453  36.171  0.00  0.00    +0.059 C 
BRANCH  11  12
ATOM     12  CA  UNL A   1      -9.726   1.018  34.771  0.00  0.00    +0.199 C 
BRANCH  12  13
ATOM     13  C   UNL A   1     -10.653   1.561  33.833  0.00  0.00    +0.384 C 
ATOM     14  O   UNL A   1     -11.375   2.447  34.104  0.00  0.00    -0.244 OA
ATOM     15  OXT UNL A   1     -10.673   1.062  32.597  0.00  0.00    -0.244 OA
ENDBRANCH  12  13
BRANCH  12  16
ATOM     16  N   UNL A   1      -8.380   1.183  34.268  0.00  0.00    -0.227 NA
BRANCH  16  17
ATOM     17  C   UNL A   1      -7.396   0.277  34.534  0.00  0.00    +0.076 C 
ATOM     18  C   UNL A   1      -7.457  -1.006  34.259  0.00  0.00    -0.008 C 
ATOM     19  C   UNL A   1      -6.413  -1.852  34.699  0.00  0.00    +0.032 C 
ENDBRANCH  16  17
ENDBRANCH  12  16
ENDBRANCH  11  12
ENDBRANCH   1  11
TORSDOF 6
ENDMDL
ENDMDL
