REMARK  Name = No_761-gen_results/8p0m/2024-11-26-14-13-15/
REMARK  5 active torsions:
REMARK  status: ('A' for Active; 'I' for Inactive)
REMARK    1  A    between atoms: C_4  and  C_5
REMARK    2  A    between atoms: C_6  and  O_9
REMARK    3  A    between atoms: O_9  and  C_10
REMARK    4  A    between atoms: C_10  and  C_11
REMARK    5  A    between atoms: C_14  and  C_15
REMARK                            x       y       z     vdW  Elec       q    Type
REMARK                         _______ _______ _______ _____ _____    ______ ____
ROOT
ATOM      1  C   UNL A   1     -30.200  -4.665  30.261  0.00  0.00    +0.021 A 
ATOM      2  C   UNL A   1     -30.889  -4.317  29.181  0.00  0.00    -0.005 A 
ATOM      3  C   UNL A   1     -32.300  -4.546  29.374  0.00  0.00    -0.023 A 
ATOM      4  C   UNL A   1     -33.189  -3.622  28.889  0.00  0.00    +0.037 C 
ATOM      5  C   UNL A   1     -30.525  -5.094  31.393  0.00  0.00    -0.001 A 
ATOM      6  C   UNL A   1     -31.741  -5.923  31.431  0.00  0.00    -0.005 A 
ATOM      7  C   UNL A   1     -32.680  -5.654  30.224  0.00  0.00    -0.026 A 
ATOM      8  C   UNL A   1     -34.567  -4.209  28.949  0.00  0.00    +0.008 C 
ATOM      9  C   UNL A   1     -32.862  -3.517  27.348  0.00  0.00    +0.008 C 
ATOM     10  C   UNL A   1     -35.403  -4.383  27.937  0.00  0.00    +0.001 C 
ATOM     11  C   UNL A   1     -33.719  -3.816  26.316  0.00  0.00    +0.001 C 
ATOM     12  C   UNL A   1     -35.003  -4.202  26.642  0.00  0.00    +0.000 C 
ATOM     13  C   UNL A   1     -34.982  -4.692  30.280  0.00  0.00    +0.005 C 
ATOM     14  C   UNL A   1     -34.071  -5.253  30.919  0.00  0.00    +0.026 C 
ENDROOT
BRANCH   4  15
ATOM     15  C   UNL A   1     -33.133  -2.507  29.578  0.00  0.00    -0.019 A 
ATOM     16  C   UNL A   1     -33.489  -1.324  29.240  0.00  0.00    -0.004 A 
ATOM     17  C   UNL A   1     -33.132  -0.378  29.283  0.00  0.00    -0.000 A 
ATOM     18  C   UNL A   1     -32.091   0.008  30.347  0.00  0.00    -0.000 A 
ATOM     19  C   UNL A   1     -31.620  -1.194  30.938  0.00  0.00    -0.000 A 
ATOM     20  C   UNL A   1     -32.014  -2.415  30.474  0.00  0.00    -0.004 A 
ENDBRANCH   4  15
BRANCH   1  21
ATOM     21  C   UNL A   1     -28.907  -3.939  30.600  0.00  0.00    +0.232 C 
BRANCH  21  22
ATOM     22  O   UNL A   1     -29.005  -2.657  30.199  0.00  0.00    -0.471 OA
BRANCH  22  27
ATOM     23  C   UNL A   1     -28.016  -0.814  28.878  0.00  0.00    +0.037 A 
ATOM     24  C   UNL A   1     -27.064  -0.119  28.608  0.00  0.00    +0.003 A 
ATOM     25  C   UNL A   1     -25.765  -0.390  29.036  0.00  0.00    -0.004 A 
ATOM     26  C   UNL A   1     -25.530  -1.530  29.901  0.00  0.00    -0.019 A 
ATOM     27  C   UNL A   1     -27.927  -1.923  29.790  0.00  0.00    +0.139 A 
ATOM     28  C   UNL A   1     -26.691  -2.281  30.295  0.00  0.00    +0.033 A 
BRANCH  26  29
ATOM     29  C   UNL A   1     -24.324  -1.908  30.432  0.00  0.00    +0.026 C 
ATOM     30  C   UNL A   1     -23.281  -2.039  29.481  0.00  0.00    +0.005 C 
ENDBRANCH  26  29
ENDBRANCH  22  27
ENDBRANCH  21  22
ENDBRANCH   1  21
TORSDOF 5
