MODEL 761
MODEL 1
REMARK VINA RESULT:   -10.062      0.000      0.000
REMARK INTER + INTRA:         -14.131
REMARK INTER:                 -13.004
REMARK INTRA:                  -1.127
REMARK UNBOUND:                -1.127
REMARK  Name = No_761-gen_results/8p0m/2024-11-26-14-13-15/
REMARK  5 active torsions:
REMARK  status: ('A' for Active; 'I' for Inactive)
REMARK    1  A    between atoms: C_4  and  C_5
REMARK    2  A    between atoms: C_6  and  O_9
REMARK    3  A    between atoms: O_9  and  C_10
REMARK    4  A    between atoms: C_10  and  C_11
REMARK    5  A    between atoms: C_14  and  C_15
REMARK                            x       y       z     vdW  Elec       q    Type
REMARK                         _______ _______ _______ _____ _____    ______ ____
ROOT
ATOM      1  C   UNL A   1     -22.788   0.307  29.455  0.00  0.00    +0.021 A 
ATOM      2  C   UNL A   1     -23.629   1.296  29.177  0.00  0.00    -0.005 A 
ATOM      3  C   UNL A   1     -23.310   1.901  27.907  0.00  0.00    -0.023 A 
ATOM      4  C   UNL A   1     -24.337   2.268  27.076  0.00  0.00    +0.037 C 
ATOM      5  C   UNL A   1     -21.834  -0.218  28.834  0.00  0.00    -0.001 A 
ATOM      6  C   UNL A   1     -21.083   0.685  27.947  0.00  0.00    -0.005 A 
ATOM      7  C   UNL A   1     -21.917   1.922  27.515  0.00  0.00    -0.026 A 
ATOM      8  C   UNL A   1     -23.780   3.120  25.976  0.00  0.00    +0.008 C 
ATOM      9  C   UNL A   1     -25.222   3.250  27.939  0.00  0.00    +0.008 C 
ATOM     10  C   UNL A   1     -24.135   4.359  25.671  0.00  0.00    +0.001 C 
ATOM     11  C   UNL A   1     -25.480   4.570  27.653  0.00  0.00    +0.001 C 
ATOM     12  C   UNL A   1     -24.961   5.085  26.484  0.00  0.00    +0.000 C 
ATOM     13  C   UNL A   1     -22.676   2.509  25.212  0.00  0.00    +0.005 C 
ATOM     14  C   UNL A   1     -21.882   1.851  25.911  0.00  0.00    +0.026 C 
ENDROOT
BRANCH   4  15
ATOM     15  C   UNL A   1     -24.942   1.215  26.581  0.00  0.00    -0.019 A 
ATOM     16  C   UNL A   1     -24.662   0.535  25.532  0.00  0.00    -0.004 A 
ATOM     17  C   UNL A   1     -25.137   0.135  24.733  0.00  0.00    -0.000 A 
ATOM     18  C   UNL A   1     -26.635  -0.201  24.811  0.00  0.00    -0.000 A 
ATOM     19  C   UNL A   1     -27.144   0.395  25.995  0.00  0.00    -0.000 A 
ATOM     20  C   UNL A   1     -26.365   1.196  26.778  0.00  0.00    -0.004 A 
ENDBRANCH   4  15
BRANCH   1  21
ATOM     21  C   UNL A   1     -23.259  -0.874  30.290  0.00  0.00    +0.232 C 
BRANCH  21  22
ATOM     22  O   UNL A   1     -24.485  -1.245  29.874  0.00  0.00    -0.471 OA
BRANCH  22  27
ATOM     23  C   UNL A   1     -23.934  -3.466  28.934  0.00  0.00    +0.037 A 
ATOM     24  C   UNL A   1     -24.209  -4.634  28.789  0.00  0.00    +0.003 A 
ATOM     25  C   UNL A   1     -25.447  -5.182  29.124  0.00  0.00    -0.004 A 
ATOM     26  C   UNL A   1     -26.453  -4.334  29.734  0.00  0.00    -0.019 A 
ATOM     27  C   UNL A   1     -24.814  -2.543  29.599  0.00  0.00    +0.139 A 
ATOM     28  C   UNL A   1     -26.067  -2.973  29.993  0.00  0.00    +0.033 A 
BRANCH  26  29
ATOM     29  C   UNL A   1     -27.699  -4.727  30.150  0.00  0.00    +0.026 C 
ATOM     30  C   UNL A   1     -28.397  -3.753  30.907  0.00  0.00    +0.005 C 
ENDBRANCH  26  29
ENDBRANCH  22  27
ENDBRANCH  21  22
ENDBRANCH   1  21
TORSDOF 5
ENDMDL
ENDMDL
