MODEL 762
MODEL 1
REMARK VINA RESULT:    -6.528      0.000      0.000
REMARK INTER + INTRA:          -7.244
REMARK INTER:                  -6.909
REMARK INTRA:                  -0.334
REMARK UNBOUND:                -0.334
REMARK  Name = No_762-gen_results/8p0m/2024-11-26-14-13-15/
REMARK  1 active torsions:
REMARK  status: ('A' for Active; 'I' for Inactive)
REMARK    1  A    between atoms: C_3  and  C_7
REMARK                            x       y       z     vdW  Elec       q    Type
REMARK                         _______ _______ _______ _____ _____    ______ ____
ROOT
ATOM      1  C   UNL A   1     -26.478  -3.684  29.844  0.00  0.00    +0.000 A 
ATOM      2  C   UNL A   1     -25.910  -2.635  29.644  0.00  0.00    +0.000 A 
ATOM      3  C   UNL A   1     -24.666  -2.539  29.024  0.00  0.00    +0.000 A 
ATOM      4  C   UNL A   1     -23.970  -3.753  28.642  0.00  0.00    +0.000 A 
ATOM      5  C   UNL A   1     -24.690  -4.938  28.916  0.00  0.00    +0.000 A 
ATOM      6  C   UNL A   1     -25.856  -4.930  29.510  0.00  0.00    +0.000 A 
ENDROOT
BRANCH   3   7
ATOM      7  C   UNL A   1     -23.916  -1.288  28.735  0.00  0.00    +0.000 A 
ATOM      8  C   UNL A   1     -24.361  -0.398  27.885  0.00  0.00    +0.000 A 
ATOM      9  C   UNL A   1     -23.582   0.712  27.537  0.00  0.00    +0.000 A 
ATOM     10  C   UNL A   1     -22.299   0.918  27.986  0.00  0.00    +0.000 A 
ATOM     11  C   UNL A   1     -22.550  -1.148  29.213  0.00  0.00    +0.000 A 
ATOM     12  C   UNL A   1     -21.773  -0.018  28.833  0.00  0.00    +0.000 A 
ENDBRANCH   3   7
TORSDOF 1
ENDMDL
ENDMDL
