REMARK  Name = No_764-gen_results/8p0m/2024-11-26-14-13-15/
REMARK  0 active torsions:
REMARK  status: ('A' for Active; 'I' for Inactive)
REMARK                            x       y       z     vdW  Elec       q    Type
REMARK                         _______ _______ _______ _____ _____    ______ ____
ROOT
ATOM      1  C   UNL A   1     -28.016  -0.814  28.878  0.00  0.00    +0.044 A 
ATOM      2  C   UNL A   1     -27.064  -0.119  28.608  0.00  0.00    +0.152 A 
ATOM      3  C   UNL A   1     -26.876   1.133  28.913  0.00  0.00    +0.087 A 
ATOM      4  C   UNL A   1     -27.901   1.807  29.644  0.00  0.00    +0.044 A 
ATOM      5  C   UNL A   1     -29.046  -0.232  29.718  0.00  0.00    +0.087 A 
ATOM      6  C   UNL A   1     -28.940   1.052  30.060  0.00  0.00    +0.152 A 
ATOM      7  F   UNL A   1     -26.021  -0.677  27.877  0.00  0.00    -0.203 F 
ATOM      8  F   UNL A   1     -29.912   1.596  30.799  0.00  0.00    -0.203 F 
ATOM      9 CL   UNL A   1     -25.492   2.078  28.377  0.00  0.00    -0.080 Cl
ATOM     10 CL   UNL A   1     -30.346  -1.307  30.245  0.00  0.00    -0.080 Cl
ENDROOT
TORSDOF 0
