MODEL 764
MODEL 1
REMARK VINA RESULT:    -4.698      0.000      0.000
REMARK INTER + INTRA:          -4.698
REMARK INTER:                  -4.698
REMARK INTRA:                   0.000
REMARK UNBOUND:                 0.000
REMARK  Name = No_764-gen_results/8p0m/2024-11-26-14-13-15/
REMARK  0 active torsions:
REMARK  status: ('A' for Active; 'I' for Inactive)
REMARK                            x       y       z     vdW  Elec       q    Type
REMARK                         _______ _______ _______ _____ _____    ______ ____
ROOT
ATOM      1  C   UNL A   1     -26.010  -2.382  30.184  0.00  0.00    +0.044 A 
ATOM      2  C   UNL A   1     -25.015  -1.771  29.869  0.00  0.00    +0.152 A 
ATOM      3  C   UNL A   1     -23.960  -2.224  29.256  0.00  0.00    +0.087 A 
ATOM      4  C   UNL A   1     -23.929  -3.608  28.905  0.00  0.00    +0.044 A 
ATOM      5  C   UNL A   1     -26.101  -3.766  29.759  0.00  0.00    +0.087 A 
ATOM      6  C   UNL A   1     -25.055  -4.314  29.141  0.00  0.00    +0.152 A 
ATOM      7  F   UNL A   1     -24.938  -0.420  30.188  0.00  0.00    -0.203 F 
ATOM      8  F   UNL A   1     -25.127  -5.601  28.788  0.00  0.00    -0.203 F 
ATOM      9 CL   UNL A   1     -22.520  -1.264  28.939  0.00  0.00    -0.080 Cl
ATOM     10 CL   UNL A   1     -27.628  -4.598  30.076  0.00  0.00    -0.080 Cl
ENDROOT
TORSDOF 0
ENDMDL
ENDMDL
