MODEL 765
MODEL 1
REMARK VINA RESULT:    -4.312      0.000      0.000
REMARK INTER + INTRA:          -4.312
REMARK INTER:                  -4.312
REMARK INTRA:                   0.000
REMARK UNBOUND:                 0.000
REMARK  Name = No_765-gen_results/8p0m/2024-11-26-14-13-15/
REMARK  0 active torsions:
REMARK  status: ('A' for Active; 'I' for Inactive)
REMARK                            x       y       z     vdW  Elec       q    Type
REMARK                         _______ _______ _______ _____ _____    ______ ____
ROOT
ATOM      1  C   UNL A   1     -26.118  -4.809  29.634  0.00  0.00    +0.000 A 
ATOM      2  C   UNL A   1     -26.124  -3.755  29.670  0.00  0.00    +0.000 A 
ATOM      3  C   UNL A   1     -24.954  -5.365  28.945  0.00  0.00    +0.000 A 
ATOM      4  C   UNL A   1     -24.056  -4.713  28.615  0.00  0.00    +0.000 A 
ATOM      5  C   UNL A   1     -25.165  -2.728  29.311  0.00  0.00    +0.000 A 
ATOM      6  C   UNL A   1     -24.029  -3.316  28.692  0.00  0.00    +0.000 A 
ENDROOT
TORSDOF 0
ENDMDL
ENDMDL
