REMARK  Name = No_766-gen_results/8p0m/2024-11-26-14-13-15/
REMARK  4 active torsions:
REMARK  status: ('A' for Active; 'I' for Inactive)
REMARK    1  A    between atoms: C_1  and  C_2
REMARK    2  A    between atoms: C_5  and  C_11
REMARK    3  A    between atoms: C_20  and  C_22
REMARK    4  A    between atoms: C_24  and  C_29
REMARK                            x       y       z     vdW  Elec       q    Type
REMARK                         _______ _______ _______ _____ _____    ______ ____
ROOT
ATOM      1  C   UNL A   1     -28.016  -0.814  28.878  0.00  0.00    +0.255 C 
ATOM      2  N   UNL A   1     -29.188  -0.147  29.092  0.00  0.00    -0.222 N 
ATOM      3  C   UNL A   1     -29.601   0.163  30.327  0.00  0.00    +0.110 C 
ATOM      4  C   UNL A   1     -30.047   0.027  27.984  0.00  0.00    +0.255 C 
ATOM      5  C   UNL A   1     -31.399  -0.307  28.196  0.00  0.00    +0.050 A 
ATOM      6  C   UNL A   1     -32.216   0.159  27.356  0.00  0.00    +0.004 A 
ATOM      7  C   UNL A   1     -33.613  -0.128  27.530  0.00  0.00    +0.000 A 
ATOM      8  C   UNL A   1     -34.035  -0.861  28.652  0.00  0.00    -0.000 A 
ATOM      9  C   UNL A   1     -33.093  -1.305  29.520  0.00  0.00    -0.004 A 
ATOM     10  C   UNL A   1     -31.763  -1.042  29.370  0.00  0.00    -0.012 A 
ATOM     11  C   UNL A   1     -30.982  -0.286  30.595  0.00  0.00    +0.065 C 
ATOM     12  O   UNL A   1     -29.532   0.315  26.917  0.00  0.00    -0.270 OA
ATOM     13  O   UNL A   1     -27.919  -1.947  29.410  0.00  0.00    -0.270 OA
ENDROOT
BRANCH   1  14
ATOM     14  C   UNL A   1     -27.064  -0.119  28.608  0.00  0.00    +0.054 A 
ATOM     15  C   UNL A   1     -25.792  -0.430  29.076  0.00  0.00    +0.005 A 
ATOM     16  C   UNL A   1     -24.546   0.349  28.823  0.00  0.00    +0.004 A 
ATOM     17  C   UNL A   1     -24.659   1.420  27.888  0.00  0.00    +0.048 A 
ATOM     18  C   UNL A   1     -25.947   1.681  27.379  0.00  0.00    +0.004 A 
ATOM     19  C   UNL A   1     -27.044   0.974  27.687  0.00  0.00    +0.005 A 
BRANCH  17  20
ATOM     20  C   UNL A   1     -23.467   2.167  27.616  0.00  0.00    +0.242 C 
ATOM     21  N   UNL A   1     -22.502   1.850  27.221  0.00  0.00    -0.116 NA
ATOM     22  F   UNL A   1     -23.717   3.489  27.601  0.00  0.00    -0.181 F 
ENDBRANCH  17  20
ENDBRANCH   1  14
BRANCH  11  23
ATOM     23  C   UNL A   1     -31.447  -0.590  31.935  0.00  0.00    -0.017 A 
ATOM     24  C   UNL A   1     -31.119  -1.621  32.646  0.00  0.00    -0.004 A 
ATOM     25  C   UNL A   1     -32.308   0.499  32.356  0.00  0.00    -0.002 A 
ATOM     26  C   UNL A   1     -32.831   0.374  33.687  0.00  0.00    -0.000 A 
ATOM     27  C   UNL A   1     -31.622  -1.717  33.966  0.00  0.00    -0.000 A 
ATOM     28  C   UNL A   1     -32.462  -0.700  34.471  0.00  0.00    -0.000 A 
BRANCH  25  29
ATOM     29  C   UNL A   1     -32.701   1.632  31.558  0.00  0.00    +0.017 A 
ATOM     30  C   UNL A   1     -32.542   2.786  31.843  0.00  0.00    +0.001 A 
ATOM     31  C   UNL A   1     -32.670   3.848  31.202  0.00  0.00    +0.000 A 
ATOM     32  C   UNL A   1     -33.232   3.692  29.867  0.00  0.00    +0.001 A 
ATOM     33  C   UNL A   1     -33.456   2.427  29.407  0.00  0.00    +0.018 A 
ATOM     34  C   UNL A   1     -33.152   1.367  30.263  0.00  0.00    +0.089 A 
ATOM     35  N   UNL A   1     -34.376   1.082  30.373  0.00  0.00    -0.128 NA
ENDBRANCH  25  29
ENDBRANCH  11  23
TORSDOF 4
