MODEL 766
MODEL 1
REMARK VINA RESULT:    -7.846      0.000      0.000
REMARK INTER + INTRA:         -11.527
REMARK INTER:                  -9.681
REMARK INTRA:                  -1.846
REMARK UNBOUND:                -1.846
REMARK  Name = No_766-gen_results/8p0m/2024-11-26-14-13-15/
REMARK  4 active torsions:
REMARK  status: ('A' for Active; 'I' for Inactive)
REMARK    1  A    between atoms: C_1  and  C_2
REMARK    2  A    between atoms: C_5  and  C_11
REMARK    3  A    between atoms: C_20  and  C_22
REMARK    4  A    between atoms: C_24  and  C_29
REMARK                            x       y       z     vdW  Elec       q    Type
REMARK                         _______ _______ _______ _____ _____    ______ ____
ROOT
ATOM      1  C   UNL A   1     -24.978  -0.941  29.600  0.00  0.00    +0.255 C 
ATOM      2  N   UNL A   1     -24.839   0.240  28.928  0.00  0.00    -0.222 N 
ATOM      3  C   UNL A   1     -25.886   0.847  28.356  0.00  0.00    +0.110 C 
ATOM      4  C   UNL A   1     -23.524   0.696  28.683  0.00  0.00    +0.255 C 
ATOM      5  C   UNL A   1     -23.251   1.104  27.363  0.00  0.00    +0.050 A 
ATOM      6  C   UNL A   1     -22.224   1.820  27.213  0.00  0.00    +0.004 A 
ATOM      7  C   UNL A   1     -21.903   2.287  25.893  0.00  0.00    +0.000 A 
ATOM      8  C   UNL A   1     -22.766   1.989  24.825  0.00  0.00    -0.000 A 
ATOM      9  C   UNL A   1     -23.862   1.233  25.077  0.00  0.00    -0.004 A 
ATOM     10  C   UNL A   1     -24.181   0.781  26.323  0.00  0.00    -0.012 A 
ATOM     11  C   UNL A   1     -25.647   1.177  26.937  0.00  0.00    +0.065 C 
ATOM     12  O   UNL A   1     -22.712   0.571  29.584  0.00  0.00    -0.270 OA
ATOM     13  O   UNL A   1     -25.428  -1.906  28.935  0.00  0.00    -0.270 OA
ENDROOT
BRANCH   1  14
ATOM     14  C   UNL A   1     -25.090  -0.846  30.800  0.00  0.00    +0.054 A 
ATOM     15  C   UNL A   1     -24.050  -1.208  31.649  0.00  0.00    +0.005 A 
ATOM     16  C   UNL A   1     -24.068  -1.148  33.139  0.00  0.00    +0.004 A 
ATOM     17  C   UNL A   1     -25.205  -0.515  33.724  0.00  0.00    +0.048 A 
ATOM     18  C   UNL A   1     -26.222  -0.101  32.840  0.00  0.00    +0.004 A 
ATOM     19  C   UNL A   1     -26.170  -0.231  31.507  0.00  0.00    +0.005 A 
BRANCH  17  20
ATOM     20  C   UNL A   1     -25.230  -0.429  35.154  0.00  0.00    +0.242 C 
ATOM     21  N   UNL A   1     -26.065  -0.327  35.847  0.00  0.00    -0.116 NA
ATOM     22  F   UNL A   1     -24.055  -0.814  35.683  0.00  0.00    -0.181 F 
ENDBRANCH  17  20
ENDBRANCH   1  14
BRANCH  11  23
ATOM     23  C   UNL A   1     -26.731   1.293  25.980  0.00  0.00    -0.017 A 
ATOM     24  C   UNL A   1     -27.327   0.318  25.373  0.00  0.00    -0.004 A 
ATOM     25  C   UNL A   1     -27.064   2.701  25.866  0.00  0.00    -0.002 A 
ATOM     26  C   UNL A   1     -28.152   2.993  24.977  0.00  0.00    -0.000 A 
ATOM     27  C   UNL A   1     -28.416   0.620  24.519  0.00  0.00    -0.000 A 
ATOM     28  C   UNL A   1     -28.821   1.962  24.350  0.00  0.00    -0.000 A 
BRANCH  25  29
ATOM     29  C   UNL A   1     -26.384   3.793  26.515  0.00  0.00    +0.017 A 
ATOM     30  C   UNL A   1     -25.253   4.138  26.317  0.00  0.00    +0.001 A 
ATOM     31  C   UNL A   1     -24.594   5.138  26.664  0.00  0.00    +0.000 A 
ATOM     32  C   UNL A   1     -25.278   6.030  27.591  0.00  0.00    +0.001 A 
ATOM     33  C   UNL A   1     -26.580   5.761  27.900  0.00  0.00    +0.018 A 
ATOM     34  C   UNL A   1     -27.159   4.630  27.321  0.00  0.00    +0.089 A 
ATOM     35  N   UNL A   1     -27.224   4.065  28.447  0.00  0.00    -0.128 NA
ENDBRANCH  25  29
ENDBRANCH  11  23
TORSDOF 4
ENDMDL
ENDMDL
