MODEL 767
MODEL 1
REMARK VINA RESULT:    -4.981      0.000      0.000
REMARK INTER + INTRA:          -5.423
REMARK INTER:                  -5.272
REMARK INTRA:                  -0.151
REMARK UNBOUND:                -0.151
REMARK  Name = No_767-gen_results/8p0m/2024-11-26-14-13-15/
REMARK  1 active torsions:
REMARK  status: ('A' for Active; 'I' for Inactive)
REMARK    1  A    between atoms: C_5  and  C_8
REMARK                            x       y       z     vdW  Elec       q    Type
REMARK                         _______ _______ _______ _____ _____    ______ ____
ROOT
ATOM      1 CL   UNL A   1     -27.053  -4.511  29.971  0.00  0.00    -0.082 Cl
ATOM      2  C   UNL A   1     -26.063  -3.609  29.721  0.00  0.00    +0.058 A 
ATOM      3  C   UNL A   1     -26.079  -2.383  30.311  0.00  0.00    +0.011 A 
ATOM      4  C   UNL A   1     -25.005  -1.394  30.163  0.00  0.00    +0.005 A 
ATOM      5  C   UNL A   1     -23.861  -1.815  29.415  0.00  0.00    +0.071 A 
ATOM      6  C   UNL A   1     -23.817  -3.078  28.914  0.00  0.00    +0.005 A 
ATOM      7  C   UNL A   1     -24.840  -3.961  29.074  0.00  0.00    +0.011 A 
ENDROOT
BRANCH   5   8
ATOM      8  C   UNL A   1     -22.756  -0.847  29.276  0.00  0.00    +0.419 C 
ATOM      9  F   UNL A   1     -21.672  -1.416  28.936  0.00  0.00    -0.166 F 
ATOM     10  F   UNL A   1     -23.011   0.020  28.201  0.00  0.00    -0.166 F 
ATOM     11  F   UNL A   1     -22.570  -0.159  30.340  0.00  0.00    -0.166 F 
ENDBRANCH   5   8
TORSDOF 1
ENDMDL
ENDMDL
