REMARK  Name = No_768-gen_results/8p0m/2024-11-26-14-13-15/
REMARK  2 active torsions:
REMARK  status: ('A' for Active; 'I' for Inactive)
REMARK    1  A    between atoms: C_3  and  C_4
REMARK    2  A    between atoms: C_4  and  C_9
REMARK                            x       y       z     vdW  Elec       q    Type
REMARK                         _______ _______ _______ _____ _____    ______ ____
ROOT
ATOM      1  C   UNL A   1     -25.352  -2.252  28.547  0.00  0.00    +0.040 C 
ENDROOT
BRANCH   1   4
ATOM      2  O   UNL A   1     -28.123  -1.335  28.487  0.00  0.00    -0.273 OA
ATOM      3  C   UNL A   1     -27.064  -0.824  28.869  0.00  0.00    +0.241 C 
ATOM      4  C   UNL A   1     -25.946  -1.040  28.849  0.00  0.00    +0.083 C 
ATOM      5  N   UNL A   1     -27.257   0.621  29.484  0.00  0.00    -0.205 NA
ATOM      6  C   UNL A   1     -26.262   1.394  29.837  0.00  0.00    +0.115 C 
ATOM      7  C   UNL A   1     -24.955   0.904  29.815  0.00  0.00    +0.024 C 
ATOM      8  C   UNL A   1     -24.676  -0.288  29.392  0.00  0.00    +0.011 C 
ENDBRANCH   1   4
BRANCH   1   9
ATOM      9  C   UNL A   1     -25.725  -3.393  28.996  0.00  0.00    +0.032 A 
ATOM     10  C   UNL A   1     -25.122  -4.685  28.778  0.00  0.00    +0.169 A 
ATOM     11  C   UNL A   1     -26.815  -3.493  30.032  0.00  0.00    +0.099 A 
ATOM     12  N   UNL A   1     -27.266  -4.755  30.359  0.00  0.00    -0.223 NA
ATOM     13  N   UNL A   1     -25.575  -5.772  29.422  0.00  0.00    -0.206 NA
ATOM     14  C   UNL A   1     -26.579  -5.684  30.244  0.00  0.00    +0.200 A 
ATOM     15  N   UNL A   1     -23.939  -4.832  28.218  0.00  0.00    -0.107 NA
ENDBRANCH   1   9
TORSDOF 2
