MODEL 768
MODEL 1
REMARK VINA RESULT:    -5.949      0.000      0.000
REMARK INTER + INTRA:          -6.871
REMARK INTER:                  -6.645
REMARK INTRA:                  -0.227
REMARK UNBOUND:                -0.227
REMARK  Name = No_768-gen_results/8p0m/2024-11-26-14-13-15/
REMARK  2 active torsions:
REMARK  status: ('A' for Active; 'I' for Inactive)
REMARK    1  A    between atoms: C_3  and  C_4
REMARK    2  A    between atoms: C_4  and  C_9
REMARK                            x       y       z     vdW  Elec       q    Type
REMARK                         _______ _______ _______ _____ _____    ______ ____
ROOT
ATOM      1  C   UNL A   1     -12.398 -21.950  20.060  0.00  0.00    +0.040 C 
ENDROOT
BRANCH   1   4
ATOM      2  O   UNL A   1     -14.514 -19.942  19.936  0.00  0.00    -0.273 OA
ATOM      3  C   UNL A   1     -13.541 -20.201  19.218  0.00  0.00    +0.241 C 
ATOM      4  C   UNL A   1     -12.733 -20.996  19.115  0.00  0.00    +0.083 C 
ATOM      5  N   UNL A   1     -13.395 -19.214  17.990  0.00  0.00    -0.205 NA
ATOM      6  C   UNL A   1     -12.513 -19.375  17.036  0.00  0.00    +0.115 C 
ATOM      7  C   UNL A   1     -11.544 -20.374  17.142  0.00  0.00    +0.024 C 
ATOM      8  C   UNL A   1     -11.521 -21.205  18.135  0.00  0.00    +0.011 C 
ENDBRANCH   1   4
BRANCH   1   9
ATOM      9  C   UNL A   1     -11.606 -21.766  21.050  0.00  0.00    +0.032 A 
ATOM     10  C   UNL A   1     -11.926 -21.335  22.389  0.00  0.00    +0.169 A 
ATOM     11  C   UNL A   1     -10.162 -22.190  20.968  0.00  0.00    +0.099 A 
ATOM     12  N   UNL A   1      -9.334 -21.829  22.011  0.00  0.00    -0.223 NA
ATOM     13  N   UNL A   1     -10.984 -21.306  23.345  0.00  0.00    -0.206 NA
ATOM     14  C   UNL A   1      -9.759 -21.651  23.077  0.00  0.00    +0.200 A 
ATOM     15  N   UNL A   1     -13.163 -21.259  22.835  0.00  0.00    -0.107 NA
ENDBRANCH   1   9
TORSDOF 2
ENDMDL
ENDMDL
