REMARK  Name = No_769-gen_results/8p0m/2024-11-26-14-13-15/
REMARK  3 active torsions:
REMARK  status: ('A' for Active; 'I' for Inactive)
REMARK    1  A    between atoms: C_3  and  C_7
REMARK    2  A    between atoms: C_7  and  C_8
REMARK    3  A    between atoms: C_8  and  C_9
REMARK                            x       y       z     vdW  Elec       q    Type
REMARK                         _______ _______ _______ _____ _____    ______ ____
ROOT
ATOM      1  C   UNL A   1     -26.026   0.384  26.762  0.00  0.00    +0.033 C 
ENDROOT
BRANCH   1   2
ATOM      2  C   UNL A   1     -25.315   0.049  27.870  0.00  0.00    +0.006 A 
ATOM      3  C   UNL A   1     -23.881   0.056  27.833  0.00  0.00    -0.002 A 
ATOM      4  C   UNL A   1     -23.136  -0.372  29.000  0.00  0.00    -0.000 A 
ATOM      5  C   UNL A   1     -23.763  -1.202  29.925  0.00  0.00    +0.002 A 
ATOM      6  C   UNL A   1     -25.138  -1.278  29.922  0.00  0.00    +0.029 A 
ATOM      7  C   UNL A   1     -25.878  -0.762  28.941  0.00  0.00    +0.136 A 
ATOM      8  F   UNL A   1     -25.931  -1.878  28.451  0.00  0.00    -0.204 F 
ENDBRANCH   1   2
BRANCH   1   9
ATOM      9  C   UNL A   1     -27.459   0.493  26.770  0.00  0.00    +0.031 C 
BRANCH   9  12
ATOM     10  C   UNL A   1     -28.016  -0.814  28.878  0.00  0.00    -0.004 A 
ATOM     11  C   UNL A   1     -28.469  -0.785  29.829  0.00  0.00    -0.000 A 
ATOM     12  C   UNL A   1     -28.182   0.428  28.113  0.00  0.00    -0.022 A 
ATOM     13  C   UNL A   1     -28.984   1.415  28.515  0.00  0.00    -0.004 A 
ATOM     14  C   UNL A   1     -29.380   0.138  30.461  0.00  0.00    -0.000 A 
ATOM     15  C   UNL A   1     -29.541   1.274  29.724  0.00  0.00    -0.000 A 
ENDBRANCH   9  12
ENDBRANCH   1   9
TORSDOF 3
