MODEL 769
MODEL 1
REMARK VINA RESULT:    -7.135      0.000      0.000
REMARK INTER + INTRA:          -9.004
REMARK INTER:                  -8.387
REMARK INTRA:                  -0.617
REMARK UNBOUND:                -0.617
REMARK  Name = No_769-gen_results/8p0m/2024-11-26-14-13-15/
REMARK  3 active torsions:
REMARK  status: ('A' for Active; 'I' for Inactive)
REMARK    1  A    between atoms: C_3  and  C_7
REMARK    2  A    between atoms: C_7  and  C_8
REMARK    3  A    between atoms: C_8  and  C_9
REMARK                            x       y       z     vdW  Elec       q    Type
REMARK                         _______ _______ _______ _____ _____    ______ ____
ROOT
ATOM      1  C   UNL A   1     -23.207  -2.011  28.918  0.00  0.00    +0.033 C 
ENDROOT
BRANCH   1   2
ATOM      2  C   UNL A   1     -24.161  -2.890  29.321  0.00  0.00    +0.006 A 
ATOM      3  C   UNL A   1     -24.146  -4.240  28.838  0.00  0.00    -0.002 A 
ATOM      4  C   UNL A   1     -25.210  -5.146  29.220  0.00  0.00    -0.000 A 
ATOM      5  C   UNL A   1     -26.429  -4.610  29.628  0.00  0.00    +0.002 A 
ATOM      6  C   UNL A   1     -26.474  -3.292  30.023  0.00  0.00    +0.029 A 
ATOM      7  C   UNL A   1     -25.455  -2.455  29.829  0.00  0.00    +0.136 A 
ATOM      8  F   UNL A   1     -26.030  -2.054  28.830  0.00  0.00    -0.204 F 
ENDBRANCH   1   2
BRANCH   1   9
ATOM      9  C   UNL A   1     -23.295  -0.602  29.184  0.00  0.00    +0.031 C 
BRANCH   9  12
ATOM     10  C   UNL A   1     -22.189   1.315  27.933  0.00  0.00    -0.004 A 
ATOM     11  C   UNL A   1     -22.193   1.906  27.061  0.00  0.00    -0.000 A 
ATOM     12  C   UNL A   1     -23.301   0.359  27.998  0.00  0.00    -0.022 A 
ATOM     13  C   UNL A   1     -24.311   0.376  27.126  0.00  0.00    -0.004 A 
ATOM     14  C   UNL A   1     -23.163   2.112  26.013  0.00  0.00    -0.000 A 
ATOM     15  C   UNL A   1     -24.200   1.232  26.104  0.00  0.00    -0.000 A 
ENDBRANCH   9  12
ENDBRANCH   1   9
TORSDOF 3
ENDMDL
ENDMDL
