MODEL 76
MODEL 1
REMARK VINA RESULT:    -5.011      0.000      0.000
REMARK INTER + INTRA:          -5.011
REMARK INTER:                  -5.011
REMARK INTRA:                   0.000
REMARK UNBOUND:                 0.000
REMARK  Name = No_76-gen_results/8p0m/2024-11-26-14-13-15/
REMARK  0 active torsions:
REMARK  status: ('A' for Active; 'I' for Inactive)
REMARK                            x       y       z     vdW  Elec       q    Type
REMARK                         _______ _______ _______ _____ _____    ______ ____
ROOT
ATOM      1  O   UNL A   1     -12.176 -21.396  22.862  0.00  0.00    -0.272 OA
ATOM      2  C   UNL A   1     -12.584 -21.299  21.788  0.00  0.00    +0.258 C 
ATOM      3  C   UNL A   1     -11.863 -21.748  20.700  0.00  0.00    +0.160 C 
ATOM      4  N   UNL A   1     -13.968 -20.943  21.495  0.00  0.00    -0.203 NA
ATOM      5  N   UNL A   1     -12.182 -21.211  19.492  0.00  0.00    -0.265 NA
ATOM      6  C   UNL A   1     -11.478 -21.307  18.339  0.00  0.00    +0.072 C 
ATOM      7  C   UNL A   1     -11.715 -20.401  17.291  0.00  0.00    +0.017 C 
ATOM      8  C   UNL A   1     -14.382 -20.562  20.261  0.00  0.00    +0.131 C 
ATOM      9  C   UNL A   1     -13.256 -20.175  19.195  0.00  0.00    +0.080 C 
ATOM     10  C   UNL A   1     -12.664 -19.541  17.201  0.00  0.00    +0.003 C 
ATOM     11  C   UNL A   1     -13.540 -19.507  18.193  0.00  0.00    +0.018 C 
ENDROOT
TORSDOF 0
ENDMDL
ENDMDL
