REMARK  Name = No_77-gen_results/8p0m/2024-11-26-14-13-15/
REMARK  0 active torsions:
REMARK  status: ('A' for Active; 'I' for Inactive)
REMARK                            x       y       z     vdW  Elec       q    Type
REMARK                         _______ _______ _______ _____ _____    ______ ____
ROOT
ATOM      1  C   UNL A   1     -28.016  -0.814  28.878  0.00  0.00    +0.000 A 
ATOM      2  C   UNL A   1     -28.469  -0.785  29.829  0.00  0.00    +0.000 A 
ATOM      3  C   UNL A   1     -26.504  -0.778  28.877  0.00  0.00    +0.000 A 
ATOM      4  C   UNL A   1     -25.810  -0.853  30.103  0.00  0.00    +0.000 A 
ATOM      5  C   UNL A   1     -27.991  -0.892  31.226  0.00  0.00    +0.000 A 
ATOM      6  C   UNL A   1     -26.604  -0.868  31.265  0.00  0.00    +0.000 A 
ATOM      7  C   UNL A   1     -24.389  -0.805  30.164  0.00  0.00    +0.000 A 
ATOM      8  C   UNL A   1     -23.766  -0.950  31.068  0.00  0.00    +0.000 A 
ATOM      9  C   UNL A   1     -24.487  -1.029  32.385  0.00  0.00    +0.000 A 
ATOM     10  C   UNL A   1     -25.837  -0.926  32.468  0.00  0.00    +0.000 A 
ENDROOT
TORSDOF 0
