REMARK  Name = No_770-gen_results/8p0m/2024-11-26-14-13-15/
REMARK  2 active torsions:
REMARK  status: ('A' for Active; 'I' for Inactive)
REMARK    1  A    between atoms: C_3  and  C_4
REMARK    2  A    between atoms: C_4  and  N_8
REMARK                            x       y       z     vdW  Elec       q    Type
REMARK                         _______ _______ _______ _____ _____    ______ ____
ROOT
ATOM      1  C   UNL A   1     -28.016  -0.814  28.878  0.00  0.00    -0.002 A 
ATOM      2  C   UNL A   1     -28.469  -0.785  29.829  0.00  0.00    -0.000 A 
ATOM      3  C   UNL A   1     -27.136   0.236  28.535  0.00  0.00    +0.002 A 
ATOM      4  C   UNL A   1     -28.369   0.196  30.924  0.00  0.00    -0.000 A 
ATOM      5  C   UNL A   1     -27.516   1.266  30.654  0.00  0.00    -0.000 A 
ATOM      6  C   UNL A   1     -26.841   1.294  29.476  0.00  0.00    -0.002 A 
ENDROOT
BRANCH   3   7
ATOM      7  C   UNL A   1     -26.335   0.290  27.284  0.00  0.00    +0.151 C 
BRANCH   7   8
ATOM      8  N   UNL A   1     -25.808   1.453  26.940  0.00  0.00    -0.269 NA
ATOM      9  C   UNL A   1     -24.463   1.455  26.548  0.00  0.00    +0.068 C 
ATOM     10  C   UNL A   1     -23.907   2.866  26.308  0.00  0.00    +0.053 C 
ENDBRANCH   7   8
ENDBRANCH   3   7
TORSDOF 2
