MODEL 770
MODEL 1
REMARK VINA RESULT:    -5.081      0.000      0.000
REMARK INTER + INTRA:          -5.752
REMARK INTER:                  -5.675
REMARK INTRA:                  -0.077
REMARK UNBOUND:                -0.077
REMARK  Name = No_770-gen_results/8p0m/2024-11-26-14-13-15/
REMARK  2 active torsions:
REMARK  status: ('A' for Active; 'I' for Inactive)
REMARK    1  A    between atoms: C_3  and  C_4
REMARK    2  A    between atoms: C_4  and  N_8
REMARK                            x       y       z     vdW  Elec       q    Type
REMARK                         _______ _______ _______ _____ _____    ______ ____
ROOT
ATOM      1  C   UNL A   1     -26.074  -3.210  29.786  0.00  0.00    -0.002 A 
ATOM      2  C   UNL A   1     -26.226  -4.251  29.728  0.00  0.00    -0.000 A 
ATOM      3  C   UNL A   1     -24.877  -2.688  29.247  0.00  0.00    +0.002 A 
ATOM      4  C   UNL A   1     -25.384  -5.328  29.178  0.00  0.00    -0.000 A 
ATOM      5  C   UNL A   1     -24.180  -4.885  28.630  0.00  0.00    -0.000 A 
ATOM      6  C   UNL A   1     -23.913  -3.554  28.605  0.00  0.00    -0.002 A 
ENDROOT
BRANCH   3   7
ATOM      7  C   UNL A   1     -24.558  -1.240  29.148  0.00  0.00    +0.151 C 
BRANCH   7   8
ATOM      8  N   UNL A   1     -23.419  -0.898  28.571  0.00  0.00    -0.269 NA
ATOM      9  C   UNL A   1     -22.369  -0.503  29.411  0.00  0.00    +0.068 C 
ATOM     10  C   UNL A   1     -21.142   0.009  28.643  0.00  0.00    +0.053 C 
ENDBRANCH   7   8
ENDBRANCH   3   7
TORSDOF 2
ENDMDL
ENDMDL
