MODEL 771
MODEL 1
REMARK VINA RESULT:    -7.289      0.000      0.000
REMARK INTER + INTRA:         -11.185
REMARK INTER:                  -9.419
REMARK INTRA:                  -1.766
REMARK UNBOUND:                -1.766
REMARK  Name = No_771-gen_results/8p0m/2024-11-26-14-13-15/
REMARK  5 active torsions:
REMARK  status: ('A' for Active; 'I' for Inactive)
REMARK    1  A    between atoms: C_5  and  C_12
REMARK    2  A    between atoms: N_8  and  C_9
REMARK    3  A    between atoms: C_12  and  C_28
REMARK    4  A    between atoms: C_13  and  C_14
REMARK    5  A    between atoms: C_23  and  C_32
REMARK                            x       y       z     vdW  Elec       q    Type
REMARK                         _______ _______ _______ _____ _____    ______ ____
ROOT
ATOM      1  C   UNL A   1      -9.470   0.223  36.462  0.00  0.00    +0.066 C 
ATOM      2  C   UNL A   1      -8.316   0.494  36.058  0.00  0.00    -0.018 A 
ATOM      3  C   UNL A   1      -7.850   0.032  34.871  0.00  0.00    -0.004 A 
ATOM      4  C   UNL A   1      -6.737   0.048  34.490  0.00  0.00    -0.000 A 
ATOM      5  C   UNL A   1      -5.650   0.757  35.260  0.00  0.00    -0.000 A 
ATOM      6  C   UNL A   1      -6.050   1.272  36.490  0.00  0.00    -0.004 A 
ATOM      7  C   UNL A   1      -7.338   1.118  36.909  0.00  0.00    -0.021 A 
ATOM      8  C   UNL A   1      -9.774  -0.158  37.830  0.00  0.00    -0.018 A 
ATOM      9  C   UNL A   1     -10.785  -0.990  38.106  0.00  0.00    -0.000 A 
ATOM     10  C   UNL A   1     -11.046  -1.295  39.459  0.00  0.00    +0.071 A 
ATOM     11  C   UNL A   1     -10.237  -0.732  40.475  0.00  0.00    +0.004 A 
ATOM     12  C   UNL A   1      -9.200   0.147  40.154  0.00  0.00    -0.004 A 
ATOM     13  C   UNL A   1      -8.937   0.430  38.817  0.00  0.00    -0.021 A 
ATOM     14  C   UNL A   1      -7.663   1.073  38.423  0.00  0.00    +0.052 C 
ENDROOT
BRANCH  10  15
ATOM     15  C   UNL A   1     -12.192  -2.110  39.841  0.00  0.00    +0.419 C 
ATOM     16  F   UNL A   1     -13.116  -1.513  40.165  0.00  0.00    -0.166 F 
ATOM     17  F   UNL A   1     -11.774  -2.929  40.833  0.00  0.00    -0.166 F 
ATOM     18  F   UNL A   1     -12.543  -2.890  38.757  0.00  0.00    -0.166 F 
ENDBRANCH  10  15
BRANCH   1  20
ATOM     19  C   UNL A   1     -11.088   1.346  35.328  0.00  0.00    +0.040 C 
ATOM     20  C   UNL A   1     -10.648   0.418  35.531  0.00  0.00    -0.017 C 
BRANCH  19  25
ATOM     21  O   UNL A   1      -9.604   2.945  33.832  0.00  0.00    -0.242 OA
ATOM     22  C   UNL A   1      -9.880   3.546  34.877  0.00  0.00    +0.355 C 
ATOM     23  N   UNL A   1      -9.531   4.520  35.337  0.00  0.00    +0.026 NA
ATOM     24  C   UNL A   1     -10.071   5.225  36.531  0.00  0.00    +0.339 C 
ATOM     25  C   UNL A   1     -10.730   2.719  35.938  0.00  0.00    +0.133 C 
ATOM     26  C   UNL A   1     -10.809   4.465  37.387  0.00  0.00    +0.120 C 
ATOM     27  C   UNL A   1     -11.252   3.250  37.022  0.00  0.00    +0.029 C 
ATOM     28  N   UNL A   1      -9.613   6.450  36.900  0.00  0.00    +0.026 NA
BRANCH  28  29
ATOM     29  C   UNL A   1     -10.070   7.129  37.852  0.00  0.00    +0.352 C 
ATOM     30  C   UNL A   1     -11.090   8.042  37.655  0.00  0.00    +0.129 C 
ATOM     31  O   UNL A   1      -9.447   7.208  38.982  0.00  0.00    -0.243 OA
ENDBRANCH  28  29
ENDBRANCH  19  25
BRANCH  19  32
ATOM     32  C   UNL A   1     -12.116   1.640  34.201  0.00  0.00    +0.261 C 
ATOM     33  N   UNL A   1     -13.077   2.285  34.425  0.00  0.00    -0.200 NA
ATOM     34  O   UNL A   1     -11.932   1.164  33.015  0.00  0.00    -0.269 OA
ATOM     35  C   UNL A   1     -14.124   2.690  33.471  0.00  0.00    +0.139 C 
ENDBRANCH  19  32
ENDBRANCH   1  20
TORSDOF 5
ENDMDL
ENDMDL
