REMARK  Name = No_772-gen_results/8p0m/2024-11-26-14-13-15/
REMARK  8 active torsions:
REMARK  status: ('A' for Active; 'I' for Inactive)
REMARK    1  A    between atoms: C_2  and  C_9
REMARK    2  A    between atoms: C_9  and  C_10
REMARK    3  A    between atoms: C_9  and  C_16
REMARK    4  A    between atoms: C_16  and  C_18
REMARK    5  A    between atoms: C_18  and  N_19
REMARK    6  A    between atoms: N_19  and  C_20
REMARK    7  A    between atoms: C_21  and  C_22
REMARK    8  A    between atoms: C_23  and  C_24
REMARK                            x       y       z     vdW  Elec       q    Type
REMARK                         _______ _______ _______ _____ _____    ______ ____
ROOT
ATOM      1  C   UNL A   1     -27.169   1.133  27.705  0.00  0.00    +0.057 C 
ENDROOT
BRANCH   1   3
ATOM      2  C   UNL A   1     -28.016  -0.814  28.878  0.00  0.00    +0.026 A 
ATOM      3  C   UNL A   1     -27.064  -0.119  28.608  0.00  0.00    -0.009 A 
ATOM      4  C   UNL A   1     -25.765  -0.390  29.036  0.00  0.00    +0.031 A 
ATOM      5  C   UNL A   1     -25.530  -1.530  29.901  0.00  0.00    +0.009 A 
ATOM      6  C   UNL A   1     -26.689  -2.289  30.181  0.00  0.00    +0.030 A 
ATOM      7  C   UNL A   1     -27.873  -1.951  29.737  0.00  0.00    +0.140 A 
ATOM      8 BR   UNL A   1     -24.248   0.653  28.631  0.00  0.00    -0.049 Br
ATOM      9  F   UNL A   1     -28.927  -2.729  30.063  0.00  0.00    -0.204 F 
ENDBRANCH   1   3
BRANCH   1  10
ATOM     10  C   UNL A   1     -27.368   0.896  26.368  0.00  0.00    -0.018 A 
ATOM     11  C   UNL A   1     -27.480  -0.255  25.829  0.00  0.00    -0.004 A 
ATOM     12  C   UNL A   1     -27.713  -0.442  24.417  0.00  0.00    -0.000 A 
ATOM     13  C   UNL A   1     -27.994   0.761  23.710  0.00  0.00    -0.000 A 
ATOM     14  C   UNL A   1     -27.580   2.018  25.399  0.00  0.00    -0.004 A 
ATOM     15  C   UNL A   1     -27.886   1.966  24.202  0.00  0.00    -0.000 A 
ENDBRANCH   1  10
BRANCH   1  16
ATOM     16  C   UNL A   1     -27.238   2.414  28.394  0.00  0.00    +0.087 C 
ATOM     17 BR   UNL A   1     -26.466   3.159  29.217  0.00  0.00    -0.079 Br
BRANCH  16  18
ATOM     18  C   UNL A   1     -28.687   2.980  28.148  0.00  0.00    +0.124 C 
BRANCH  18  19
ATOM     19  N   UNL A   1     -28.773   3.990  27.497  0.00  0.00    -0.235 NA
BRANCH  19  20
ATOM     20  C   UNL A   1     -29.830   4.347  26.718  0.00  0.00    +0.080 C 
ATOM     21  C   UNL A   1     -30.769   3.603  26.447  0.00  0.00    +0.017 C 
BRANCH  21  22
ATOM     22  C   UNL A   1     -31.409   3.465  25.185  0.00  0.00    +0.001 C 
ATOM     23  C   UNL A   1     -32.257   2.476  24.867  0.00  0.00    +0.000 C 
BRANCH  23  24
ATOM     24  C   UNL A   1     -32.595   1.582  25.853  0.00  0.00    +0.000 C 
ATOM     25  C   UNL A   1     -32.011   1.593  27.110  0.00  0.00    +0.000 C 
ENDBRANCH  23  24
ENDBRANCH  21  22
ENDBRANCH  19  20
ENDBRANCH  18  19
ENDBRANCH  16  18
ENDBRANCH   1  16
TORSDOF 8
