MODEL 772
MODEL 1
REMARK VINA RESULT:    -7.291      0.000      0.000
REMARK INTER + INTRA:         -12.671
REMARK INTER:                 -10.701
REMARK INTRA:                  -1.970
REMARK UNBOUND:                -1.970
REMARK  Name = No_772-gen_results/8p0m/2024-11-26-14-13-15/
REMARK  8 active torsions:
REMARK  status: ('A' for Active; 'I' for Inactive)
REMARK    1  A    between atoms: C_2  and  C_9
REMARK    2  A    between atoms: C_9  and  C_10
REMARK    3  A    between atoms: C_9  and  C_16
REMARK    4  A    between atoms: C_16  and  C_18
REMARK    5  A    between atoms: C_18  and  N_19
REMARK    6  A    between atoms: N_19  and  C_20
REMARK    7  A    between atoms: C_21  and  C_22
REMARK    8  A    between atoms: C_23  and  C_24
REMARK                            x       y       z     vdW  Elec       q    Type
REMARK                         _______ _______ _______ _____ _____    ______ ____
ROOT
ATOM      1  C   UNL A   1     -25.279  -1.277  29.365  0.00  0.00    +0.057 C 
ENDROOT
BRANCH   1   3
ATOM      2  C   UNL A   1     -25.195  -0.585  27.042  0.00  0.00    +0.026 A 
ATOM      3  C   UNL A   1     -25.813  -0.599  28.081  0.00  0.00    -0.009 A 
ATOM      4  C   UNL A   1     -27.088  -0.055  28.228  0.00  0.00    +0.031 A 
ATOM      5  C   UNL A   1     -27.701   0.622  27.101  0.00  0.00    +0.009 A 
ATOM      6  C   UNL A   1     -26.917   0.608  25.925  0.00  0.00    +0.030 A 
ATOM      7  C   UNL A   1     -25.722   0.075  25.885  0.00  0.00    +0.140 A 
ATOM      8 BR   UNL A   1     -28.097  -0.065  29.820  0.00  0.00    -0.049 Br
ATOM      9  F   UNL A   1     -25.040   0.116  24.721  0.00  0.00    -0.204 F 
ENDBRANCH   1   3
BRANCH   1  10
ATOM     10  C   UNL A   1     -25.252  -2.649  29.356  0.00  0.00    -0.018 A 
ATOM     11  C   UNL A   1     -26.203  -3.410  29.734  0.00  0.00    -0.004 A 
ATOM     12  C   UNL A   1     -26.126  -4.850  29.678  0.00  0.00    -0.000 A 
ATOM     13  C   UNL A   1     -24.980  -5.345  28.995  0.00  0.00    -0.000 A 
ATOM     14  C   UNL A   1     -24.092  -3.403  28.783  0.00  0.00    -0.004 A 
ATOM     15  C   UNL A   1     -23.970  -4.619  28.595  0.00  0.00    -0.000 A 
ENDBRANCH   1  10
BRANCH   1  16
ATOM     16  C   UNL A   1     -24.688  -0.389  30.357  0.00  0.00    +0.087 C 
ATOM     17 BR   UNL A   1     -24.723  -0.209  31.697  0.00  0.00    -0.079 Br
BRANCH  16  18
ATOM     18  C   UNL A   1     -23.881   0.703  29.560  0.00  0.00    +0.124 C 
BRANCH  18  19
ATOM     19  N   UNL A   1     -22.714   0.480  29.361  0.00  0.00    -0.235 NA
BRANCH  19  20
ATOM     20  C   UNL A   1     -22.063   0.647  28.178  0.00  0.00    +0.080 C 
ATOM     21  C   UNL A   1     -22.029   1.703  27.552  0.00  0.00    +0.017 C 
BRANCH  21  22
ATOM     22  C   UNL A   1     -22.154   1.864  26.145  0.00  0.00    +0.001 C 
ATOM     23  C   UNL A   1     -23.097   2.605  25.546  0.00  0.00    +0.000 C 
BRANCH  23  24
ATOM     24  C   UNL A   1     -23.950   3.325  26.346  0.00  0.00    +0.000 C 
ATOM     25  C   UNL A   1     -25.210   3.725  25.932  0.00  0.00    +0.000 C 
ENDBRANCH  23  24
ENDBRANCH  21  22
ENDBRANCH  19  20
ENDBRANCH  18  19
ENDBRANCH  16  18
ENDBRANCH   1  16
TORSDOF 8
ENDMDL
ENDMDL
