REMARK  Name = No_773-gen_results/8p0m/2024-11-26-14-13-15/
REMARK  3 active torsions:
REMARK  status: ('A' for Active; 'I' for Inactive)
REMARK    1  A    between atoms: C_2  and  C_16
REMARK    2  A    between atoms: C_3  and  C_7
REMARK    3  A    between atoms: C_7  and  C_9
REMARK                            x       y       z     vdW  Elec       q    Type
REMARK                         _______ _______ _______ _____ _____    ______ ____
ROOT
ATOM      1  C   UNL A   1     -28.016  -0.814  28.878  0.00  0.00    +0.004 A 
ATOM      2  C   UNL A   1     -28.469  -0.785  29.829  0.00  0.00    +0.080 A 
ATOM      3  C   UNL A   1     -27.136   0.236  28.535  0.00  0.00    -0.003 A 
ATOM      4  C   UNL A   1     -26.875   1.282  29.398  0.00  0.00    -0.003 A 
ATOM      5  C   UNL A   1     -28.361   0.199  30.924  0.00  0.00    +0.007 A 
ATOM      6  C   UNL A   1     -27.528   1.223  30.636  0.00  0.00    -0.000 A 
ENDROOT
BRANCH   2   7
ATOM      7  C   UNL A   1     -29.426  -1.981  30.349  0.00  0.00    +0.388 C 
ATOM      8  O   UNL A   1     -29.949  -1.881  31.452  0.00  0.00    -0.241 OA
ATOM      9  O   UNL A   1     -29.123  -3.131  29.926  0.00  0.00    -0.241 OA
ENDBRANCH   2   7
BRANCH   3  10
ATOM     10  C   UNL A   1     -26.399   0.295  27.228  0.00  0.00    +0.124 C 
ATOM     11 CL   UNL A   1     -26.898   0.044  25.896  0.00  0.00    -0.105 Cl
BRANCH  10  12
ATOM     12  C   UNL A   1     -24.903   0.495  27.392  0.00  0.00    -0.003 A 
ATOM     13  C   UNL A   1     -24.348   1.623  26.728  0.00  0.00    +0.001 A 
ATOM     14  C   UNL A   1     -22.956   1.882  26.848  0.00  0.00    +0.042 A 
ATOM     15  C   UNL A   1     -22.260   1.192  27.912  0.00  0.00    +0.196 A 
ATOM     16  C   UNL A   1     -22.870   0.258  28.665  0.00  0.00    +0.042 A 
ATOM     17  C   UNL A   1     -24.204  -0.109  28.490  0.00  0.00    +0.001 A 
ATOM     18  O   UNL A   1     -20.979   1.590  28.078  0.00  0.00    -0.287 OA
ENDBRANCH  10  12
ENDBRANCH   3  10
TORSDOF 3
