MODEL 773
MODEL 1
REMARK VINA RESULT:    -6.796      0.000      0.000
REMARK INTER + INTRA:          -8.736
REMARK INTER:                  -7.988
REMARK INTRA:                  -0.747
REMARK UNBOUND:                -0.747
REMARK  Name = No_773-gen_results/8p0m/2024-11-26-14-13-15/
REMARK  3 active torsions:
REMARK  status: ('A' for Active; 'I' for Inactive)
REMARK    1  A    between atoms: C_2  and  C_16
REMARK    2  A    between atoms: C_3  and  C_7
REMARK    3  A    between atoms: C_7  and  C_9
REMARK                            x       y       z     vdW  Elec       q    Type
REMARK                         _______ _______ _______ _____ _____    ______ ____
ROOT
ATOM      1  C   UNL A   1     -24.466   0.183  26.973  0.00  0.00    +0.004 A 
ATOM      2  C   UNL A   1     -24.505   0.834  26.145  0.00  0.00    +0.080 A 
ATOM      3  C   UNL A   1     -23.399   0.340  27.885  0.00  0.00    -0.003 A 
ATOM      4  C   UNL A   1     -22.422   1.300  27.708  0.00  0.00    -0.003 A 
ATOM      5  C   UNL A   1     -23.606   1.928  25.730  0.00  0.00    +0.007 A 
ATOM      6  C   UNL A   1     -22.569   2.112  26.576  0.00  0.00    -0.000 A 
ENDROOT
BRANCH   2   7
ATOM      7  C   UNL A   1     -25.730   0.790  25.089  0.00  0.00    +0.388 C 
ATOM      8  O   UNL A   1     -26.626   1.619  25.191  0.00  0.00    -0.241 OA
ATOM      9  O   UNL A   1     -26.015  -0.357  24.647  0.00  0.00    -0.241 OA
ENDBRANCH   2   7
BRANCH   3  10
ATOM     10  C   UNL A   1     -23.248  -0.496  29.123  0.00  0.00    +0.124 C 
ATOM     11 CL   UNL A   1     -22.181  -0.487  30.096  0.00  0.00    -0.105 Cl
BRANCH  10  12
ATOM     12  C   UNL A   1     -24.298  -1.587  29.241  0.00  0.00    -0.003 A 
ATOM     13  C   UNL A   1     -23.864  -2.906  28.933  0.00  0.00    +0.001 A 
ATOM     14  C   UNL A   1     -24.788  -3.980  29.035  0.00  0.00    +0.042 A 
ATOM     15  C   UNL A   1     -26.003  -3.719  29.776  0.00  0.00    +0.196 A 
ATOM     16  C   UNL A   1     -26.300  -2.489  30.234  0.00  0.00    +0.042 A 
ATOM     17  C   UNL A   1     -25.471  -1.384  30.041  0.00  0.00    +0.001 A 
ATOM     18  O   UNL A   1     -26.771  -4.814  29.974  0.00  0.00    -0.287 OA
ENDBRANCH  10  12
ENDBRANCH   3  10
TORSDOF 3
ENDMDL
ENDMDL
