REMARK  Name = No_774-gen_results/8p0m/2024-11-26-14-13-15/
REMARK  4 active torsions:
REMARK  status: ('A' for Active; 'I' for Inactive)
REMARK    1  A    between atoms: C_2  and  C_5
REMARK    2  A    between atoms: N_9  and  C_10
REMARK    3  A    between atoms: C_14  and  C_17
REMARK    4  A    between atoms: C_21  and  C_23
REMARK                            x       y       z     vdW  Elec       q    Type
REMARK                         _______ _______ _______ _____ _____    ______ ____
ROOT
ATOM      1  C   UNL A   1     -29.690   1.742  29.585  0.00  0.00    +0.074 A 
ATOM      2  C   UNL A   1     -30.425   2.810  29.327  0.00  0.00    +0.017 A 
ATOM      3  C   UNL A   1     -29.765   4.106  29.146  0.00  0.00    +0.002 A 
ATOM      4  C   UNL A   1     -28.330   4.148  29.173  0.00  0.00    +0.005 A 
ATOM      5  C   UNL A   1     -27.625   2.950  29.410  0.00  0.00    +0.058 A 
ATOM      6  C   UNL A   1     -28.306   1.757  29.643  0.00  0.00    +0.021 A 
ENDROOT
BRANCH   5   7
ATOM      7  C   UNL A   1     -26.140   3.097  29.462  0.00  0.00    +0.265 C 
ATOM      8  N   UNL A   1     -25.447   2.897  28.625  0.00  0.00    -0.272 N 
ATOM      9  C   UNL A   1     -24.138   2.509  28.742  0.00  0.00    +0.084 A 
ATOM     10  O   UNL A   1     -25.706   3.643  30.631  0.00  0.00    -0.267 OA
ATOM     11  C   UNL A   1     -23.416   2.377  27.462  0.00  0.00    +0.063 A 
ATOM     12  C   UNL A   1     -25.858   3.069  27.218  0.00  0.00    +0.083 A 
ATOM     13  C   UNL A   1     -24.213   2.676  26.297  0.00  0.00    +0.022 A 
BRANCH  11  14
ATOM     14  C   UNL A   1     -22.217   1.787  27.294  0.00  0.00    +0.343 C 
ATOM     15  F   UNL A   1     -21.586   1.966  26.262  0.00  0.00    -0.193 F 
ATOM     16  F   UNL A   1     -21.706   1.063  28.248  0.00  0.00    -0.193 F 
ENDBRANCH  11  14
ENDBRANCH   5   7
BRANCH   1  19
ATOM     17  C   UNL A   1     -30.006  -0.746  29.898  0.00  0.00    +0.269 C 
ATOM     18  O   UNL A   1     -30.709  -1.528  30.170  0.00  0.00    -0.268 OA
ATOM     19  N   UNL A   1     -30.461   0.612  29.809  0.00  0.00    -0.175 NA
BRANCH  17  21
ATOM     20  C   UNL A   1     -28.016  -0.814  28.878  0.00  0.00    +0.016 A 
ATOM     21  C   UNL A   1     -28.469  -0.785  29.829  0.00  0.00    +0.056 A 
ATOM     22  C   UNL A   1     -26.546  -0.876  28.850  0.00  0.00    +0.058 A 
ATOM     23  C   UNL A   1     -25.804  -1.032  30.057  0.00  0.00    +0.011 A 
ATOM     24  C   UNL A   1     -26.575  -1.056  31.201  0.00  0.00    +0.001 A 
ATOM     25  C   UNL A   1     -27.925  -0.974  31.168  0.00  0.00    +0.005 A 
ATOM     26 CL   UNL A   1     -25.544  -0.803  27.428  0.00  0.00    -0.082 Cl
ENDBRANCH  17  21
ENDBRANCH   1  19
TORSDOF 4
