MODEL 774
MODEL 1
REMARK VINA RESULT:    -7.242      0.000      0.000
REMARK INTER + INTRA:          -9.216
REMARK INTER:                  -8.936
REMARK INTRA:                  -0.281
REMARK UNBOUND:                -0.281
REMARK  Name = No_774-gen_results/8p0m/2024-11-26-14-13-15/
REMARK  4 active torsions:
REMARK  status: ('A' for Active; 'I' for Inactive)
REMARK    1  A    between atoms: C_2  and  C_5
REMARK    2  A    between atoms: N_9  and  C_10
REMARK    3  A    between atoms: C_14  and  C_17
REMARK    4  A    between atoms: C_21  and  C_23
REMARK                            x       y       z     vdW  Elec       q    Type
REMARK                         _______ _______ _______ _____ _____    ______ ____
ROOT
ATOM      1  C   UNL A   1     -29.861 -12.279  11.506  0.00  0.00    +0.074 A 
ATOM      2  C   UNL A   1     -31.037 -11.744  11.785  0.00  0.00    +0.017 A 
ATOM      3  C   UNL A   1     -31.533 -10.638  10.961  0.00  0.00    +0.002 A 
ATOM      4  C   UNL A   1     -30.755 -10.234   9.824  0.00  0.00    +0.005 A 
ATOM      5  C   UNL A   1     -29.533 -10.893   9.576  0.00  0.00    +0.058 A 
ATOM      6  C   UNL A   1     -29.076 -11.893  10.432  0.00  0.00    +0.021 A 
ENDROOT
BRANCH   5   7
ATOM      7  C   UNL A   1     -28.773 -10.379   8.398  0.00  0.00    +0.265 C 
ATOM      8  N   UNL A   1     -28.350  -9.363   8.303  0.00  0.00    -0.272 N 
ATOM      9  C   UNL A   1     -28.134  -8.690   7.129  0.00  0.00    +0.084 A 
ATOM     10  O   UNL A   1     -28.522 -11.344   7.471  0.00  0.00    -0.267 OA
ATOM     11  C   UNL A   1     -27.492  -7.370   7.282  0.00  0.00    +0.063 A 
ATOM     12  C   UNL A   1     -27.912  -8.589   9.481  0.00  0.00    +0.083 A 
ATOM     13  C   UNL A   1     -27.201  -7.006   8.647  0.00  0.00    +0.022 A 
BRANCH  11  14
ATOM     14  C   UNL A   1     -27.396  -6.428   6.324  0.00  0.00    +0.343 C 
ATOM     15  F   UNL A   1     -27.006  -6.730   5.205  0.00  0.00    -0.193 F 
ATOM     16  F   UNL A   1     -27.762  -5.204   6.574  0.00  0.00    -0.193 F 
ENDBRANCH  11  14
ENDBRANCH   5   7
BRANCH   1  19
ATOM     17  C   UNL A   1     -29.725 -14.669  12.319  0.00  0.00    +0.269 C 
ATOM     18  O   UNL A   1     -29.302 -15.333  13.067  0.00  0.00    -0.268 OA
ATOM     19  N   UNL A   1     -29.495 -13.256  12.419  0.00  0.00    -0.175 NA
BRANCH  17  21
ATOM     20  C   UNL A   1     -31.404 -15.011  10.881  0.00  0.00    +0.016 A 
ATOM     21  C   UNL A   1     -30.353 -14.997  10.953  0.00  0.00    +0.056 A 
ATOM     22  C   UNL A   1     -31.971 -15.354   9.567  0.00  0.00    +0.058 A 
ATOM     23  C   UNL A   1     -31.124 -15.779   8.501  0.00  0.00    +0.011 A 
ATOM     24  C   UNL A   1     -29.779 -15.776   8.807  0.00  0.00    +0.001 A 
ATOM     25  C   UNL A   1     -29.313 -15.431  10.029  0.00  0.00    +0.005 A 
ATOM     26 CL   UNL A   1     -33.658 -15.324   9.138  0.00  0.00    -0.082 Cl
ENDBRANCH  17  21
ENDBRANCH   1  19
TORSDOF 4
ENDMDL
ENDMDL
