REMARK  Name = No_775-gen_results/8p0m/2024-11-26-14-13-15/
REMARK  4 active torsions:
REMARK  status: ('A' for Active; 'I' for Inactive)
REMARK    1  A    between atoms: C_2  and  C_10
REMARK    2  A    between atoms: C_6  and  C_7
REMARK    3  A    between atoms: C_14  and  C_16
REMARK    4  A    between atoms: C_16  and  C_17
REMARK                            x       y       z     vdW  Elec       q    Type
REMARK                         _______ _______ _______ _____ _____    ______ ____
ROOT
ATOM      1  C   UNL A   1     -27.090   1.108  27.748  0.00  0.00    +0.000 A 
ATOM      2  C   UNL A   1     -26.739   2.102  27.721  0.00  0.00    +0.000 A 
ATOM      3  C   UNL A   1     -26.803   3.165  26.712  0.00  0.00    +0.000 A 
ATOM      4  C   UNL A   1     -27.544   2.857  25.575  0.00  0.00    +0.002 A 
ATOM      5  C   UNL A   1     -28.083   1.646  25.483  0.00  0.00    +0.019 A 
ATOM      6  C   UNL A   1     -27.930   0.668  26.447  0.00  0.00    +0.002 A 
ENDROOT
BRANCH   1   8
ATOM      7  C   UNL A   1     -28.016  -0.814  28.878  0.00  0.00    +0.007 A 
ATOM      8  C   UNL A   1     -27.064  -0.119  28.608  0.00  0.00    +0.000 A 
ATOM      9  C   UNL A   1     -25.792  -0.430  29.076  0.00  0.00    +0.000 A 
ATOM     10  C   UNL A   1     -25.576  -1.565  29.936  0.00  0.00    +0.000 A 
ATOM     11  C   UNL A   1     -26.735  -2.300  30.217  0.00  0.00    +0.007 A 
ATOM     12  C   UNL A   1     -27.918  -1.954  29.763  0.00  0.00    +0.080 A 
BRANCH  12  13
ATOM     13  C   UNL A   1     -29.073  -2.784  30.178  0.00  0.00    +0.388 C 
ATOM     14  O   UNL A   1     -29.322  -2.795  31.389  0.00  0.00    -0.241 OA
ATOM     15  O   UNL A   1     -29.338  -3.887  29.513  0.00  0.00    -0.241 OA
ENDBRANCH  12  13
ENDBRANCH   1   8
BRANCH   5  16
ATOM     16  C   UNL A   1     -28.838   1.275  24.271  0.00  0.00    +0.103 C 
ATOM     17  N   UNL A   1     -28.520   0.180  23.623  0.00  0.00    -0.148 NA
BRANCH  16  18
ATOM     18  C   UNL A   1     -29.955   1.972  24.041  0.00  0.00    +0.019 A 
ATOM     19  C   UNL A   1     -31.073   1.545  23.308  0.00  0.00    +0.002 A 
ATOM     20  C   UNL A   1     -32.118   2.446  22.984  0.00  0.00    +0.011 A 
ATOM     21  C   UNL A   1     -32.150   3.762  23.503  0.00  0.00    +0.058 A 
ATOM     22  C   UNL A   1     -31.116   4.166  24.327  0.00  0.00    +0.011 A 
ATOM     23  C   UNL A   1     -30.051   3.413  24.587  0.00  0.00    +0.002 A 
ATOM     24 CL   UNL A   1     -33.527   4.701  23.166  0.00  0.00    -0.082 Cl
ENDBRANCH  16  18
ENDBRANCH   5  16
TORSDOF 4
