MODEL 775
MODEL 1
REMARK VINA RESULT:    -8.785      0.000      0.000
REMARK INTER + INTRA:         -11.972
REMARK INTER:                 -10.840
REMARK INTRA:                  -1.133
REMARK UNBOUND:                -1.133
REMARK  Name = No_775-gen_results/8p0m/2024-11-26-14-13-15/
REMARK  4 active torsions:
REMARK  status: ('A' for Active; 'I' for Inactive)
REMARK    1  A    between atoms: C_2  and  C_10
REMARK    2  A    between atoms: C_6  and  C_7
REMARK    3  A    between atoms: C_14  and  C_16
REMARK    4  A    between atoms: C_16  and  C_17
REMARK                            x       y       z     vdW  Elec       q    Type
REMARK                         _______ _______ _______ _____ _____    ______ ____
ROOT
ATOM      1  C   UNL A   1     -23.398  -1.517  29.012  0.00  0.00    +0.000 A 
ATOM      2  C   UNL A   1     -22.408  -1.231  29.233  0.00  0.00    +0.000 A 
ATOM      3  C   UNL A   1     -21.591  -0.068  28.869  0.00  0.00    +0.000 A 
ATOM      4  C   UNL A   1     -22.256   0.920  28.149  0.00  0.00    +0.002 A 
ATOM      5  C   UNL A   1     -23.528   0.716  27.827  0.00  0.00    +0.019 A 
ATOM      6  C   UNL A   1     -24.222  -0.435  28.150  0.00  0.00    +0.002 A 
ENDROOT
BRANCH   1   8
ATOM      7  C   UNL A   1     -25.486  -2.554  29.638  0.00  0.00    +0.007 A 
ATOM      8  C   UNL A   1     -24.361  -2.649  29.207  0.00  0.00    +0.000 A 
ATOM      9  C   UNL A   1     -23.845  -3.878  28.810  0.00  0.00    +0.000 A 
ATOM     10  C   UNL A   1     -24.619  -5.085  28.944  0.00  0.00    +0.000 A 
ATOM     11  C   UNL A   1     -25.901  -4.887  29.473  0.00  0.00    +0.007 A 
ATOM     12  C   UNL A   1     -26.336  -3.706  29.849  0.00  0.00    +0.080 A 
BRANCH  12  13
ATOM     13  C   UNL A   1     -27.691  -3.640  30.445  0.00  0.00    +0.388 C 
ATOM     14  O   UNL A   1     -28.234  -4.727  30.672  0.00  0.00    -0.241 OA
ATOM     15  O   UNL A   1     -28.483  -2.643  30.119  0.00  0.00    -0.241 OA
ENDBRANCH  12  13
ENDBRANCH   1   8
BRANCH   5  16
ATOM     16  C   UNL A   1     -24.248   1.726  27.028  0.00  0.00    +0.103 C 
ATOM     17  N   UNL A   1     -23.740   2.928  26.899  0.00  0.00    -0.148 NA
BRANCH  16  18
ATOM     18  C   UNL A   1     -25.270   1.273  26.295  0.00  0.00    +0.019 A 
ATOM     19  C   UNL A   1     -26.635   1.505  26.526  0.00  0.00    +0.002 A 
ATOM     20  C   UNL A   1     -27.626   0.818  25.781  0.00  0.00    +0.011 A 
ATOM     21  C   UNL A   1     -27.288  -0.012  24.687  0.00  0.00    +0.058 A 
ATOM     22  C   UNL A   1     -25.952  -0.161  24.366  0.00  0.00    +0.011 A 
ATOM     23  C   UNL A   1     -24.964   0.365  25.084  0.00  0.00    +0.002 A 
ATOM     24 CL   UNL A   1     -28.569  -0.664  23.778  0.00  0.00    -0.082 Cl
ENDBRANCH  16  18
ENDBRANCH   5  16
TORSDOF 4
ENDMDL
ENDMDL
