MODEL 776
MODEL 1
REMARK VINA RESULT:    -6.525      0.000      0.000
REMARK INTER + INTRA:          -7.258
REMARK INTER:                  -6.906
REMARK INTRA:                  -0.351
REMARK UNBOUND:                -0.351
REMARK  Name = No_776-gen_results/8p0m/2024-11-26-14-13-15/
REMARK  1 active torsions:
REMARK  status: ('A' for Active; 'I' for Inactive)
REMARK    1  A    between atoms: C_2  and  C_7
REMARK                            x       y       z     vdW  Elec       q    Type
REMARK                         _______ _______ _______ _____ _____    ______ ____
ROOT
ATOM      1  C   UNL A   1     -24.095  -3.864  28.868  0.00  0.00    +0.000 A 
ATOM      2  C   UNL A   1     -24.451  -2.735  29.119  0.00  0.00    +0.000 A 
ATOM      3  C   UNL A   1     -25.693  -2.485  29.693  0.00  0.00    +0.000 A 
ATOM      4  C   UNL A   1     -26.613  -3.559  29.965  0.00  0.00    +0.000 A 
ATOM      5  C   UNL A   1     -26.130  -4.828  29.623  0.00  0.00    +0.000 A 
ATOM      6  C   UNL A   1     -24.954  -5.010  29.066  0.00  0.00    +0.000 A 
ENDROOT
BRANCH   2   7
ATOM      7  C   UNL A   1     -23.645  -1.508  28.880  0.00  0.00    +0.000 A 
ATOM      8  C   UNL A   1     -22.511  -1.232  29.238  0.00  0.00    +0.000 A 
ATOM      9  C   UNL A   1     -21.758  -0.035  28.842  0.00  0.00    +0.000 A 
ATOM     10  C   UNL A   1     -22.423   0.881  28.002  0.00  0.00    +0.000 A 
ATOM     11  C   UNL A   1     -24.262  -0.517  27.966  0.00  0.00    +0.000 A 
ATOM     12  C   UNL A   1     -23.656   0.590  27.589  0.00  0.00    +0.000 A 
ENDBRANCH   2   7
TORSDOF 1
ENDMDL
ENDMDL
