REMARK  Name = No_777-gen_results/8p0m/2024-11-26-14-13-15/
REMARK  1 active torsions:
REMARK  status: ('A' for Active; 'I' for Inactive)
REMARK    1  A    between atoms: C_1  and  C_2
REMARK                            x       y       z     vdW  Elec       q    Type
REMARK                         _______ _______ _______ _____ _____    ______ ____
ROOT
ATOM      1  C   UNL A   1     -27.064  -0.119  28.608  0.00  0.00    +0.018 A 
ATOM      2  C   UNL A   1     -26.972   0.714  27.506  0.00  0.00    +0.002 A 
ATOM      3  C   UNL A   1     -25.820   1.491  27.116  0.00  0.00    +0.000 A 
ATOM      4  C   UNL A   1     -24.858   1.342  27.601  0.00  0.00    +0.000 A 
ATOM      5  C   UNL A   1     -24.622   0.529  28.814  0.00  0.00    +0.000 A 
ATOM      6  C   UNL A   1     -25.734  -0.181  29.191  0.00  0.00    +0.002 A 
ATOM      7  C   UNL A   1     -23.528   2.145  27.301  0.00  0.00    +0.000 A 
ATOM      8  C   UNL A   1     -22.551   2.306  28.249  0.00  0.00    +0.000 A 
ATOM      9  C   UNL A   1     -22.453   1.243  29.213  0.00  0.00    +0.000 A 
ATOM     10  C   UNL A   1     -23.463   0.510  29.608  0.00  0.00    +0.000 A 
ENDROOT
BRANCH   1  11
ATOM     11  C   UNL A   1     -28.016  -0.814  28.878  0.00  0.00    +0.081 A 
ATOM     12  N   UNL A   1     -27.890  -1.556  30.041  0.00  0.00    -0.244 NA
ATOM     13  C   UNL A   1     -28.992  -2.262  30.556  0.00  0.00    +0.099 A 
ATOM     14  C   UNL A   1     -30.166  -1.877  30.200  0.00  0.00    +0.021 A 
ATOM     15  C   UNL A   1     -30.336  -0.898  29.230  0.00  0.00    +0.003 A 
ATOM     16  C   UNL A   1     -29.294  -0.285  28.675  0.00  0.00    +0.019 A 
ENDBRANCH   1  11
TORSDOF 1
