MODEL 777
MODEL 1
REMARK VINA RESULT:    -7.866      0.000      0.000
REMARK INTER + INTRA:          -8.690
REMARK INTER:                  -8.326
REMARK INTRA:                  -0.364
REMARK UNBOUND:                -0.364
REMARK  Name = No_777-gen_results/8p0m/2024-11-26-14-13-15/
REMARK  1 active torsions:
REMARK  status: ('A' for Active; 'I' for Inactive)
REMARK    1  A    between atoms: C_1  and  C_2
REMARK                            x       y       z     vdW  Elec       q    Type
REMARK                         _______ _______ _______ _____ _____    ______ ____
ROOT
ATOM      1  C   UNL A   1     -23.982  -1.822  28.865  0.00  0.00    +0.018 A 
ATOM      2  C   UNL A   1     -22.772  -1.305  29.297  0.00  0.00    +0.002 A 
ATOM      3  C   UNL A   1     -22.107  -0.137  28.773  0.00  0.00    +0.000 A 
ATOM      4  C   UNL A   1     -22.614   0.529  28.078  0.00  0.00    +0.000 A 
ATOM      5  C   UNL A   1     -23.911   0.259  27.419  0.00  0.00    +0.000 A 
ATOM      6  C   UNL A   1     -24.519  -0.871  27.906  0.00  0.00    +0.002 A 
ATOM      7  C   UNL A   1     -21.995   1.817  27.400  0.00  0.00    +0.000 A 
ATOM      8  C   UNL A   1     -22.441   2.282  26.190  0.00  0.00    +0.000 A 
ATOM      9  C   UNL A   1     -23.822   2.007  25.900  0.00  0.00    +0.000 A 
ATOM     10  C   UNL A   1     -24.476   0.963  26.342  0.00  0.00    +0.000 A 
ENDROOT
BRANCH   1  11
ATOM     11  C   UNL A   1     -24.556  -2.762  29.365  0.00  0.00    +0.081 A 
ATOM     12  N   UNL A   1     -25.905  -2.565  29.607  0.00  0.00    -0.244 NA
ATOM     13  C   UNL A   1     -26.717  -3.638  30.017  0.00  0.00    +0.099 A 
ATOM     14  C   UNL A   1     -26.311  -4.829  29.751  0.00  0.00    +0.021 A 
ATOM     15  C   UNL A   1     -25.050  -5.053  29.214  0.00  0.00    +0.003 A 
ATOM     16  C   UNL A   1     -24.241  -4.044  28.903  0.00  0.00    +0.019 A 
ENDBRANCH   1  11
TORSDOF 1
ENDMDL
ENDMDL
