MODEL 778
MODEL 1
REMARK VINA RESULT:    -6.497      0.000      0.000
REMARK INTER + INTRA:          -7.201
REMARK INTER:                  -6.877
REMARK INTRA:                  -0.324
REMARK UNBOUND:                -0.324
REMARK  Name = No_778-gen_results/8p0m/2024-11-26-14-13-15/
REMARK  1 active torsions:
REMARK  status: ('A' for Active; 'I' for Inactive)
REMARK    1  A    between atoms: C_3  and  C_7
REMARK                            x       y       z     vdW  Elec       q    Type
REMARK                         _______ _______ _______ _____ _____    ______ ____
ROOT
ATOM      1  C   UNL A   1     -26.559  -3.592  29.881  0.00  0.00    +0.000 A 
ATOM      2  C   UNL A   1     -25.893  -2.612  29.638  0.00  0.00    +0.000 A 
ATOM      3  C   UNL A   1     -24.640  -2.663  29.029  0.00  0.00    +0.000 A 
ATOM      4  C   UNL A   1     -24.060  -3.955  28.714  0.00  0.00    +0.000 A 
ATOM      5  C   UNL A   1     -24.854  -5.057  29.029  0.00  0.00    +0.000 A 
ATOM      6  C   UNL A   1     -26.026  -4.918  29.616  0.00  0.00    +0.000 A 
ENDROOT
BRANCH   3   7
ATOM      7  C   UNL A   1     -23.766  -1.503  28.691  0.00  0.00    +0.000 A 
ATOM      8  C   UNL A   1     -22.600  -1.335  29.239  0.00  0.00    +0.000 A 
ATOM      9  C   UNL A   1     -21.856  -0.173  29.020  0.00  0.00    +0.000 A 
ATOM     10  C   UNL A   1     -22.289   0.885  28.262  0.00  0.00    +0.000 A 
ATOM     11  C   UNL A   1     -24.313  -0.391  27.907  0.00  0.00    +0.000 A 
ATOM     12  C   UNL A   1     -23.539   0.786  27.695  0.00  0.00    +0.000 A 
ENDBRANCH   3   7
TORSDOF 1
ENDMDL
ENDMDL
