REMARK  Name = No_779-gen_results/8p0m/2024-11-26-14-13-15/
REMARK  7 active torsions:
REMARK  status: ('A' for Active; 'I' for Inactive)
REMARK    1  A    between atoms: C_2  and  C_8
REMARK    2  A    between atoms: N_9  and  C_11
REMARK    3  A    between atoms: N_9  and  C_12
REMARK    4  A    between atoms: C_16  and  C_18
REMARK    5  A    between atoms: C_19  and  C_20
REMARK    6  A    between atoms: C_20  and  C_21
REMARK    7  A    between atoms: C_30  and  C_32
REMARK                            x       y       z     vdW  Elec       q    Type
REMARK                         _______ _______ _______ _____ _____    ______ ____
ROOT
ATOM      1  C   UNL A   1     -30.038  -0.645  30.220  0.00  0.00    +0.258 C 
ATOM      2  N   UNL A   1     -30.670  -1.142  30.870  0.00  0.00    -0.234 N 
ATOM      3  O   UNL A   1     -30.604   0.144  29.253  0.00  0.00    -0.269 OA
ENDROOT
BRANCH   1   5
ATOM      4  C   UNL A   1     -28.016  -0.814  28.878  0.00  0.00    +0.104 A 
ATOM      5  C   UNL A   1     -28.469  -0.785  29.829  0.00  0.00    +0.073 A 
ATOM      6  N   UNL A   1     -26.634  -1.022  28.802  0.00  0.00    -0.232 NA
ATOM      7  C   UNL A   1     -25.920  -1.042  29.777  0.00  0.00    +0.138 A 
ATOM      8 CL   UNL A   1     -24.162  -1.310  29.798  0.00  0.00    -0.061 Cl
ATOM      9  C   UNL A   1     -27.840  -0.921  31.178  0.00  0.00    +0.009 A 
ATOM     10  C   UNL A   1     -26.438  -1.103  31.135  0.00  0.00    +0.031 A 
ENDBRANCH   1   5
BRANCH   2  11
ATOM     11  C   UNL A   1     -30.285  -2.087  31.910  0.00  0.00    +0.065 A 
ATOM     12  C   UNL A   1     -30.138  -1.599  33.205  0.00  0.00    +0.015 A 
ATOM     13  C   UNL A   1     -29.838  -2.453  34.260  0.00  0.00    +0.001 A 
ATOM     14  C   UNL A   1     -29.589  -3.801  33.955  0.00  0.00    +0.000 A 
ATOM     15  C   UNL A   1     -30.066  -3.396  31.639  0.00  0.00    +0.094 A 
ATOM     16  C   UNL A   1     -29.711  -4.257  32.663  0.00  0.00    +0.008 A 
BRANCH  15  17
ATOM     17  C   UNL A   1     -30.173  -3.897  30.264  0.00  0.00    +0.389 C 
ATOM     18  O   UNL A   1     -29.335  -4.831  29.979  0.00  0.00    -0.240 OA
ATOM     19  O   UNL A   1     -31.037  -3.504  29.454  0.00  0.00    -0.240 OA
ENDBRANCH  15  17
ENDBRANCH   2  11
BRANCH   2  20
ATOM     20  C   UNL A   1     -32.172  -0.899  30.953  0.00  0.00    +0.058 A 
ATOM     21  C   UNL A   1     -32.741  -0.155  31.672  0.00  0.00    +0.015 A 
ATOM     22  C   UNL A   1     -34.148   0.093  31.684  0.00  0.00    +0.001 A 
ATOM     23  C   UNL A   1     -34.884  -0.652  30.757  0.00  0.00    +0.000 A 
ATOM     24  C   UNL A   1     -34.270  -1.524  29.914  0.00  0.00    +0.001 A 
ATOM     25  C   UNL A   1     -32.880  -1.704  29.970  0.00  0.00    +0.015 A 
BRANCH  24  26
ATOM     26  C   UNL A   1     -34.991  -2.310  28.926  0.00  0.00    -0.004 C 
ATOM     27  C   UNL A   1     -34.743  -3.535  28.647  0.00  0.00    -0.021 C 
BRANCH  27  28
ATOM     28  C   UNL A   1     -33.745  -4.176  29.400  0.00  0.00    +0.052 C 
BRANCH  28  29
ATOM     29  C   UNL A   1     -33.329  -5.601  29.066  0.00  0.00    -0.018 A 
ATOM     30  C   UNL A   1     -32.499  -6.179  29.970  0.00  0.00    -0.004 A 
ATOM     31  C   UNL A   1     -31.967  -7.399  29.697  0.00  0.00    -0.000 A 
ATOM     32  C   UNL A   1     -32.163  -7.988  28.383  0.00  0.00    -0.000 A 
ATOM     33  C   UNL A   1     -32.903  -7.270  27.482  0.00  0.00    -0.000 A 
ATOM     34  C   UNL A   1     -33.420  -6.033  27.772  0.00  0.00    -0.004 A 
ENDBRANCH  28  29
ENDBRANCH  27  28
ENDBRANCH  24  26
ENDBRANCH   2  20
TORSDOF 7
