MODEL 77
MODEL 1
REMARK VINA RESULT:    -5.348      0.000      0.000
REMARK INTER + INTRA:          -5.348
REMARK INTER:                  -5.348
REMARK INTRA:                   0.000
REMARK UNBOUND:                 0.000
REMARK  Name = No_77-gen_results/8p0m/2024-11-26-14-13-15/
REMARK  0 active torsions:
REMARK  status: ('A' for Active; 'I' for Inactive)
REMARK                            x       y       z     vdW  Elec       q    Type
REMARK                         _______ _______ _______ _____ _____    ______ ____
ROOT
ATOM      1  C   UNL A   1     -25.243  -5.248  29.161  0.00  0.00    +0.000 A 
ATOM      2  C   UNL A   1     -26.134  -4.804  29.507  0.00  0.00    +0.000 A 
ATOM      3  C   UNL A   1     -24.104  -4.290  28.887  0.00  0.00    +0.000 A 
ATOM      4  C   UNL A   1     -24.246  -2.930  29.236  0.00  0.00    +0.000 A 
ATOM      5  C   UNL A   1     -26.527  -3.455  29.973  0.00  0.00    +0.000 A 
ATOM      6  C   UNL A   1     -25.502  -2.548  29.743  0.00  0.00    +0.000 A 
ATOM      7  C   UNL A   1     -23.216  -1.981  28.985  0.00  0.00    +0.000 A 
ATOM      8  C   UNL A   1     -23.207  -0.922  29.308  0.00  0.00    +0.000 A 
ATOM      9  C   UNL A   1     -24.475  -0.385  29.912  0.00  0.00    +0.000 A 
ATOM     10  C   UNL A   1     -25.581  -1.157  30.056  0.00  0.00    +0.000 A 
ENDROOT
TORSDOF 0
ENDMDL
ENDMDL
