REMARK  Name = No_780-gen_results/8p0m/2024-11-26-14-13-15/
REMARK  2 active torsions:
REMARK  status: ('A' for Active; 'I' for Inactive)
REMARK    1  A    between atoms: C_3  and  C_4
REMARK    2  A    between atoms: C_4  and  C_5
REMARK                            x       y       z     vdW  Elec       q    Type
REMARK                         _______ _______ _______ _____ _____    ______ ____
ROOT
ATOM      1  C   UNL A   1     -24.583   1.378  27.892  0.00  0.00    -0.018 A 
ATOM      2  C   UNL A   1     -23.496   2.106  27.489  0.00  0.00    -0.004 A 
ATOM      3  C   UNL A   1     -22.348   1.444  27.102  0.00  0.00    -0.000 A 
ATOM      4  C   UNL A   1     -21.843   0.664  27.953  0.00  0.00    -0.000 A 
ATOM      5  C   UNL A   1     -22.693  -0.205  28.776  0.00  0.00    -0.000 A 
ATOM      6  C   UNL A   1     -24.019   0.335  28.880  0.00  0.00    -0.004 A 
ENDROOT
BRANCH   1   7
ATOM      7  C   UNL A   1     -25.752   1.788  28.675  0.00  0.00    +0.045 C 
ATOM      8  C   UNL A   1     -25.796   3.415  28.550  0.00  0.00    +0.009 C 
BRANCH   7  11
ATOM      9 BR   UNL A   1     -28.115  -0.626  29.081  0.00  0.00    -0.049 Br
ATOM     10  C   UNL A   1     -27.492   0.814  29.355  0.00  0.00    +0.036 C 
ATOM     11  C   UNL A   1     -26.710   1.412  28.994  0.00  0.00    -0.015 C 
ENDBRANCH   7  11
ENDBRANCH   1   7
TORSDOF 2
