MODEL 780
MODEL 1
REMARK VINA RESULT:    -5.556      0.000      0.000
REMARK INTER + INTRA:          -6.558
REMARK INTER:                  -6.205
REMARK INTRA:                  -0.352
REMARK UNBOUND:                -0.352
REMARK  Name = No_780-gen_results/8p0m/2024-11-26-14-13-15/
REMARK  2 active torsions:
REMARK  status: ('A' for Active; 'I' for Inactive)
REMARK    1  A    between atoms: C_3  and  C_4
REMARK    2  A    between atoms: C_4  and  C_5
REMARK                            x       y       z     vdW  Elec       q    Type
REMARK                         _______ _______ _______ _____ _____    ______ ____
ROOT
ATOM      1  C   UNL A   1     -24.309  -2.732  28.843  0.00  0.00    -0.018 A 
ATOM      2  C   UNL A   1     -23.973  -4.047  29.019  0.00  0.00    -0.004 A 
ATOM      3  C   UNL A   1     -24.944  -5.017  28.870  0.00  0.00    -0.000 A 
ATOM      4  C   UNL A   1     -25.960  -4.903  29.606  0.00  0.00    -0.000 A 
ATOM      5  C   UNL A   1     -26.569  -3.590  29.852  0.00  0.00    -0.000 A 
ATOM      6  C   UNL A   1     -25.608  -2.542  29.655  0.00  0.00    -0.004 A 
ENDROOT
BRANCH   1   7
ATOM      7  C   UNL A   1     -23.617  -1.517  29.280  0.00  0.00    +0.045 C 
ATOM      8  C   UNL A   1     -23.782  -1.496  30.904  0.00  0.00    +0.009 C 
BRANCH   7  11
ATOM      9 BR   UNL A   1     -22.312   1.285  27.858  0.00  0.00    -0.049 Br
ATOM     10  C   UNL A   1     -22.219  -0.034  28.745  0.00  0.00    +0.036 C 
ATOM     11  C   UNL A   1     -22.812  -0.866  28.978  0.00  0.00    -0.015 C 
ENDBRANCH   7  11
ENDBRANCH   1   7
TORSDOF 2
ENDMDL
ENDMDL
