MODEL 781
MODEL 1
REMARK VINA RESULT:    -6.483      0.000      0.000
REMARK INTER + INTRA:          -7.062
REMARK INTER:                  -6.862
REMARK INTRA:                  -0.201
REMARK UNBOUND:                -0.201
REMARK  Name = No_781-gen_results/8p0m/2024-11-26-14-13-15/
REMARK  1 active torsions:
REMARK  status: ('A' for Active; 'I' for Inactive)
REMARK    1  A    between atoms: C_9  and  C_11
REMARK                            x       y       z     vdW  Elec       q    Type
REMARK                         _______ _______ _______ _____ _____    ______ ____
ROOT
ATOM      1  C   UNL A   1     -26.487  -3.356  30.023  0.00  0.00    -0.000 A 
ATOM      2  C   UNL A   1     -25.547  -2.600  29.949  0.00  0.00    -0.000 A 
ATOM      3  C   UNL A   1     -24.330  -3.016  29.420  0.00  0.00    -0.000 A 
ATOM      4  C   UNL A   1     -24.137  -4.376  28.985  0.00  0.00    -0.000 A 
ATOM      5  C   UNL A   1     -25.269  -5.189  29.129  0.00  0.00    -0.000 A 
ATOM      6  C   UNL A   1     -26.392  -4.751  29.651  0.00  0.00    -0.000 A 
ATOM      7  C   UNL A   1     -25.557  -1.174  30.373  0.00  0.00    -0.000 A 
ATOM      8  C   UNL A   1     -24.844  -0.265  29.807  0.00  0.00    +0.004 A 
ATOM      9  C   UNL A   1     -23.518  -0.692  29.187  0.00  0.00    +0.071 A 
ATOM     10  C   UNL A   1     -23.342  -2.038  28.890  0.00  0.00    +0.004 A 
ENDROOT
BRANCH   9  11
ATOM     11  C   UNL A   1     -22.515   0.297  28.814  0.00  0.00    +0.419 C 
ATOM     12  F   UNL A   1     -22.602   1.321  29.521  0.00  0.00    -0.166 F 
ATOM     13  F   UNL A   1     -22.704   0.662  27.475  0.00  0.00    -0.166 F 
ATOM     14  F   UNL A   1     -21.286  -0.258  28.899  0.00  0.00    -0.166 F 
ENDBRANCH   9  11
TORSDOF 1
ENDMDL
ENDMDL
