REMARK  Name = No_782-gen_results/8p0m/2024-11-26-14-13-15/
REMARK  6 active torsions:
REMARK  status: ('A' for Active; 'I' for Inactive)
REMARK    1  A    between atoms: C_6  and  C_13
REMARK    2  A    between atoms: C_15  and  C_22
REMARK    3  A    between atoms: C_17  and  C_19
REMARK    4  A    between atoms: C_22  and  O_24
REMARK    5  A    between atoms: O_24  and  C_25
REMARK    6  A    between atoms: C_26  and  C_27
REMARK                            x       y       z     vdW  Elec       q    Type
REMARK                         _______ _______ _______ _____ _____    ______ ____
ROOT
ATOM      1  C   UNL A   1     -26.776   2.830  30.312  0.00  0.00    -0.018 A 
ATOM      2  C   UNL A   1     -27.736   3.483  29.805  0.00  0.00    +0.003 A 
ATOM      3  C   UNL A   1     -27.911   4.729  30.191  0.00  0.00    +0.077 A 
ATOM      4  C   UNL A   1     -27.169   5.379  31.206  0.00  0.00    +0.013 A 
ATOM      5  C   UNL A   1     -26.091   4.690  31.794  0.00  0.00    +0.080 A 
ATOM      6  C   UNL A   1     -25.834   3.332  31.306  0.00  0.00    +0.003 A 
ENDROOT
BRANCH   1  12
ATOM      7  O   UNL A   1     -28.123  -1.335  28.487  0.00  0.00    -0.296 OA
ATOM      8  C   UNL A   1     -27.064  -0.824  28.869  0.00  0.00    +0.156 C 
ATOM      9  C   UNL A   1     -25.946  -1.040  28.849  0.00  0.00    +0.091 C 
ATOM     10  C   UNL A   1     -24.760  -0.156  29.164  0.00  0.00    -0.015 A 
ATOM     11  C   UNL A   1     -25.140   1.073  29.668  0.00  0.00    -0.021 A 
ATOM     12  C   UNL A   1     -26.453   1.394  29.764  0.00  0.00    +0.052 C 
ATOM     13  C   UNL A   1     -27.405   0.628  29.454  0.00  0.00    +0.073 C 
ATOM     14  C   UNL A   1     -23.369  -0.513  29.096  0.00  0.00    +0.038 A 
ATOM     15  C   UNL A   1     -22.400   0.436  28.841  0.00  0.00    +0.195 A 
ATOM     16  C   UNL A   1     -22.828   1.802  28.986  0.00  0.00    +0.042 A 
ATOM     17  C   UNL A   1     -24.059   2.105  29.616  0.00  0.00    -0.001 A 
ATOM     18  O   UNL A   1     -21.159   0.196  28.646  0.00  0.00    -0.287 OA
ENDBRANCH   1  12
BRANCH   5  19
ATOM     19  C   UNL A   1     -25.227   5.227  32.841  0.00  0.00    +0.388 C 
ATOM     20  O   UNL A   1     -24.074   5.228  32.644  0.00  0.00    -0.241 OA
ATOM     21  O   UNL A   1     -25.785   5.681  33.910  0.00  0.00    -0.241 OA
ENDBRANCH   5  19
BRANCH   3  22
ATOM     22  C   UNL A   1     -29.068   5.561  29.659  0.00  0.00    +0.354 C 
ATOM     23  O   UNL A   1     -29.803   5.218  28.871  0.00  0.00    -0.244 OA
BRANCH  22  24
ATOM     24  O   UNL A   1     -29.167   6.834  30.164  0.00  0.00    -0.367 OA
BRANCH  24  25
ATOM     25  C   UNL A   1     -30.013   7.661  29.713  0.00  0.00    +0.135 C 
ATOM     26  C   UNL A   1     -30.489   8.567  29.635  0.00  0.00    +0.031 C 
BRANCH  26  27
ATOM     27  C   UNL A   1     -30.889   9.742  29.727  0.00  0.00    +0.024 C 
ATOM     28  C   UNL A   1     -31.326  10.962  29.740  0.00  0.00    +0.119 C 
ATOM     29  F   UNL A   1     -30.825  11.866  29.592  0.00  0.00    -0.142 F 
ENDBRANCH  26  27
ENDBRANCH  24  25
ENDBRANCH  22  24
ENDBRANCH   3  22
TORSDOF 6
