MODEL 782
MODEL 1
REMARK VINA RESULT:    -7.285      0.000      0.000
REMARK INTER + INTRA:         -11.153
REMARK INTER:                  -9.841
REMARK INTRA:                  -1.312
REMARK UNBOUND:                -1.312
REMARK  Name = No_782-gen_results/8p0m/2024-11-26-14-13-15/
REMARK  6 active torsions:
REMARK  status: ('A' for Active; 'I' for Inactive)
REMARK    1  A    between atoms: C_6  and  C_13
REMARK    2  A    between atoms: C_15  and  C_22
REMARK    3  A    between atoms: C_17  and  C_19
REMARK    4  A    between atoms: C_22  and  O_24
REMARK    5  A    between atoms: O_24  and  C_25
REMARK    6  A    between atoms: C_26  and  C_27
REMARK                            x       y       z     vdW  Elec       q    Type
REMARK                         _______ _______ _______ _____ _____    ______ ____
ROOT
ATOM      1  C   UNL A   1     -10.069  -0.034  36.839  0.00  0.00    -0.018 A 
ATOM      2  C   UNL A   1     -10.744   0.900  36.312  0.00  0.00    +0.003 A 
ATOM      3  C   UNL A   1     -10.307   1.422  35.186  0.00  0.00    +0.077 A 
ATOM      4  C   UNL A   1      -9.083   1.092  34.556  0.00  0.00    +0.013 A 
ATOM      5  C   UNL A   1      -8.303   0.057  35.107  0.00  0.00    +0.080 A 
ATOM      6  C   UNL A   1      -8.828  -0.591  36.313  0.00  0.00    +0.003 A 
ENDROOT
BRANCH   1  12
ATOM      7  O   UNL A   1     -12.792  -3.363  38.837  0.00  0.00    -0.296 OA
ATOM      8  C   UNL A   1     -12.075  -2.436  39.231  0.00  0.00    +0.156 C 
ATOM      9  C   UNL A   1     -11.640  -2.036  40.205  0.00  0.00    +0.091 C 
ATOM     10  C   UNL A   1     -10.562  -1.006  40.459  0.00  0.00    -0.015 A 
ATOM     11  C   UNL A   1     -10.143  -0.387  39.298  0.00  0.00    -0.021 A 
ATOM     12  C   UNL A   1     -10.642  -0.775  38.100  0.00  0.00    +0.052 C 
ATOM     13  C   UNL A   1     -11.518  -1.667  37.941  0.00  0.00    +0.073 C 
ATOM     14  C   UNL A   1     -10.062  -0.571  41.735  0.00  0.00    +0.038 A 
ATOM     15  C   UNL A   1      -8.771  -0.104  41.874  0.00  0.00    +0.195 A 
ATOM     16  C   UNL A   1      -8.104   0.226  40.643  0.00  0.00    +0.042 A 
ATOM     17  C   UNL A   1      -8.835   0.326  39.435  0.00  0.00    -0.001 A 
ATOM     18  O   UNL A   1      -8.203   0.192  42.981  0.00  0.00    -0.287 OA
ENDBRANCH   1  12
BRANCH   5  19
ATOM     19  C   UNL A   1      -7.028  -0.405  34.569  0.00  0.00    +0.388 C 
ATOM     20  O   UNL A   1      -6.978  -1.500  34.160  0.00  0.00    -0.241 OA
ATOM     21  O   UNL A   1      -6.040   0.422  34.562  0.00  0.00    -0.241 OA
ENDBRANCH   5  19
BRANCH   3  22
ATOM     22  C   UNL A   1     -11.040   2.576  34.518  0.00  0.00    +0.354 C 
ATOM     23  O   UNL A   1     -10.662   3.640  34.466  0.00  0.00    -0.244 OA
BRANCH  22  24
ATOM     24  O   UNL A   1     -12.271   2.272  33.990  0.00  0.00    -0.367 OA
BRANCH  24  25
ATOM     25  C   UNL A   1     -13.343   2.622  34.565  0.00  0.00    +0.135 C 
ATOM     26  C   UNL A   1     -13.959   2.815  35.363  0.00  0.00    +0.031 C 
BRANCH  26  27
ATOM     27  C   UNL A   1     -14.490   2.980  36.477  0.00  0.00    +0.024 C 
ATOM     28  C   UNL A   1     -14.998   3.223  37.644  0.00  0.00    +0.119 C 
ATOM     29  F   UNL A   1     -14.707   2.899  38.593  0.00  0.00    -0.142 F 
ENDBRANCH  26  27
ENDBRANCH  24  25
ENDBRANCH  22  24
ENDBRANCH   3  22
TORSDOF 6
ENDMDL
ENDMDL
