MODEL 783
MODEL 1
REMARK VINA RESULT:    -5.535      0.000      0.000
REMARK INTER + INTRA:          -6.555
REMARK INTER:                  -6.183
REMARK INTRA:                  -0.372
REMARK UNBOUND:                -0.372
REMARK  Name = No_783-gen_results/8p0m/2024-11-26-14-13-15/
REMARK  2 active torsions:
REMARK  status: ('A' for Active; 'I' for Inactive)
REMARK    1  A    between atoms: C_3  and  C_4
REMARK    2  A    between atoms: C_5  and  C_6
REMARK                            x       y       z     vdW  Elec       q    Type
REMARK                         _______ _______ _______ _____ _____    ______ ____
ROOT
ATOM      1  C   UNL A   1     -26.496  -3.749  29.947  0.00  0.00    -0.000 A 
ATOM      2  C   UNL A   1     -25.888  -2.708  30.033  0.00  0.00    -0.000 A 
ATOM      3  C   UNL A   1     -24.605  -2.543  29.620  0.00  0.00    -0.004 A 
ATOM      4  C   UNL A   1     -25.854  -4.917  29.317  0.00  0.00    -0.000 A 
ATOM      5  C   UNL A   1     -24.591  -4.849  28.911  0.00  0.00    -0.000 A 
ATOM      6  C   UNL A   1     -23.912  -3.644  29.029  0.00  0.00    -0.000 A 
ENDROOT
BRANCH   3   7
ATOM      7  C   UNL A   1     -23.847  -1.275  29.716  0.00  0.00    -0.022 C 
ATOM      8  C   UNL A   1     -22.659  -1.169  28.921  0.00  0.00    -0.004 C 
ATOM      9  C   UNL A   1     -23.289  -0.852  31.033  0.00  0.00    +0.031 C 
BRANCH   8  10
ATOM     10  C   UNL A   1     -21.851  -0.022  28.968  0.00  0.00    -0.000 C 
ATOM     11  C   UNL A   1     -21.984   0.902  28.027  0.00  0.00    -0.000 C 
ENDBRANCH   8  10
ENDBRANCH   3   7
TORSDOF 2
ENDMDL
ENDMDL
