REMARK  Name = No_784-gen_results/8p0m/2024-11-26-14-13-15/
REMARK  6 active torsions:
REMARK  status: ('A' for Active; 'I' for Inactive)
REMARK    1  A    between atoms: C_1  and  C_2
REMARK    2  A    between atoms: C_5  and  C_11
REMARK    3  A    between atoms: N_8  and  C_10
REMARK    4  A    between atoms: C_10  and  C_15
REMARK    5  A    between atoms: C_15  and  C_16
REMARK    6  A    between atoms: C_15  and  C_23
REMARK                            x       y       z     vdW  Elec       q    Type
REMARK                         _______ _______ _______ _____ _____    ______ ____
ROOT
ATOM      1  C   UNL A   1     -28.016  -0.814  28.878  0.00  0.00    +0.249 C 
ATOM      2  N   UNL A   1     -27.982  -1.637  30.075  0.00  0.00    -0.273 N 
ATOM      3  O   UNL A   1     -29.216  -0.413  28.663  0.00  0.00    -0.270 OA
ATOM      4  C   UNL A   1     -26.659  -2.048  30.632  0.00  0.00    +0.115 C 
ENDROOT
BRANCH   1   5
ATOM      5  C   UNL A   1     -27.064  -0.119  28.608  0.00  0.00    +0.054 A 
ATOM      6  C   UNL A   1     -26.929   1.171  29.008  0.00  0.00    +0.004 A 
ATOM      7  C   UNL A   1     -25.770   2.034  28.688  0.00  0.00    +0.004 A 
ATOM      8  C   UNL A   1     -24.714   1.443  27.919  0.00  0.00    +0.071 A 
ATOM      9  C   UNL A   1     -24.859   0.078  27.584  0.00  0.00    +0.004 A 
ATOM     10  C   UNL A   1     -25.965  -0.661  27.916  0.00  0.00    +0.004 A 
BRANCH   8  11
ATOM     11  C   UNL A   1     -23.534   2.161  27.567  0.00  0.00    +0.419 C 
ATOM     12  F   UNL A   1     -23.328   2.717  26.726  0.00  0.00    -0.166 F 
ATOM     13  F   UNL A   1     -23.026   2.807  28.727  0.00  0.00    -0.166 F 
ATOM     14  F   UNL A   1     -22.411   1.127  27.638  0.00  0.00    -0.166 F 
ENDBRANCH   8  11
ENDBRANCH   1   5
BRANCH   2  15
ATOM     15  C   UNL A   1     -29.016  -2.482  30.586  0.00  0.00    +0.109 C 
BRANCH  15  16
ATOM     16  C   UNL A   1     -29.364  -2.146  31.880  0.00  0.00    +0.145 C 
BRANCH  16  17
ATOM     17  C   UNL A   1     -29.083  -0.911  32.277  0.00  0.00    -0.010 A 
ATOM     18  C   UNL A   1     -29.530   0.123  31.898  0.00  0.00    -0.004 A 
ATOM     19  C   UNL A   1     -29.269   1.449  32.472  0.00  0.00    -0.000 A 
ATOM     20  C   UNL A   1     -28.419   1.495  33.571  0.00  0.00    -0.000 A 
ATOM     21  C   UNL A   1     -28.226  -0.835  33.613  0.00  0.00    -0.004 A 
ATOM     22  C   UNL A   1     -27.920   0.351  34.160  0.00  0.00    -0.000 A 
ENDBRANCH  16  17
BRANCH  16  23
ATOM     23  C   UNL A   1     -30.019  -3.175  32.653  0.00  0.00    +0.370 C 
ATOM     24  O   UNL A   1     -29.986  -4.271  32.505  0.00  0.00    -0.245 OA
ATOM     25  O   UNL A   1     -30.628  -2.738  33.796  0.00  0.00    -0.245 OA
ENDBRANCH  16  23
ENDBRANCH  15  16
ENDBRANCH   2  15
TORSDOF 6
