MODEL 784
MODEL 1
REMARK VINA RESULT:    -6.706      0.000      0.000
REMARK INTER + INTRA:          -9.666
REMARK INTER:                  -9.058
REMARK INTRA:                  -0.608
REMARK UNBOUND:                -0.608
REMARK  Name = No_784-gen_results/8p0m/2024-11-26-14-13-15/
REMARK  6 active torsions:
REMARK  status: ('A' for Active; 'I' for Inactive)
REMARK    1  A    between atoms: C_1  and  C_2
REMARK    2  A    between atoms: C_5  and  C_11
REMARK    3  A    between atoms: N_8  and  C_10
REMARK    4  A    between atoms: C_10  and  C_15
REMARK    5  A    between atoms: C_15  and  C_16
REMARK    6  A    between atoms: C_15  and  C_23
REMARK                            x       y       z     vdW  Elec       q    Type
REMARK                         _______ _______ _______ _____ _____    ______ ____
ROOT
ATOM      1  C   UNL A   1      -9.517   1.489  36.579  0.00  0.00    +0.249 C 
ATOM      2  N   UNL A   1      -8.070   1.589  36.670  0.00  0.00    -0.273 N 
ATOM      3  O   UNL A   1      -9.890   1.724  35.374  0.00  0.00    -0.270 OA
ATOM      4  C   UNL A   1      -7.395   1.158  37.930  0.00  0.00    +0.115 C 
ENDROOT
BRANCH   1   5
ATOM      5  C   UNL A   1     -10.102   0.691  37.273  0.00  0.00    +0.054 A 
ATOM      6  C   UNL A   1     -10.835   1.029  38.364  0.00  0.00    +0.004 A 
ATOM      7  C   UNL A   1     -11.559   0.066  39.223  0.00  0.00    +0.004 A 
ATOM      8  C   UNL A   1     -11.489  -1.317  38.849  0.00  0.00    +0.071 A 
ATOM      9  C   UNL A   1     -10.777  -1.619  37.666  0.00  0.00    +0.004 A 
ATOM     10  C   UNL A   1     -10.129  -0.671  36.919  0.00  0.00    +0.004 A 
BRANCH   8  11
ATOM     11  C   UNL A   1     -12.163  -2.339  39.579  0.00  0.00    +0.419 C 
ATOM     12  F   UNL A   1     -12.738  -3.121  39.238  0.00  0.00    -0.166 F 
ATOM     13  F   UNL A   1     -11.329  -2.764  40.650  0.00  0.00    -0.166 F 
ATOM     14  F   UNL A   1     -13.062  -1.590  40.562  0.00  0.00    -0.166 F 
ENDBRANCH   8  11
ENDBRANCH   1   5
BRANCH   2  15
ATOM     15  C   UNL A   1      -7.200   2.428  35.907  0.00  0.00    +0.109 C 
BRANCH  15  16
ATOM     16  C   UNL A   1      -6.813   1.830  34.723  0.00  0.00    +0.145 C 
BRANCH  16  17
ATOM     17  C   UNL A   1      -6.564   0.526  34.762  0.00  0.00    -0.010 A 
ATOM     18  C   UNL A   1      -7.253  -0.384  34.431  0.00  0.00    -0.004 A 
ATOM     19  C   UNL A   1      -6.864  -1.798  34.379  0.00  0.00    -0.000 A 
ATOM     20  C   UNL A   1      -5.559  -2.099  34.750  0.00  0.00    -0.000 A 
ATOM     21  C   UNL A   1      -5.044   0.162  35.048  0.00  0.00    -0.004 A 
ATOM     22  C   UNL A   1      -4.639  -1.117  35.056  0.00  0.00    -0.000 A 
ENDBRANCH  16  17
BRANCH  16  23
ATOM     23  C   UNL A   1      -6.746   2.689  33.565  0.00  0.00    +0.370 C 
ATOM     24  O   UNL A   1      -5.848   3.093  33.061  0.00  0.00    -0.245 OA
ATOM     25  O   UNL A   1      -7.939   2.898  32.932  0.00  0.00    -0.245 OA
ENDBRANCH  16  23
ENDBRANCH  15  16
ENDBRANCH   2  15
TORSDOF 6
ENDMDL
ENDMDL
