REMARK  Name = No_785-gen_results/8p0m/2024-11-26-14-13-15/
REMARK  2 active torsions:
REMARK  status: ('A' for Active; 'I' for Inactive)
REMARK    1  A    between atoms: C_3  and  C_7
REMARK    2  A    between atoms: C_9  and  C_13
REMARK                            x       y       z     vdW  Elec       q    Type
REMARK                         _______ _______ _______ _____ _____    ______ ____
ROOT
ATOM      1  C   UNL A   1     -27.460   0.380  26.709  0.00  0.00    +0.081 A 
ATOM      2  N   UNL A   1     -27.883   0.539  25.707  0.00  0.00    -0.244 NA
ATOM      3  C   UNL A   1     -25.941   0.205  26.784  0.00  0.00    +0.018 A 
ATOM      4  C   UNL A   1     -25.356   0.428  25.551  0.00  0.00    +0.003 A 
ATOM      5  C   UNL A   1     -27.355   0.611  24.455  0.00  0.00    +0.099 A 
ATOM      6  C   UNL A   1     -25.973   0.525  24.389  0.00  0.00    +0.021 A 
ENDROOT
BRANCH   1   9
ATOM      7  C   UNL A   1     -28.016  -0.814  28.878  0.00  0.00    +0.002 A 
ATOM      8  C   UNL A   1     -28.469  -0.785  29.829  0.00  0.00    +0.000 A 
ATOM      9  C   UNL A   1     -28.196   0.348  28.055  0.00  0.00    +0.018 A 
ATOM     10  C   UNL A   1     -29.019   1.350  28.378  0.00  0.00    +0.002 A 
ATOM     11  C   UNL A   1     -29.411   0.180  30.378  0.00  0.00    +0.000 A 
ATOM     12  C   UNL A   1     -29.606   1.250  29.619  0.00  0.00    +0.000 A 
ENDBRANCH   1   9
BRANCH   3  13
ATOM     13  C   UNL A   1     -25.177  -0.001  28.000  0.00  0.00    +0.001 A 
ATOM     14  C   UNL A   1     -24.899  -1.165  28.448  0.00  0.00    +0.000 A 
ATOM     15  C   UNL A   1     -24.052  -1.405  29.545  0.00  0.00    +0.000 A 
ATOM     16  C   UNL A   1     -24.654   1.134  28.690  0.00  0.00    +0.000 A 
ATOM     17  C   UNL A   1     -23.890   1.032  29.827  0.00  0.00    +0.000 A 
ATOM     18  C   UNL A   1     -23.564  -0.269  30.279  0.00  0.00    +0.000 A 
ENDBRANCH   3  13
TORSDOF 2
