MODEL 785
MODEL 1
REMARK VINA RESULT:    -7.214      0.000      0.000
REMARK INTER + INTRA:          -9.146
REMARK INTER:                  -8.057
REMARK INTRA:                  -1.089
REMARK UNBOUND:                -1.089
REMARK  Name = No_785-gen_results/8p0m/2024-11-26-14-13-15/
REMARK  2 active torsions:
REMARK  status: ('A' for Active; 'I' for Inactive)
REMARK    1  A    between atoms: C_3  and  C_7
REMARK    2  A    between atoms: C_9  and  C_13
REMARK                            x       y       z     vdW  Elec       q    Type
REMARK                         _______ _______ _______ _____ _____    ______ ____
ROOT
ATOM      1  C   UNL A   1     -24.309   0.204  29.678  0.00  0.00    +0.081 A 
ATOM      2  N   UNL A   1     -24.120   1.207  29.271  0.00  0.00    -0.244 NA
ATOM      3  C   UNL A   1     -24.708  -0.874  28.667  0.00  0.00    +0.018 A 
ATOM      4  C   UNL A   1     -24.614  -0.397  27.373  0.00  0.00    +0.003 A 
ATOM      5  C   UNL A   1     -24.167   1.749  28.024  0.00  0.00    +0.099 A 
ATOM      6  C   UNL A   1     -24.462   0.860  27.002  0.00  0.00    +0.021 A 
ENDROOT
BRANCH   1   9
ATOM      7  C   UNL A   1     -22.996  -0.977  31.500  0.00  0.00    +0.002 A 
ATOM      8  C   UNL A   1     -22.898  -1.227  32.519  0.00  0.00    +0.000 A 
ATOM      9  C   UNL A   1     -24.188  -0.267  31.133  0.00  0.00    +0.018 A 
ATOM     10  C   UNL A   1     -25.206  -0.067  31.976  0.00  0.00    +0.002 A 
ATOM     11  C   UNL A   1     -23.873  -1.127  33.596  0.00  0.00    +0.000 A 
ATOM     12  C   UNL A   1     -24.991  -0.493  33.267  0.00  0.00    +0.000 A 
ENDBRANCH   1   9
BRANCH   3  13
ATOM     13  C   UNL A   1     -24.988  -2.262  28.984  0.00  0.00    +0.001 A 
ATOM     14  C   UNL A   1     -26.082  -2.634  29.530  0.00  0.00    +0.000 A 
ATOM     15  C   UNL A   1     -26.444  -3.979  29.730  0.00  0.00    +0.000 A 
ATOM     16  C   UNL A   1     -24.041  -3.262  28.612  0.00  0.00    +0.000 A 
ATOM     17  C   UNL A   1     -24.239  -4.602  28.839  0.00  0.00    +0.000 A 
ATOM     18  C   UNL A   1     -25.475  -4.991  29.408  0.00  0.00    +0.000 A 
ENDBRANCH   3  13
TORSDOF 2
ENDMDL
ENDMDL
