REMARK  Name = No_787-gen_results/8p0m/2024-11-26-14-13-15/
REMARK  2 active torsions:
REMARK  status: ('A' for Active; 'I' for Inactive)
REMARK    1  A    between atoms: C_2  and  C_13
REMARK    2  A    between atoms: C_4  and  C_7
REMARK                            x       y       z     vdW  Elec       q    Type
REMARK                         _______ _______ _______ _____ _____    ______ ____
ROOT
ATOM      1  C   UNL A   1     -28.016  -0.814  28.878  0.00  0.00    +0.076 C 
ATOM      2  C   UNL A   1     -28.469  -0.785  29.829  0.00  0.00    +0.111 C 
ATOM      3  C   UNL A   1     -26.546  -0.876  28.850  0.00  0.00    +0.155 C 
ATOM      4  C   UNL A   1     -25.804  -1.032  30.057  0.00  0.00    +0.080 C 
ATOM      5  C   UNL A   1     -26.537  -1.039  31.217  0.00  0.00    +0.012 C 
ATOM      6  C   UNL A   1     -27.884  -0.953  31.186  0.00  0.00    +0.013 C 
ATOM      7  O   UNL A   1     -25.891  -0.809  27.694  0.00  0.00    -0.296 OA
ENDROOT
BRANCH   4   8
ATOM      8  C   UNL A   1     -24.366  -1.113  30.048  0.00  0.00    -0.015 A 
ATOM      9  C   UNL A   1     -23.745  -1.369  30.812  0.00  0.00    -0.004 A 
ATOM     10  C   UNL A   1     -22.207  -1.250  30.858  0.00  0.00    -0.000 A 
ATOM     11  C   UNL A   1     -21.686  -0.819  29.653  0.00  0.00    -0.000 A 
ATOM     12  C   UNL A   1     -23.808  -0.788  28.669  0.00  0.00    -0.004 A 
ATOM     13  C   UNL A   1     -22.445  -0.573  28.598  0.00  0.00    -0.000 A 
ENDBRANCH   4   8
BRANCH   2  14
ATOM     14  C   UNL A   1     -30.060  -0.667  29.916  0.00  0.00    +0.365 C 
ATOM     15  O   UNL A   1     -30.510  -0.188  28.983  0.00  0.00    -0.246 OA
ATOM     16  O   UNL A   1     -30.736  -1.047  30.939  0.00  0.00    -0.246 OA
ENDBRANCH   2  14
TORSDOF 2
