MODEL 787
MODEL 1
REMARK VINA RESULT:    -6.813      0.000      0.000
REMARK INTER + INTRA:          -7.371
REMARK INTER:                  -7.609
REMARK INTRA:                   0.238
REMARK UNBOUND:                 0.238
REMARK  Name = No_787-gen_results/8p0m/2024-11-26-14-13-15/
REMARK  2 active torsions:
REMARK  status: ('A' for Active; 'I' for Inactive)
REMARK    1  A    between atoms: C_2  and  C_13
REMARK    2  A    between atoms: C_4  and  C_7
REMARK                            x       y       z     vdW  Elec       q    Type
REMARK                         _______ _______ _______ _____ _____    ______ ____
ROOT
ATOM      1  C   UNL A   1     -28.971 -10.428  32.742  0.00  0.00    +0.076 C 
ATOM      2  C   UNL A   1     -28.235 -11.176  32.833  0.00  0.00    +0.111 C 
ATOM      3  C   UNL A   1     -29.547 -10.228  31.403  0.00  0.00    +0.155 C 
ATOM      4  C   UNL A   1     -29.215 -11.109  30.333  0.00  0.00    +0.080 C 
ATOM      5  C   UNL A   1     -28.285 -12.078  30.617  0.00  0.00    +0.012 C 
ATOM      6  C   UNL A   1     -27.769 -12.199  31.859  0.00  0.00    +0.013 C 
ATOM      7  O   UNL A   1     -30.403  -9.235  31.179  0.00  0.00    -0.296 OA
ENDROOT
BRANCH   4   8
ATOM      8  C   UNL A   1     -29.782 -10.942  29.020  0.00  0.00    -0.015 A 
ATOM      9  C   UNL A   1     -30.551 -10.337  28.739  0.00  0.00    -0.004 A 
ATOM     10  C   UNL A   1     -31.289 -10.319  27.383  0.00  0.00    -0.000 A 
ATOM     11  C   UNL A   1     -30.724 -11.193  26.475  0.00  0.00    -0.000 A 
ATOM     12  C   UNL A   1     -29.049 -11.794  27.993  0.00  0.00    -0.004 A 
ATOM     13  C   UNL A   1     -29.659 -11.924  26.761  0.00  0.00    -0.000 A 
ENDBRANCH   4   8
BRANCH   2  14
ATOM     14  C   UNL A   1     -27.541 -11.400  34.255  0.00  0.00    +0.365 C 
ATOM     15  O   UNL A   1     -27.606 -12.485  34.602  0.00  0.00    -0.246 OA
ATOM     16  O   UNL A   1     -27.002 -10.450  34.929  0.00  0.00    -0.246 OA
ENDBRANCH   2  14
TORSDOF 2
ENDMDL
ENDMDL
