REMARK  Name = No_788-gen_results/8p0m/2024-11-26-14-13-15/
REMARK  8 active torsions:
REMARK  status: ('A' for Active; 'I' for Inactive)
REMARK    1  A    between atoms: C_3  and  C_4
REMARK    2  A    between atoms: C_7  and  N_17
REMARK    3  A    between atoms: C_8  and  C_9
REMARK    4  A    between atoms: C_14  and  N_15
REMARK    5  A    between atoms: N_15  and  N_16
REMARK    6  A    between atoms: N_17  and  C_19
REMARK    7  A    between atoms: N_17  and  C_20
REMARK    8  A    between atoms: C_20  and  N_22
REMARK                            x       y       z     vdW  Elec       q    Type
REMARK                         _______ _______ _______ _____ _____    ______ ____
ROOT
ATOM      1  C   UNL A   1     -28.016  -0.814  28.878  0.00  0.00    +0.001 A 
ATOM      2  C   UNL A   1     -28.469  -0.785  29.829  0.00  0.00    +0.000 A 
ATOM      3  C   UNL A   1     -27.087   0.290  28.638  0.00  0.00    +0.013 A 
ATOM      4  C   UNL A   1     -28.391   0.104  30.980  0.00  0.00    +0.001 A 
ATOM      5  C   UNL A   1     -27.533   1.167  30.787  0.00  0.00    +0.015 A 
ATOM      6  C   UNL A   1     -26.828   1.256  29.645  0.00  0.00    +0.049 A 
ENDROOT
BRANCH   3   7
ATOM      7  C   UNL A   1     -26.252   0.411  27.422  0.00  0.00    +0.001 C 
ATOM      8  C   UNL A   1     -25.138   0.675  27.231  0.00  0.00    +0.002 C 
BRANCH   8   9
ATOM      9  C   UNL A   1     -24.316   0.867  28.442  0.00  0.00    +0.019 A 
ATOM     10  C   UNL A   1     -23.353   0.354  28.637  0.00  0.00    +0.022 A 
ATOM     11  C   UNL A   1     -22.333   0.686  29.721  0.00  0.00    +0.099 A 
ATOM     12  N   UNL A   1     -22.987   1.506  30.587  0.00  0.00    -0.241 NA
ATOM     13  C   UNL A   1     -24.215   1.913  30.376  0.00  0.00    +0.117 A 
ATOM     14  C   UNL A   1     -24.915   1.754  29.403  0.00  0.00    +0.104 A 
BRANCH  14  15
ATOM     15  N   UNL A   1     -25.774   2.769  28.859  0.00  0.00    -0.147 NA
BRANCH  15  16
ATOM     16  N   UNL A   1     -26.590   2.463  29.198  0.00  0.00    -0.110 NA
ATOM     17  C   UNL A   1     -27.464   3.473  29.738  0.00  0.00    +0.134 C 
ENDBRANCH  15  16
ENDBRANCH  14  15
ENDBRANCH   8   9
ENDBRANCH   3   7
BRANCH   6  18
ATOM     18  N   UNL A   1     -25.997   0.298  30.280  0.00  0.00    -0.297 N 
BRANCH  18  19
ATOM     19  C   UNL A   1     -25.561  -0.592  31.000  0.00  0.00    +0.074 C 
ATOM     20  C   UNL A   1     -26.256  -1.694  31.553  0.00  0.00    +0.021 C 
ATOM     21  C   UNL A   1     -25.225   0.386  32.310  0.00  0.00    +0.021 C 
ENDBRANCH  18  19
BRANCH  18  22
ATOM     22  C   UNL A   1     -25.173  -0.186  29.716  0.00  0.00    +0.147 C 
ATOM     23  C   UNL A   1     -25.142  -1.391  28.941  0.00  0.00    +0.041 C 
BRANCH  22  24
ATOM     24  N   UNL A   1     -23.982  -0.650  30.349  0.00  0.00    -0.199 NA
ATOM     25  C   UNL A   1     -23.331  -1.508  30.931  0.00  0.00    +0.109 C 
ENDBRANCH  22  24
ENDBRANCH  18  22
ENDBRANCH   6  18
TORSDOF 8
