MODEL 788
MODEL 1
REMARK VINA RESULT:    -5.633      0.000      0.000
REMARK INTER + INTRA:          -4.305
REMARK INTER:                  -8.267
REMARK INTRA:                   3.963
REMARK UNBOUND:                 3.963
REMARK  Name = No_788-gen_results/8p0m/2024-11-26-14-13-15/
REMARK  8 active torsions:
REMARK  status: ('A' for Active; 'I' for Inactive)
REMARK    1  A    between atoms: C_3  and  C_4
REMARK    2  A    between atoms: C_7  and  N_17
REMARK    3  A    between atoms: C_8  and  C_9
REMARK    4  A    between atoms: C_14  and  N_15
REMARK    5  A    between atoms: N_15  and  N_16
REMARK    6  A    between atoms: N_17  and  C_19
REMARK    7  A    between atoms: N_17  and  C_20
REMARK    8  A    between atoms: C_20  and  N_22
REMARK                            x       y       z     vdW  Elec       q    Type
REMARK                         _______ _______ _______ _____ _____    ______ ____
ROOT
ATOM      1  C   UNL A   1     -26.440   0.419  28.296  0.00  0.00    +0.001 A 
ATOM      2  C   UNL A   1     -26.917   0.582  27.370  0.00  0.00    +0.000 A 
ATOM      3  C   UNL A   1     -25.003   0.176  28.179  0.00  0.00    +0.013 A 
ATOM      4  C   UNL A   1     -26.482   0.623  25.981  0.00  0.00    +0.001 A 
ATOM      5  C   UNL A   1     -25.132   0.385  25.829  0.00  0.00    +0.015 A 
ATOM      6  C   UNL A   1     -24.358   0.210  26.915  0.00  0.00    +0.049 A 
ENDROOT
BRANCH   3   7
ATOM      7  C   UNL A   1     -24.098   0.025  29.341  0.00  0.00    +0.001 C 
ATOM      8  C   UNL A   1     -23.788  -0.871  30.011  0.00  0.00    +0.002 C 
BRANCH   8   9
ATOM      9  C   UNL A   1     -24.330  -2.183  29.606  0.00  0.00    +0.019 A 
ATOM     10  C   UNL A   1     -23.807  -2.904  28.947  0.00  0.00    +0.022 A 
ATOM     11  C   UNL A   1     -24.178  -4.362  28.697  0.00  0.00    +0.099 A 
ATOM     12  N   UNL A   1     -25.444  -4.496  29.176  0.00  0.00    -0.241 NA
ATOM     13  C   UNL A   1     -26.074  -3.516  29.776  0.00  0.00    +0.117 A 
ATOM     14  C   UNL A   1     -25.658  -2.428  30.101  0.00  0.00    +0.104 A 
BRANCH  14  15
ATOM     15  N   UNL A   1     -25.986  -1.784  31.343  0.00  0.00    -0.147 NA
BRANCH  15  16
ATOM     16  N   UNL A   1     -26.881  -1.580  31.167  0.00  0.00    -0.110 NA
ATOM     17  C   UNL A   1     -27.399  -0.408  31.826  0.00  0.00    +0.134 C 
ENDBRANCH  15  16
ENDBRANCH  14  15
ENDBRANCH   8   9
ENDBRANCH   3   7
BRANCH   6  18
ATOM     18  N   UNL A   1     -24.418   1.626  26.979  0.00  0.00    -0.297 N 
BRANCH  18  19
ATOM     19  C   UNL A   1     -24.671   2.782  27.295  0.00  0.00    +0.074 C 
ATOM     20  C   UNL A   1     -25.568   3.246  28.286  0.00  0.00    +0.021 C 
ATOM     21  C   UNL A   1     -25.393   3.208  25.851  0.00  0.00    +0.021 C 
ENDBRANCH  18  19
BRANCH  18  22
ATOM     22  C   UNL A   1     -23.548   2.235  26.660  0.00  0.00    +0.147 C 
ATOM     23  C   UNL A   1     -22.776   2.218  25.453  0.00  0.00    +0.041 C 
BRANCH  22  24
ATOM     24  N   UNL A   1     -22.307   2.225  27.365  0.00  0.00    -0.199 NA
ATOM     25  C   UNL A   1     -21.209   1.744  27.612  0.00  0.00    +0.109 C 
ENDBRANCH  22  24
ENDBRANCH  18  22
ENDBRANCH   6  18
TORSDOF 8
ENDMDL
ENDMDL
