REMARK  Name = No_789-gen_results/8p0m/2024-11-26-14-13-15/
REMARK  5 active torsions:
REMARK  status: ('A' for Active; 'I' for Inactive)
REMARK    1  A    between atoms: C_1  and  C_9
REMARK    2  A    between atoms: C_2  and  O_27
REMARK    3  A    between atoms: C_14  and  C_16
REMARK    4  A    between atoms: C_22  and  C_23
REMARK    5  A    between atoms: O_27  and  C_28
REMARK                            x       y       z     vdW  Elec       q    Type
REMARK                         _______ _______ _______ _____ _____    ______ ____
ROOT
ATOM      1  C   UNL A   1     -28.016  -0.814  28.878  0.00  0.00    +0.091 A 
ATOM      2  C   UNL A   1     -27.064  -0.119  28.608  0.00  0.00    +0.150 A 
ATOM      3  C   UNL A   1     -26.972   0.714  27.506  0.00  0.00    +0.036 A 
ATOM      4  C   UNL A   1     -28.105   0.774  26.642  0.00  0.00    +0.026 A 
ATOM      5  C   UNL A   1     -28.068   1.487  25.512  0.00  0.00    -0.020 A 
ATOM      6  C   UNL A   1     -29.269  -0.533  28.224  0.00  0.00    +0.037 A 
ATOM      7  C   UNL A   1     -29.223   0.136  27.033  0.00  0.00    +0.140 A 
ATOM      8  F   UNL A   1     -30.326   0.195  26.350  0.00  0.00    -0.204 F 
ATOM      9  C   UNL A   1     -26.903   1.925  24.878  0.00  0.00    -0.009 A 
ATOM     10  C   UNL A   1     -29.247   1.722  24.642  0.00  0.00    +0.031 C 
ATOM     11  C   UNL A   1     -25.667   1.887  25.582  0.00  0.00    -0.023 A 
ATOM     12  C   UNL A   1     -25.730   1.205  27.018  0.00  0.00    -0.001 A 
ENDROOT
BRANCH   1  13
ATOM     13  C   UNL A   1     -28.032  -1.667  30.167  0.00  0.00    +0.256 C 
ATOM     14  O   UNL A   1     -27.086  -2.461  30.353  0.00  0.00    -0.270 OA
ATOM     15  N   UNL A   1     -29.015  -1.662  31.000  0.00  0.00    -0.254 N 
ATOM     16  C   UNL A   1     -29.285  -2.309  31.814  0.00  0.00    +0.064 C 
ATOM     17  C   UNL A   1     -30.608  -2.452  32.247  0.00  0.00    -0.000 C 
ATOM     18  C   UNL A   1     -31.329  -1.476  31.800  0.00  0.00    +0.139 C 
ATOM     19  C   UNL A   1     -30.319  -0.824  30.814  0.00  0.00    +0.111 C 
BRANCH  18  20
ATOM     20  C   UNL A   1     -32.626  -1.045  31.856  0.00  0.00    +0.403 C 
ATOM     21  F   UNL A   1     -33.321  -1.530  31.271  0.00  0.00    -0.170 F 
ATOM     22  F   UNL A   1     -32.645   0.366  31.581  0.00  0.00    -0.170 F 
ATOM     23  F   UNL A   1     -32.904  -1.009  33.170  0.00  0.00    -0.170 F 
ENDBRANCH  18  20
ENDBRANCH   1  13
BRANCH  11  24
ATOM     24  C   UNL A   1     -24.422   2.366  25.299  0.00  0.00    +0.022 C 
ATOM     25  C   UNL A   1     -23.746   3.393  26.156  0.00  0.00    +0.005 C 
ATOM     26  C   UNL A   1     -23.405   1.126  25.430  0.00  0.00    +0.005 C 
ENDBRANCH  11  24
BRANCH   2  27
ATOM     27  O   UNL A   1     -25.861  -0.229  29.308  0.00  0.00    -0.453 OA
BRANCH  27  28
ATOM     28  C   UNL A   1     -25.510   0.687  30.300  0.00  0.00    +0.145 A 
ATOM     29  C   UNL A   1     -25.112   0.227  31.486  0.00  0.00    +0.037 A 
ATOM     30  C   UNL A   1     -25.466   0.954  32.683  0.00  0.00    +0.003 A 
ATOM     31  C   UNL A   1     -25.706   2.357  32.577  0.00  0.00    +0.000 A 
ATOM     32  C   UNL A   1     -25.706   2.807  31.546  0.00  0.00    +0.003 A 
ATOM     33  C   UNL A   1     -25.814   2.070  30.231  0.00  0.00    +0.037 A 
ENDBRANCH  27  28
ENDBRANCH   2  27
TORSDOF 5
