MODEL 789
MODEL 1
REMARK VINA RESULT:    -8.071      0.000      0.000
REMARK INTER + INTRA:         -11.733
REMARK INTER:                 -10.430
REMARK INTRA:                  -1.303
REMARK UNBOUND:                -1.303
REMARK  Name = No_789-gen_results/8p0m/2024-11-26-14-13-15/
REMARK  5 active torsions:
REMARK  status: ('A' for Active; 'I' for Inactive)
REMARK    1  A    between atoms: C_1  and  C_9
REMARK    2  A    between atoms: C_2  and  O_27
REMARK    3  A    between atoms: C_14  and  C_16
REMARK    4  A    between atoms: C_22  and  C_23
REMARK    5  A    between atoms: O_27  and  C_28
REMARK                            x       y       z     vdW  Elec       q    Type
REMARK                         _______ _______ _______ _____ _____    ______ ____
ROOT
ATOM      1  C   UNL A   1     -24.783   1.455  25.358  0.00  0.00    +0.091 A 
ATOM      2  C   UNL A   1     -25.758   2.165  25.455  0.00  0.00    +0.150 A 
ATOM      3  C   UNL A   1     -27.042   1.812  25.078  0.00  0.00    +0.036 A 
ATOM      4  C   UNL A   1     -27.227   0.495  24.563  0.00  0.00    +0.026 A 
ATOM      5  C   UNL A   1     -28.417   0.102  24.098  0.00  0.00    -0.020 A 
ATOM      6  C   UNL A   1     -24.989   0.043  25.156  0.00  0.00    +0.037 A 
ATOM      7  C   UNL A   1     -26.181  -0.349  24.615  0.00  0.00    +0.140 A 
ATOM      8  F   UNL A   1     -26.275  -1.589  24.239  0.00  0.00    -0.204 F 
ATOM      9  C   UNL A   1     -29.456   0.960  23.728  0.00  0.00    -0.009 A 
ATOM     10  C   UNL A   1     -28.729  -1.290  23.689  0.00  0.00    +0.031 C 
ATOM     11  C   UNL A   1     -29.407   2.327  24.118  0.00  0.00    -0.023 A 
ATOM     12  C   UNL A   1     -28.064   2.772  24.846  0.00  0.00    -0.001 A 
ENDROOT
BRANCH   1  13
ATOM     13  C   UNL A   1     -23.403   1.935  25.862  0.00  0.00    +0.256 C 
ATOM     14  O   UNL A   1     -22.702   2.615  25.084  0.00  0.00    -0.270 OA
ATOM     15  N   UNL A   1     -22.912   1.587  27.002  0.00  0.00    -0.254 N 
ATOM     16  C   UNL A   1     -21.926   1.654  27.422  0.00  0.00    +0.064 C 
ATOM     17  C   UNL A   1     -21.479   0.781  28.421  0.00  0.00    -0.000 C 
ATOM     18  C   UNL A   1     -22.486   0.186  28.973  0.00  0.00    +0.139 C 
ATOM     19  C   UNL A   1     -23.622   0.627  28.008  0.00  0.00    +0.111 C 
BRANCH  18  20
ATOM     20  C   UNL A   1     -22.725  -0.734  29.957  0.00  0.00    +0.403 C 
ATOM     21  F   UNL A   1     -22.044  -0.805  30.726  0.00  0.00    -0.170 F 
ATOM     22  F   UNL A   1     -22.910  -2.019  29.339  0.00  0.00    -0.170 F 
ATOM     23  F   UNL A   1     -23.993  -0.493  30.330  0.00  0.00    -0.170 F 
ENDBRANCH  18  20
ENDBRANCH   1  13
BRANCH  11  24
ATOM     24  C   UNL A   1     -30.308   3.348  24.040  0.00  0.00    +0.022 C 
ATOM     25  C   UNL A   1     -31.786   3.118  24.120  0.00  0.00    +0.005 C 
ATOM     26  C   UNL A   1     -30.063   4.283  25.326  0.00  0.00    +0.005 C 
ENDBRANCH  11  24
BRANCH   2  27
ATOM     27  O   UNL A   1     -25.645   3.513  25.802  0.00  0.00    -0.453 OA
BRANCH  27  28
ATOM     28  C   UNL A   1     -26.107   3.989  27.029  0.00  0.00    +0.145 A 
ATOM     29  C   UNL A   1     -26.501   5.260  27.116  0.00  0.00    +0.037 A 
ATOM     30  C   UNL A   1     -26.252   5.996  28.334  0.00  0.00    +0.003 A 
ATOM     31  C   UNL A   1     -26.134   5.267  29.555  0.00  0.00    +0.000 A 
ATOM     32  C   UNL A   1     -26.141   4.144  29.491  0.00  0.00    +0.003 A 
ATOM     33  C   UNL A   1     -25.925   3.301  28.255  0.00  0.00    +0.037 A 
ENDBRANCH  27  28
ENDBRANCH   2  27
TORSDOF 5
ENDMDL
ENDMDL
