MODEL 78
MODEL 1
REMARK VINA RESULT:    -5.278      0.000      0.000
REMARK INTER + INTRA:          -5.808
REMARK INTER:                  -5.586
REMARK INTRA:                  -0.222
REMARK UNBOUND:                -0.222
REMARK  Name = No_78-gen_results/8p0m/2024-11-26-14-13-15/
REMARK  1 active torsions:
REMARK  status: ('A' for Active; 'I' for Inactive)
REMARK    1  A    between atoms: C_3  and  C_4
REMARK                            x       y       z     vdW  Elec       q    Type
REMARK                         _______ _______ _______ _____ _____    ______ ____
ROOT
ATOM      1  C   UNL A   1      -9.334  -9.062  19.942  0.00  0.00    +0.004 A 
ATOM      2  C   UNL A   1     -10.186  -9.542  19.548  0.00  0.00    -0.000 A 
ATOM      3  C   UNL A   1      -8.201  -8.942  19.108  0.00  0.00    +0.071 A 
ATOM      4  C   UNL A   1     -10.433 -10.157  18.233  0.00  0.00    -0.000 A 
ATOM      5  C   UNL A   1      -9.353 -10.079  17.354  0.00  0.00    -0.000 A 
ATOM      6  C   UNL A   1      -8.226  -9.431  17.747  0.00  0.00    +0.004 A 
ENDROOT
BRANCH   3   7
ATOM      7  C   UNL A   1      -6.964  -8.201  19.469  0.00  0.00    +0.419 C 
ATOM      8  F   UNL A   1      -6.291  -8.928  20.090  0.00  0.00    -0.166 F 
ATOM      9  F   UNL A   1      -7.331  -7.201  20.312  0.00  0.00    -0.166 F 
ATOM     10  F   UNL A   1      -6.335  -7.673  18.391  0.00  0.00    -0.166 F 
ENDBRANCH   3   7
TORSDOF 1
ENDMDL
ENDMDL
