REMARK  Name = No_790-gen_results/8p0m/2024-11-26-14-13-15/
REMARK  8 active torsions:
REMARK  status: ('A' for Active; 'I' for Inactive)
REMARK    1  A    between atoms: C_2  and  C_7
REMARK    2  A    between atoms: C_7  and  N_8
REMARK    3  A    between atoms: N_10  and  C_11
REMARK    4  A    between atoms: C_12  and  C_13
REMARK    5  A    between atoms: C_13  and  C_14
REMARK    6  A    between atoms: C_14  and  C_15
REMARK    7  A    between atoms: C_15  and  C_16
REMARK    8  A    between atoms: C_16  and  C_17
REMARK                            x       y       z     vdW  Elec       q    Type
REMARK                         _______ _______ _______ _____ _____    ______ ____
ROOT
ATOM      1  C   UNL A   1     -29.554   3.090  29.868  0.00  0.00    +0.096 C 
ATOM      2  C   UNL A   1     -28.561   3.686  28.991  0.00  0.00    -0.005 C 
ENDROOT
BRANCH   1   5
ATOM      3  N   UNL A   1     -30.717   0.096  30.478  0.00  0.00    -0.213 NA
ATOM      4  C   UNL A   1     -30.529   1.112  30.640  0.00  0.00    +0.181 C 
ATOM      5  N   UNL A   1     -29.684   1.889  29.957  0.00  0.00    -0.225 NA
BRANCH   3   6
ATOM      6  C   UNL A   1     -30.074  -0.836  29.861  0.00  0.00    +0.140 C 
BRANCH   6   8
ATOM      7  C   UNL A   1     -28.016  -0.814  28.878  0.00  0.00    -0.003 A 
ATOM      8  C   UNL A   1     -28.469  -0.785  29.829  0.00  0.00    -0.001 A 
ATOM      9  C   UNL A   1     -26.504  -0.778  28.877  0.00  0.00    -0.000 A 
ATOM     10  C   UNL A   1     -25.810  -0.853  30.103  0.00  0.00    -0.000 A 
ATOM     11  C   UNL A   1     -27.991  -0.892  31.226  0.00  0.00    -0.003 A 
ATOM     12  C   UNL A   1     -26.604  -0.868  31.265  0.00  0.00    -0.000 A 
ENDBRANCH   6   8
ENDBRANCH   3   6
ENDBRANCH   1   5
BRANCH   2  13
ATOM     13  C   UNL A   1     -27.745   2.807  28.255  0.00  0.00    +0.028 C 
BRANCH  13  14
ATOM     14  C   UNL A   1     -26.721   3.389  27.531  0.00  0.00    +0.005 C 
BRANCH  14  15
ATOM     15  C   UNL A   1     -25.708   2.514  26.936  0.00  0.00    +0.005 C 
BRANCH  15  16
ATOM     16  C   UNL A   1     -24.451   2.524  27.506  0.00  0.00    +0.026 C 
BRANCH  16  17
ATOM     17  C   UNL A   1     -23.793   1.367  27.959  0.00  0.00    -0.022 A 
ATOM     18  C   UNL A   1     -22.403   1.459  28.313  0.00  0.00    -0.004 A 
ATOM     19  C   UNL A   1     -21.832   0.275  28.825  0.00  0.00    -0.000 A 
ATOM     20  C   UNL A   1     -22.584  -0.917  28.973  0.00  0.00    -0.000 A 
ATOM     21  C   UNL A   1     -23.766  -1.019  28.402  0.00  0.00    -0.000 A 
ATOM     22  C   UNL A   1     -24.427   0.186  27.968  0.00  0.00    -0.004 A 
ENDBRANCH  16  17
ENDBRANCH  15  16
ENDBRANCH  14  15
ENDBRANCH  13  14
ENDBRANCH   2  13
TORSDOF 8
