MODEL 790
MODEL 1
REMARK VINA RESULT:    -5.412      0.000      0.000
REMARK INTER + INTRA:         -10.117
REMARK INTER:                  -7.942
REMARK INTRA:                  -2.174
REMARK UNBOUND:                -2.174
REMARK  Name = No_790-gen_results/8p0m/2024-11-26-14-13-15/
REMARK  8 active torsions:
REMARK  status: ('A' for Active; 'I' for Inactive)
REMARK    1  A    between atoms: C_2  and  C_7
REMARK    2  A    between atoms: C_7  and  N_8
REMARK    3  A    between atoms: N_10  and  C_11
REMARK    4  A    between atoms: C_12  and  C_13
REMARK    5  A    between atoms: C_13  and  C_14
REMARK    6  A    between atoms: C_14  and  C_15
REMARK    7  A    between atoms: C_15  and  C_16
REMARK    8  A    between atoms: C_16  and  C_17
REMARK                            x       y       z     vdW  Elec       q    Type
REMARK                         _______ _______ _______ _____ _____    ______ ____
ROOT
ATOM      1  C   UNL A   1     -27.716   1.564  29.703  0.00  0.00    +0.096 C 
ATOM      2  C   UNL A   1     -26.890   2.111  30.765  0.00  0.00    -0.005 C 
ENDROOT
BRANCH   1   5
ATOM      3  N   UNL A   1     -26.823   1.148  26.586  0.00  0.00    -0.213 NA
ATOM      4  C   UNL A   1     -27.445   1.399  27.388  0.00  0.00    +0.181 C 
ATOM      5  N   UNL A   1     -27.233   1.132  28.680  0.00  0.00    -0.225 NA
BRANCH   3   6
ATOM      6  C   UNL A   1     -25.869   0.294  26.439  0.00  0.00    +0.140 C 
BRANCH   6   8
ATOM      7  C   UNL A   1     -23.920   0.429  27.616  0.00  0.00    -0.003 A 
ATOM      8  C   UNL A   1     -24.357   0.761  26.717  0.00  0.00    -0.001 A 
ATOM      9  C   UNL A   1     -22.501   0.893  27.859  0.00  0.00    -0.000 A 
ATOM     10  C   UNL A   1     -21.918   1.826  26.976  0.00  0.00    -0.000 A 
ATOM     11  C   UNL A   1     -23.991   1.738  25.667  0.00  0.00    -0.003 A 
ATOM     12  C   UNL A   1     -22.694   2.192  25.860  0.00  0.00    -0.000 A 
ENDBRANCH   6   8
ENDBRANCH   3   6
ENDBRANCH   1   5
BRANCH   2  13
ATOM     13  C   UNL A   1     -25.497   2.108  30.560  0.00  0.00    +0.028 C 
BRANCH  13  14
ATOM     14  C   UNL A   1     -24.732   1.594  31.590  0.00  0.00    +0.005 C 
BRANCH  14  15
ATOM     15  C   UNL A   1     -23.594   0.737  31.248  0.00  0.00    +0.005 C 
BRANCH  15  16
ATOM     16  C   UNL A   1     -23.686  -0.599  31.584  0.00  0.00    +0.026 C 
BRANCH  16  17
ATOM     17  C   UNL A   1     -24.323  -1.561  30.781  0.00  0.00    -0.022 A 
ATOM     18  C   UNL A   1     -23.544  -2.263  29.798  0.00  0.00    -0.004 A 
ATOM     19  C   UNL A   1     -24.236  -3.261  29.081  0.00  0.00    -0.000 A 
ATOM     20  C   UNL A   1     -25.604  -3.543  29.319  0.00  0.00    -0.000 A 
ATOM     21  C   UNL A   1     -26.327  -2.710  30.038  0.00  0.00    -0.000 A 
ATOM     22  C   UNL A   1     -25.647  -1.749  30.869  0.00  0.00    -0.004 A 
ENDBRANCH  16  17
ENDBRANCH  15  16
ENDBRANCH  14  15
ENDBRANCH  13  14
ENDBRANCH   2  13
TORSDOF 8
ENDMDL
ENDMDL
