REMARK  Name = No_791-gen_results/8p0m/2024-11-26-14-13-15/
REMARK  0 active torsions:
REMARK  status: ('A' for Active; 'I' for Inactive)
REMARK                            x       y       z     vdW  Elec       q    Type
REMARK                         _______ _______ _______ _____ _____    ______ ____
ROOT
ATOM      1  F   UNL A   1     -28.073  -1.254  28.532  0.00  0.00    -0.204 F 
ATOM      2  C   UNL A   1     -27.359  -0.379  28.722  0.00  0.00    +0.140 A 
ATOM      3  C   UNL A   1     -27.701   0.761  29.125  0.00  0.00    +0.030 A 
ATOM      4  C   UNL A   1     -25.884  -0.692  28.437  0.00  0.00    +0.030 A 
ATOM      5  C   UNL A   1     -24.921   0.378  28.601  0.00  0.00    +0.002 A 
ATOM      6  C   UNL A   1     -26.691   1.870  29.270  0.00  0.00    +0.002 A 
ATOM      7  C   UNL A   1     -25.345   1.625  29.001  0.00  0.00    +0.000 A 
ENDROOT
TORSDOF 0
