MODEL 791
MODEL 1
REMARK VINA RESULT:    -4.496      0.000      0.000
REMARK INTER + INTRA:          -4.496
REMARK INTER:                  -4.496
REMARK INTRA:                   0.000
REMARK UNBOUND:                 0.000
REMARK  Name = No_791-gen_results/8p0m/2024-11-26-14-13-15/
REMARK  0 active torsions:
REMARK  status: ('A' for Active; 'I' for Inactive)
REMARK                            x       y       z     vdW  Elec       q    Type
REMARK                         _______ _______ _______ _____ _____    ______ ____
ROOT
ATOM      1  F   UNL A   1      -7.292  -9.874  20.813  0.00  0.00    -0.204 F 
ATOM      2  C   UNL A   1      -8.157  -9.839  20.064  0.00  0.00    +0.140 A 
ATOM      3  C   UNL A   1      -9.200  -9.151  20.193  0.00  0.00    +0.030 A 
ATOM      4  C   UNL A   1      -7.962 -10.729  18.829  0.00  0.00    +0.030 A 
ATOM      5  C   UNL A   1      -9.035 -10.783  17.857  0.00  0.00    +0.002 A 
ATOM      6  C   UNL A   1     -10.317  -9.234  19.185  0.00  0.00    +0.002 A 
ATOM      7  C   UNL A   1     -10.181 -10.048  18.061  0.00  0.00    +0.000 A 
ENDROOT
TORSDOF 0
ENDMDL
ENDMDL
