MODEL 792
MODEL 1
REMARK VINA RESULT:    -6.767      0.000      0.000
REMARK INTER + INTRA:          -8.015
REMARK INTER:                  -7.558
REMARK INTRA:                  -0.457
REMARK UNBOUND:                -0.457
REMARK  Name = No_792-gen_results/8p0m/2024-11-26-14-13-15/
REMARK  2 active torsions:
REMARK  status: ('A' for Active; 'I' for Inactive)
REMARK    1  A    between atoms: C_2  and  C_13
REMARK    2  A    between atoms: C_4  and  C_6
REMARK                            x       y       z     vdW  Elec       q    Type
REMARK                         _______ _______ _______ _____ _____    ______ ____
ROOT
ATOM      1  C   UNL A   1     -29.115 -10.329  32.640  0.00  0.00    +0.007 A 
ATOM      2  C   UNL A   1     -28.354 -11.045  32.778  0.00  0.00    +0.080 A 
ATOM      3  C   UNL A   1     -29.642 -10.204  31.228  0.00  0.00    +0.000 A 
ATOM      4  C   UNL A   1     -29.208 -11.118  30.245  0.00  0.00    +0.000 A 
ATOM      5  C   UNL A   1     -27.760 -12.121  31.953  0.00  0.00    +0.007 A 
ATOM      6  C   UNL A   1     -28.251 -12.055  30.626  0.00  0.00    +0.000 A 
ENDROOT
BRANCH   4   7
ATOM      7  C   UNL A   1     -29.666 -11.068  28.908  0.00  0.00    +0.000 A 
ATOM      8  C   UNL A   1     -30.519 -10.468  28.511  0.00  0.00    +0.000 A 
ATOM      9  C   UNL A   1     -31.060 -10.439  27.138  0.00  0.00    +0.000 A 
ATOM     10  C   UNL A   1     -30.461 -11.298  26.308  0.00  0.00    +0.000 A 
ATOM     11  C   UNL A   1     -29.010 -11.932  27.914  0.00  0.00    +0.000 A 
ATOM     12  C   UNL A   1     -29.430 -12.070  26.688  0.00  0.00    +0.000 A 
ENDBRANCH   4   7
BRANCH   2  13
ATOM     13  C   UNL A   1     -27.739 -11.159  34.270  0.00  0.00    +0.388 C 
ATOM     14  O   UNL A   1     -27.517 -10.281  34.983  0.00  0.00    -0.241 OA
ATOM     15  O   UNL A   1     -27.391 -12.361  34.587  0.00  0.00    -0.241 OA
ENDBRANCH   2  13
TORSDOF 2
ENDMDL
ENDMDL
