MODEL 793
MODEL 1
REMARK VINA RESULT:    -5.003      0.000      0.000
REMARK INTER + INTRA:          -5.003
REMARK INTER:                  -5.003
REMARK INTRA:                   0.000
REMARK UNBOUND:                 0.000
REMARK  Name = No_793-gen_results/8p0m/2024-11-26-14-13-15/
REMARK  0 active torsions:
REMARK  status: ('A' for Active; 'I' for Inactive)
REMARK                            x       y       z     vdW  Elec       q    Type
REMARK                         _______ _______ _______ _____ _____    ______ ____
ROOT
ATOM      1  C   UNL A   1     -10.535  -9.292  19.207  0.00  0.00    +0.042 A 
ATOM      2  C   UNL A   1      -9.798  -9.074  20.140  0.00  0.00    +0.003 A 
ATOM      3  C   UNL A   1      -8.482  -9.523  20.137  0.00  0.00    +0.000 A 
ATOM      4  C   UNL A   1      -7.969 -10.304  19.041  0.00  0.00    +0.003 A 
ATOM      5  C   UNL A   1      -8.895 -10.530  18.014  0.00  0.00    +0.042 A 
ATOM      6  C   UNL A   1     -10.134 -10.097  18.074  0.00  0.00    +0.196 A 
ATOM      7  O   UNL A   1     -10.982 -10.393  17.051  0.00  0.00    -0.287 OA
ENDROOT
TORSDOF 0
ENDMDL
ENDMDL
