MODEL 794
MODEL 1
REMARK VINA RESULT:    -5.473      0.000      0.000
REMARK INTER + INTRA:          -6.356
REMARK INTER:                  -6.113
REMARK INTRA:                  -0.243
REMARK UNBOUND:                -0.243
REMARK  Name = No_794-gen_results/8p0m/2024-11-26-14-13-15/
REMARK  2 active torsions:
REMARK  status: ('A' for Active; 'I' for Inactive)
REMARK    1  A    between atoms: C_3  and  C_4
REMARK    2  A    between atoms: C_4  and  C_8
REMARK                            x       y       z     vdW  Elec       q    Type
REMARK                         _______ _______ _______ _____ _____    ______ ____
ROOT
ATOM      1  C   UNL A   1     -26.392  -3.484  29.957  0.00  0.00    -0.000 A 
ATOM      2  C   UNL A   1     -25.553  -2.621  29.840  0.00  0.00    -0.004 A 
ATOM      3  C   UNL A   1     -24.342  -2.879  29.207  0.00  0.00    -0.018 A 
ATOM      4  C   UNL A   1     -26.061  -4.877  29.650  0.00  0.00    -0.000 A 
ATOM      5  C   UNL A   1     -24.934  -5.209  28.939  0.00  0.00    -0.000 A 
ATOM      6  C   UNL A   1     -24.006  -4.192  28.704  0.00  0.00    -0.004 A 
ENDROOT
BRANCH   3   7
ATOM      7  C   UNL A   1     -23.355  -1.885  28.980  0.00  0.00    +0.052 C 
BRANCH   7   8
ATOM      8  C   UNL A   1     -23.600  -0.574  28.601  0.00  0.00    -0.026 C 
ATOM      9  C   UNL A   1     -22.560   0.315  28.353  0.00  0.00    -0.030 C 
ATOM     10  C   UNL A   1     -21.197  -0.080  28.739  0.00  0.00    +0.030 C 
ENDBRANCH   7   8
ENDBRANCH   3   7
TORSDOF 2
ENDMDL
ENDMDL
