MODEL 795
MODEL 1
REMARK VINA RESULT:    -5.985      0.000      0.000
REMARK INTER + INTRA:          -6.880
REMARK INTER:                  -6.685
REMARK INTRA:                  -0.195
REMARK UNBOUND:                -0.195
REMARK  Name = No_795-gen_results/8p0m/2024-11-26-14-13-15/
REMARK  2 active torsions:
REMARK  status: ('A' for Active; 'I' for Inactive)
REMARK    1  A    between atoms: C_2  and  C_7
REMARK    2  A    between atoms: N_9  and  C_10
REMARK                            x       y       z     vdW  Elec       q    Type
REMARK                         _______ _______ _______ _____ _____    ______ ____
ROOT
ATOM      1  C   UNL A   1     -24.762  -0.746  28.170  0.00  0.00    +0.269 C 
ATOM      2  O   UNL A   1     -25.700  -0.646  27.581  0.00  0.00    -0.268 OA
ATOM      3  N   UNL A   1     -24.669  -1.470  29.348  0.00  0.00    -0.175 NA
ENDROOT
BRANCH   1   5
ATOM      4  C   UNL A   1     -23.862   1.004  27.018  0.00  0.00    +0.005 A 
ATOM      5  C   UNL A   1     -23.622   0.315  27.779  0.00  0.00    +0.055 A 
ATOM      6  C   UNL A   1     -22.766   1.983  26.660  0.00  0.00    +0.000 A 
ATOM      7  C   UNL A   1     -21.488   1.832  27.237  0.00  0.00    +0.000 A 
ATOM      8  C   UNL A   1     -22.388  -0.068  28.500  0.00  0.00    +0.005 A 
ATOM      9  C   UNL A   1     -21.356   0.807  28.192  0.00  0.00    +0.000 A 
ENDBRANCH   1   5
BRANCH   3  10
ATOM     10  C   UNL A   1     -25.736  -2.372  29.673  0.00  0.00    +0.074 A 
ATOM     11  C   UNL A   1     -26.664  -2.254  30.168  0.00  0.00    +0.017 A 
ATOM     12  C   UNL A   1     -27.661  -3.233  30.445  0.00  0.00    +0.001 A 
ATOM     13  C   UNL A   1     -25.271  -3.733  29.286  0.00  0.00    +0.017 A 
ATOM     14  C   UNL A   1     -26.157  -4.762  29.546  0.00  0.00    +0.001 A 
ATOM     15  C   UNL A   1     -27.322  -4.507  30.155  0.00  0.00    +0.000 A 
ENDBRANCH   3  10
TORSDOF 2
ENDMDL
ENDMDL
