REMARK  Name = No_796-gen_results/8p0m/2024-11-26-14-13-15/
REMARK  3 active torsions:
REMARK  status: ('A' for Active; 'I' for Inactive)
REMARK    1  A    between atoms: C_1  and  C_2
REMARK    2  A    between atoms: C_1  and  N_8
REMARK    3  A    between atoms: C_5  and  C_9
REMARK                            x       y       z     vdW  Elec       q    Type
REMARK                         _______ _______ _______ _____ _____    ______ ____
ROOT
ATOM      1  C   UNL A   1     -27.064  -0.119  28.608  0.00  0.00    +0.002 A 
ATOM      2  C   UNL A   1     -26.972   0.714  27.506  0.00  0.00    -0.002 A 
ATOM      3  C   UNL A   1     -25.820   1.491  27.116  0.00  0.00    +0.006 A 
ATOM      4  C   UNL A   1     -24.656   1.424  27.918  0.00  0.00    +0.080 A 
ATOM      5  C   UNL A   1     -24.685   0.590  29.066  0.00  0.00    +0.006 A 
ATOM      6  C   UNL A   1     -25.810  -0.127  29.334  0.00  0.00    -0.002 A 
ENDROOT
BRANCH   4   7
ATOM      7  C   UNL A   1     -23.464   2.175  27.609  0.00  0.00    +0.388 C 
ATOM      8  O   UNL A   1     -22.602   2.279  28.486  0.00  0.00    -0.241 OA
ATOM      9  O   UNL A   1     -23.273   2.555  26.366  0.00  0.00    -0.241 OA
ENDBRANCH   4   7
BRANCH   1  10
ATOM     10  C   UNL A   1     -28.016  -0.814  28.878  0.00  0.00    +0.151 C 
BRANCH  10  11
ATOM     11  N   UNL A   1     -28.710  -0.581  30.025  0.00  0.00    -0.269 NA
ATOM     12  C   UNL A   1     -28.510   0.401  30.721  0.00  0.00    +0.068 C 
ATOM     13  C   UNL A   1     -29.343   0.509  32.043  0.00  0.00    +0.053 C 
ENDBRANCH  10  11
ENDBRANCH   1  10
TORSDOF 3
