MODEL 796
MODEL 1
REMARK VINA RESULT:    -5.447      0.000      0.000
REMARK INTER + INTRA:          -6.589
REMARK INTER:                  -6.402
REMARK INTRA:                  -0.187
REMARK UNBOUND:                -0.187
REMARK  Name = No_796-gen_results/8p0m/2024-11-26-14-13-15/
REMARK  3 active torsions:
REMARK  status: ('A' for Active; 'I' for Inactive)
REMARK    1  A    between atoms: C_1  and  C_2
REMARK    2  A    between atoms: C_1  and  N_8
REMARK    3  A    between atoms: C_5  and  C_9
REMARK                            x       y       z     vdW  Elec       q    Type
REMARK                         _______ _______ _______ _____ _____    ______ ____
ROOT
ATOM      1  C   UNL A   1     -23.429  -0.653  28.525  0.00  0.00    +0.002 A 
ATOM      2  C   UNL A   1     -22.406   0.279  28.478  0.00  0.00    -0.002 A 
ATOM      3  C   UNL A   1     -22.317   1.406  27.581  0.00  0.00    +0.006 A 
ATOM      4  C   UNL A   1     -23.355   1.605  26.640  0.00  0.00    +0.080 A 
ATOM      5  C   UNL A   1     -24.434   0.683  26.633  0.00  0.00    +0.006 A 
ATOM      6  C   UNL A   1     -24.442  -0.332  27.540  0.00  0.00    -0.002 A 
ENDROOT
BRANCH   4   7
ATOM      7  C   UNL A   1     -23.342   2.698  25.699  0.00  0.00    +0.388 C 
ATOM      8  O   UNL A   1     -22.473   2.696  24.823  0.00  0.00    -0.241 OA
ATOM      9  O   UNL A   1     -24.352   3.538  25.707  0.00  0.00    -0.241 OA
ENDBRANCH   4   7
BRANCH   1  10
ATOM     10  C   UNL A   1     -23.517  -1.550  29.331  0.00  0.00    +0.151 C 
BRANCH  10  11
ATOM     11  N   UNL A   1     -23.619  -2.834  28.894  0.00  0.00    -0.269 NA
ATOM     12  C   UNL A   1     -24.431  -3.619  29.356  0.00  0.00    +0.068 C 
ATOM     13  C   UNL A   1     -24.396  -5.081  28.796  0.00  0.00    +0.053 C 
ENDBRANCH  10  11
ENDBRANCH   1  10
TORSDOF 3
ENDMDL
ENDMDL
