REMARK  Name = No_797-gen_results/8p0m/2024-11-26-14-13-15/
REMARK  0 active torsions:
REMARK  status: ('A' for Active; 'I' for Inactive)
REMARK                            x       y       z     vdW  Elec       q    Type
REMARK                         _______ _______ _______ _____ _____    ______ ____
ROOT
ATOM      1  C   UNL A   1     -28.016  -0.814  28.878  0.00  0.00    +0.017 A 
ATOM      2  C   UNL A   1     -28.469  -0.785  29.829  0.00  0.00    +0.081 A 
ATOM      3  C   UNL A   1     -26.546  -0.876  28.850  0.00  0.00    +0.001 A 
ATOM      4  C   UNL A   1     -25.804  -1.032  30.057  0.00  0.00    +0.001 A 
ATOM      5  C   UNL A   1     -27.944  -0.987  31.207  0.00  0.00    +0.085 A 
ATOM      6  C   UNL A   1     -26.582  -1.039  31.223  0.00  0.00    +0.018 A 
ATOM      7  N   UNL A   1     -29.965  -0.735  29.890  0.00  0.00    -0.232 NA
ATOM      8  C   UNL A   1     -30.648   0.317  30.268  0.00  0.00    +0.140 C 
ATOM      9  C   UNL A   1     -30.074   1.360  30.468  0.00  0.00    +0.015 A 
ATOM     10  C   UNL A   1     -30.222   2.487  30.541  0.00  0.00    -0.001 A 
ATOM     11  C   UNL A   1     -29.389   3.676  30.908  0.00  0.00    -0.000 A 
ATOM     12  C   UNL A   1     -28.018   3.353  31.103  0.00  0.00    +0.001 A 
ATOM     13  C   UNL A   1     -27.646   2.034  31.005  0.00  0.00    +0.016 A 
ATOM     14  C   UNL A   1     -28.518   1.103  30.747  0.00  0.00    +0.068 A 
ATOM     15  N   UNL A   1     -28.100   0.009  31.131  0.00  0.00    -0.211 NA
ENDROOT
TORSDOF 0
