MODEL 797
MODEL 1
REMARK VINA RESULT:    -6.937      0.000      0.000
REMARK INTER + INTRA:          -6.937
REMARK INTER:                  -6.937
REMARK INTRA:                   0.000
REMARK UNBOUND:                 0.000
REMARK  Name = No_797-gen_results/8p0m/2024-11-26-14-13-15/
REMARK  0 active torsions:
REMARK  status: ('A' for Active; 'I' for Inactive)
REMARK                            x       y       z     vdW  Elec       q    Type
REMARK                         _______ _______ _______ _____ _____    ______ ____
ROOT
ATOM      1  C   UNL A   1     -24.271  -0.957  31.290  0.00  0.00    +0.017 A 
ATOM      2  C   UNL A   1     -24.925  -0.996  30.465  0.00  0.00    +0.081 A 
ATOM      3  C   UNL A   1     -22.880  -0.568  31.011  0.00  0.00    +0.001 A 
ATOM      4  C   UNL A   1     -22.496  -0.135  29.708  0.00  0.00    +0.001 A 
ATOM      5  C   UNL A   1     -24.798  -0.551  29.050  0.00  0.00    +0.085 A 
ATOM      6  C   UNL A   1     -23.517  -0.192  28.750  0.00  0.00    +0.018 A 
ATOM      7  N   UNL A   1     -26.352  -1.376  30.719  0.00  0.00    -0.232 NA
ATOM      8  C   UNL A   1     -26.884  -2.514  30.349  0.00  0.00    +0.140 C 
ATOM      9  C   UNL A   1     -26.181  -3.377  29.881  0.00  0.00    +0.015 A 
ATOM     10  C   UNL A   1     -26.118  -4.496  29.680  0.00  0.00    -0.001 A 
ATOM     11  C   UNL A   1     -25.180  -5.426  28.974  0.00  0.00    -0.000 A 
ATOM     12  C   UNL A   1     -23.988  -4.786  28.538  0.00  0.00    +0.001 A 
ATOM     13  C   UNL A   1     -23.870  -3.432  28.744  0.00  0.00    +0.016 A 
ATOM     14  C   UNL A   1     -24.820  -2.750  29.315  0.00  0.00    +0.068 A 
ATOM     15  N   UNL A   1     -24.731  -1.559  29.013  0.00  0.00    -0.211 NA
ENDROOT
TORSDOF 0
ENDMDL
ENDMDL
