REMARK  Name = No_798-gen_results/8p0m/2024-11-26-14-13-15/
REMARK  5 active torsions:
REMARK  status: ('A' for Active; 'I' for Inactive)
REMARK    1  A    between atoms: C_3  and  C_8
REMARK    2  A    between atoms: C_6  and  O_7
REMARK    3  A    between atoms: O_7  and  C_14
REMARK    4  A    between atoms: C_10  and  O_20
REMARK    5  A    between atoms: C_14  and  C_15
REMARK                            x       y       z     vdW  Elec       q    Type
REMARK                         _______ _______ _______ _____ _____    ______ ____
ROOT
ATOM      1  C   UNL A   1     -28.016  -0.814  28.878  0.00  0.00    +0.037 A 
ATOM      2  C   UNL A   1     -27.064  -0.119  28.608  0.00  0.00    +0.003 A 
ATOM      3  C   UNL A   1     -25.765  -0.390  29.036  0.00  0.00    +0.000 A 
ATOM      4  C   UNL A   1     -25.530  -1.530  29.901  0.00  0.00    +0.003 A 
ATOM      5  C   UNL A   1     -26.689  -2.289  30.181  0.00  0.00    +0.037 A 
ATOM      6  C   UNL A   1     -27.873  -1.951  29.737  0.00  0.00    +0.139 A 
ENDROOT
BRANCH   3   7
ATOM      7  C   UNL A   1     -24.539   0.421  28.742  0.00  0.00    +0.003 A 
ATOM      8  C   UNL A   1     -24.526   1.274  27.727  0.00  0.00    +0.037 A 
ATOM      9  C   UNL A   1     -23.317   1.986  27.403  0.00  0.00    +0.139 A 
ATOM     10  C   UNL A   1     -22.131   1.737  28.050  0.00  0.00    +0.037 A 
ATOM     11  C   UNL A   1     -23.298   0.137  29.377  0.00  0.00    +0.000 A 
ATOM     12  C   UNL A   1     -22.101   0.819  29.041  0.00  0.00    +0.003 A 
BRANCH   9  13
ATOM     13  O   UNL A   1     -23.395   2.895  26.383  0.00  0.00    -0.471 OA
ATOM     14  C   UNL A   1     -24.109   3.897  26.415  0.00  0.00    +0.253 C 
ENDBRANCH   9  13
ENDBRANCH   3   7
BRANCH   6  15
ATOM     15  O   UNL A   1     -28.930  -2.730  30.115  0.00  0.00    -0.466 OA
BRANCH  15  16
ATOM     16  C   UNL A   1     -28.777  -3.993  30.646  0.00  0.00    +0.290 C 
BRANCH  16  17
ATOM     17  C   UNL A   1     -29.812  -4.858  30.232  0.00  0.00    +0.270 C 
ATOM     18  O   UNL A   1     -30.298  -4.846  29.161  0.00  0.00    -0.271 OA
ATOM     19  N   UNL A   1     -30.174  -5.899  31.140  0.00  0.00    -0.277 N 
ATOM     20  C   UNL A   1     -29.688  -5.968  32.517  0.00  0.00    +0.093 C 
ATOM     21  C   UNL A   1     -31.147  -6.878  30.718  0.00  0.00    +0.093 C 
ATOM     22  C   UNL A   1     -31.174  -8.023  31.396  0.00  0.00    +0.022 C 
ATOM     23  C   UNL A   1     -29.832  -7.147  33.202  0.00  0.00    +0.022 C 
ATOM     24  C   UNL A   1     -30.625  -8.156  32.678  0.00  0.00    +0.004 C 
ENDBRANCH  16  17
ENDBRANCH  15  16
ENDBRANCH   6  15
TORSDOF 5
