MODEL 798
MODEL 1
REMARK VINA RESULT:    -6.581      0.000      0.000
REMARK INTER + INTRA:          -9.277
REMARK INTER:                  -8.504
REMARK INTRA:                  -0.773
REMARK UNBOUND:                -0.773
REMARK  Name = No_798-gen_results/8p0m/2024-11-26-14-13-15/
REMARK  5 active torsions:
REMARK  status: ('A' for Active; 'I' for Inactive)
REMARK    1  A    between atoms: C_3  and  C_8
REMARK    2  A    between atoms: C_6  and  O_7
REMARK    3  A    between atoms: O_7  and  C_14
REMARK    4  A    between atoms: C_10  and  O_20
REMARK    5  A    between atoms: C_14  and  C_15
REMARK                            x       y       z     vdW  Elec       q    Type
REMARK                         _______ _______ _______ _____ _____    ______ ____
ROOT
ATOM      1  C   UNL A   1     -24.967   0.023  24.858  0.00  0.00    +0.037 A 
ATOM      2  C   UNL A   1     -26.050  -0.303  24.430  0.00  0.00    +0.003 A 
ATOM      3  C   UNL A   1     -27.189   0.496  24.524  0.00  0.00    +0.000 A 
ATOM      4  C   UNL A   1     -27.105   1.766  25.221  0.00  0.00    +0.003 A 
ATOM      5  C   UNL A   1     -25.812   2.074  25.701  0.00  0.00    +0.037 A 
ATOM      6  C   UNL A   1     -24.800   1.254  25.570  0.00  0.00    +0.139 A 
ENDROOT
BRANCH   3   7
ATOM      7  C   UNL A   1     -28.560   0.163  24.019  0.00  0.00    +0.003 A 
ATOM      8  C   UNL A   1     -29.457   1.121  23.828  0.00  0.00    +0.037 A 
ATOM      9  C   UNL A   1     -30.796   0.780  23.422  0.00  0.00    +0.139 A 
ATOM     10  C   UNL A   1     -31.215  -0.524  23.321  0.00  0.00    +0.037 A 
ATOM     11  C   UNL A   1     -29.014  -1.184  23.955  0.00  0.00    +0.000 A 
ATOM     12  C   UNL A   1     -30.340  -1.520  23.581  0.00  0.00    +0.003 A 
BRANCH   9  13
ATOM     13  O   UNL A   1     -31.649   1.824  23.185  0.00  0.00    -0.471 OA
ATOM     14  C   UNL A   1     -31.274   2.976  22.968  0.00  0.00    +0.253 C 
ENDBRANCH   9  13
ENDBRANCH   3   7
BRANCH   6  15
ATOM     15  O   UNL A   1     -23.609   1.635  26.121  0.00  0.00    -0.466 OA
BRANCH  15  16
ATOM     16  C   UNL A   1     -23.474   1.977  27.449  0.00  0.00    +0.290 C 
BRANCH  16  17
ATOM     17  C   UNL A   1     -22.622   1.083  28.131  0.00  0.00    +0.270 C 
ATOM     18  O   UNL A   1     -21.470   0.972  27.920  0.00  0.00    -0.271 OA
ATOM     19  N   UNL A   1     -23.188   0.383  29.240  0.00  0.00    -0.277 N 
ATOM     20  C   UNL A   1     -24.617   0.391  29.549  0.00  0.00    +0.093 C 
ATOM     21  C   UNL A   1     -22.330  -0.457  30.039  0.00  0.00    +0.093 C 
ATOM     22  C   UNL A   1     -22.768  -0.772  31.256  0.00  0.00    +0.022 C 
ATOM     23  C   UNL A   1     -25.020  -0.038  30.787  0.00  0.00    +0.022 C 
ATOM     24  C   UNL A   1     -24.117  -0.678  31.622  0.00  0.00    +0.004 C 
ENDBRANCH  16  17
ENDBRANCH  15  16
ENDBRANCH   6  15
TORSDOF 5
ENDMDL
ENDMDL
