MODEL 799
MODEL 1
REMARK VINA RESULT:    -6.309      0.000      0.000
REMARK INTER + INTRA:          -6.607
REMARK INTER:                  -6.677
REMARK INTRA:                   0.070
REMARK UNBOUND:                 0.070
REMARK  Name = No_799-gen_results/8p0m/2024-11-26-14-13-15/
REMARK  1 active torsions:
REMARK  status: ('A' for Active; 'I' for Inactive)
REMARK    1  A    between atoms: C_2  and  C_7
REMARK                            x       y       z     vdW  Elec       q    Type
REMARK                         _______ _______ _______ _____ _____    ______ ____
ROOT
ATOM      1  C   UNL A   1     -23.582  -1.068  29.423  0.00  0.00    +0.249 C 
ATOM      2  O   UNL A   1     -22.735  -1.146  30.140  0.00  0.00    -0.270 OA
ATOM      3  N   UNL A   1     -23.755  -0.037  28.494  0.00  0.00    -0.276 N 
ATOM      4  C   UNL A   1     -22.785   1.012  28.470  0.00  0.00    +0.094 C 
ATOM      5  C   UNL A   1     -22.727   1.634  27.423  0.00  0.00    +0.022 C 
ATOM      6  C   UNL A   1     -23.742   1.551  26.341  0.00  0.00    +0.004 C 
ATOM      7  C   UNL A   1     -24.660   0.483  26.421  0.00  0.00    +0.022 C 
ATOM      8  C   UNL A   1     -24.615  -0.358  27.401  0.00  0.00    +0.094 C 
ENDROOT
BRANCH   1  10
ATOM      9  C   UNL A   1     -25.504  -2.161  29.984  0.00  0.00    +0.004 A 
ATOM     10  C   UNL A   1     -24.598  -2.311  29.467  0.00  0.00    +0.054 A 
ATOM     11  C   UNL A   1     -26.436  -3.351  30.021  0.00  0.00    +0.000 A 
ATOM     12  C   UNL A   1     -25.996  -4.590  29.510  0.00  0.00    +0.000 A 
ATOM     13  C   UNL A   1     -23.898  -3.481  28.890  0.00  0.00    +0.004 A 
ATOM     14  C   UNL A   1     -24.722  -4.597  28.912  0.00  0.00    +0.000 A 
ENDBRANCH   1  10
TORSDOF 1
ENDMDL
ENDMDL
