REMARK  Name = No_80-gen_results/8p0m/2024-11-26-14-13-15/
REMARK  2 active torsions:
REMARK  status: ('A' for Active; 'I' for Inactive)
REMARK    1  A    between atoms: C_2  and  C_4
REMARK    2  A    between atoms: C_4  and  C_5
REMARK                            x       y       z     vdW  Elec       q    Type
REMARK                         _______ _______ _______ _____ _____    ______ ____
ROOT
ATOM      1  C   UNL A   1     -25.771  -0.486  28.174  0.00  0.00    +0.078 C 
ENDROOT
BRANCH   1   3
ATOM      2 CL   UNL A   1     -28.149  -0.820  28.908  0.00  0.00    -0.076 Cl
ATOM      3  C   UNL A   1     -26.912  -0.080  28.945  0.00  0.00    +0.243 C 
ATOM      4  F   UNL A   1     -26.899   0.874  29.576  0.00  0.00    -0.219 F 
ENDBRANCH   1   3
BRANCH   1   5
ATOM      5  C   UNL A   1     -25.266   0.432  27.248  0.00  0.00    -0.026 C 
ATOM      6  C   UNL A   1     -24.922   1.665  27.494  0.00  0.00    -0.030 C 
ATOM      7  C   UNL A   1     -24.786   2.049  28.843  0.00  0.00    +0.030 C 
ENDBRANCH   1   5
TORSDOF 2
