REMARK  Name = No_800-gen_results/8p0m/2024-11-26-14-13-15/
REMARK  0 active torsions:
REMARK  status: ('A' for Active; 'I' for Inactive)
REMARK                            x       y       z     vdW  Elec       q    Type
REMARK                         _______ _______ _______ _____ _____    ______ ____
ROOT
ATOM      1  C   UNL A   1     -28.016  -0.814  28.878  0.00  0.00    +0.030 A 
ATOM      2  C   UNL A   1     -27.064  -0.119  28.608  0.00  0.00    +0.003 A 
ATOM      3  C   UNL A   1     -26.876   1.133  28.913  0.00  0.00    +0.013 A 
ATOM      4  C   UNL A   1     -27.901   1.807  29.644  0.00  0.00    +0.003 A 
ATOM      5  C   UNL A   1     -29.046  -0.232  29.718  0.00  0.00    +0.140 A 
ATOM      6  C   UNL A   1     -28.940   1.052  30.060  0.00  0.00    +0.030 A 
ATOM      7  C   UNL A   1     -25.873  -0.713  27.805  0.00  0.00    +0.002 A 
ATOM      8  C   UNL A   1     -25.286   0.051  26.800  0.00  0.00    +0.030 A 
ATOM      9  C   UNL A   1     -25.224   1.462  27.012  0.00  0.00    +0.151 A 
ATOM     10  C   UNL A   1     -26.141   2.049  27.972  0.00  0.00    +0.085 A 
ATOM     11  F   UNL A   1     -24.382   2.146  26.318  0.00  0.00    -0.203 F 
ATOM     12 CL   UNL A   1     -26.106   3.748  28.097  0.00  0.00    -0.080 Cl
ATOM     13  F   UNL A   1     -29.944  -1.074  30.267  0.00  0.00    -0.204 F 
ENDROOT
TORSDOF 0
