MODEL 800
MODEL 1
REMARK VINA RESULT:    -5.936      0.000      0.000
REMARK INTER + INTRA:          -5.936
REMARK INTER:                  -5.936
REMARK INTRA:                   0.000
REMARK UNBOUND:                 0.000
REMARK  Name = No_800-gen_results/8p0m/2024-11-26-14-13-15/
REMARK  0 active torsions:
REMARK  status: ('A' for Active; 'I' for Inactive)
REMARK                            x       y       z     vdW  Elec       q    Type
REMARK                         _______ _______ _______ _____ _____    ______ ____
ROOT
ATOM      1  C   UNL A   1     -22.915  -0.963  29.003  0.00  0.00    +0.030 A 
ATOM      2  C   UNL A   1     -23.188   0.014  28.345  0.00  0.00    +0.003 A 
ATOM      3  C   UNL A   1     -24.260   0.227  27.637  0.00  0.00    +0.013 A 
ATOM      4  C   UNL A   1     -25.253  -0.798  27.597  0.00  0.00    +0.003 A 
ATOM      5  C   UNL A   1     -23.926  -1.999  29.104  0.00  0.00    +0.140 A 
ATOM      6  C   UNL A   1     -25.047  -1.868  28.395  0.00  0.00    +0.030 A 
ATOM      7  C   UNL A   1     -22.196   1.210  28.283  0.00  0.00    +0.002 A 
ATOM      8  C   UNL A   1     -21.974   1.843  27.064  0.00  0.00    +0.030 A 
ATOM      9  C   UNL A   1     -23.085   1.937  26.171  0.00  0.00    +0.151 A 
ATOM     10  C   UNL A   1     -24.188   1.011  26.354  0.00  0.00    +0.085 A 
ATOM     11  F   UNL A   1     -23.039   2.815  25.230  0.00  0.00    -0.203 F 
ATOM     12 CL   UNL A   1     -25.430   1.088  25.190  0.00  0.00    -0.080 Cl
ATOM     13  F   UNL A   1     -23.759  -2.933  30.061  0.00  0.00    -0.204 F 
ENDROOT
TORSDOF 0
ENDMDL
ENDMDL
