REMARK  Name = No_801-gen_results/8p0m/2024-11-26-14-13-15/
REMARK  1 active torsions:
REMARK  status: ('A' for Active; 'I' for Inactive)
REMARK    1  A    between atoms: C_3  and  C_4
REMARK                            x       y       z     vdW  Elec       q    Type
REMARK                         _______ _______ _______ _____ _____    ______ ____
ROOT
ATOM      1  C   UNL A   1     -28.016  -0.814  28.878  0.00  0.00    +0.011 A 
ATOM      2  C   UNL A   1     -27.064  -0.119  28.608  0.00  0.00    +0.001 A 
ATOM      3  C   UNL A   1     -25.765  -0.390  29.036  0.00  0.00    +0.000 A 
ATOM      4  C   UNL A   1     -27.829  -1.929  29.855  0.00  0.00    +0.058 A 
ATOM      5  C   UNL A   1     -26.588  -2.327  30.268  0.00  0.00    +0.011 A 
ATOM      6  C   UNL A   1     -25.456  -1.543  29.915  0.00  0.00    +0.001 A 
ATOM      7 CL   UNL A   1     -29.267  -2.734  30.299  0.00  0.00    -0.082 Cl
ENDROOT
BRANCH   3   8
ATOM      8  C   UNL A   1     -24.552   0.406  28.765  0.00  0.00    +0.000 A 
ATOM      9  C   UNL A   1     -23.230   0.118  29.258  0.00  0.00    +0.000 A 
ATOM     10  C   UNL A   1     -22.139   0.943  28.922  0.00  0.00    +0.000 A 
ATOM     11  C   UNL A   1     -22.230   1.909  27.872  0.00  0.00    +0.000 A 
ATOM     12  C   UNL A   1     -24.554   1.470  27.762  0.00  0.00    +0.000 A 
ATOM     13  C   UNL A   1     -23.447   2.167  27.376  0.00  0.00    +0.000 A 
ENDBRANCH   3   8
TORSDOF 1
