MODEL 801
MODEL 1
REMARK VINA RESULT:    -6.124      0.000      0.000
REMARK INTER + INTRA:          -6.779
REMARK INTER:                  -6.482
REMARK INTRA:                  -0.297
REMARK UNBOUND:                -0.297
REMARK  Name = No_801-gen_results/8p0m/2024-11-26-14-13-15/
REMARK  1 active torsions:
REMARK  status: ('A' for Active; 'I' for Inactive)
REMARK    1  A    between atoms: C_3  and  C_4
REMARK                            x       y       z     vdW  Elec       q    Type
REMARK                         _______ _______ _______ _____ _____    ______ ____
ROOT
ATOM      1  C   UNL A   1     -25.225   0.747  26.995  0.00  0.00    +0.011 A 
ATOM      2  C   UNL A   1     -25.486  -0.373  27.369  0.00  0.00    +0.001 A 
ATOM      3  C   UNL A   1     -24.650  -1.127  28.190  0.00  0.00    +0.000 A 
ATOM      4  C   UNL A   1     -23.867   1.296  27.288  0.00  0.00    +0.058 A 
ATOM      5  C   UNL A   1     -23.007   0.674  28.150  0.00  0.00    +0.011 A 
ATOM      6  C   UNL A   1     -23.328  -0.623  28.634  0.00  0.00    +0.001 A 
ATOM      7 CL   UNL A   1     -23.541   2.809  26.568  0.00  0.00    -0.082 Cl
ENDROOT
BRANCH   3   8
ATOM      8  C   UNL A   1     -24.882  -2.499  28.682  0.00  0.00    +0.000 A 
ATOM      9  C   UNL A   1     -26.087  -2.973  29.314  0.00  0.00    +0.000 A 
ATOM     10  C   UNL A   1     -26.203  -4.313  29.732  0.00  0.00    +0.000 A 
ATOM     11  C   UNL A   1     -25.275  -5.312  29.302  0.00  0.00    +0.000 A 
ATOM     12  C   UNL A   1     -23.956  -3.584  28.363  0.00  0.00    +0.000 A 
ATOM     13  C   UNL A   1     -24.164  -4.894  28.682  0.00  0.00    +0.000 A 
ENDBRANCH   3   8
TORSDOF 1
ENDMDL
ENDMDL
