MODEL 802
MODEL 1
REMARK VINA RESULT:    -6.499      0.000      0.000
REMARK INTER + INTRA:          -7.223
REMARK INTER:                  -6.879
REMARK INTRA:                  -0.344
REMARK UNBOUND:                -0.344
REMARK  Name = No_802-gen_results/8p0m/2024-11-26-14-13-15/
REMARK  1 active torsions:
REMARK  status: ('A' for Active; 'I' for Inactive)
REMARK    1  A    between atoms: C_3  and  C_4
REMARK                            x       y       z     vdW  Elec       q    Type
REMARK                         _______ _______ _______ _____ _____    ______ ____
ROOT
ATOM      1  C   UNL A   1     -26.455  -3.633  29.802  0.00  0.00    +0.000 A 
ATOM      2  C   UNL A   1     -25.878  -2.583  29.639  0.00  0.00    +0.000 A 
ATOM      3  C   UNL A   1     -24.638  -2.534  29.013  0.00  0.00    +0.000 A 
ATOM      4  C   UNL A   1     -25.818  -4.923  29.568  0.00  0.00    +0.000 A 
ATOM      5  C   UNL A   1     -24.639  -4.980  28.852  0.00  0.00    +0.000 A 
ATOM      6  C   UNL A   1     -23.978  -3.766  28.609  0.00  0.00    +0.000 A 
ENDROOT
BRANCH   3   7
ATOM      7  C   UNL A   1     -23.825  -1.310  28.763  0.00  0.00    +0.000 A 
ATOM      8  C   UNL A   1     -24.381  -0.368  27.848  0.00  0.00    +0.000 A 
ATOM      9  C   UNL A   1     -23.677   0.788  27.514  0.00  0.00    +0.000 A 
ATOM     10  C   UNL A   1     -22.354   0.896  27.993  0.00  0.00    +0.000 A 
ATOM     11  C   UNL A   1     -21.805  -0.009  28.854  0.00  0.00    +0.000 A 
ATOM     12  C   UNL A   1     -22.544  -1.193  29.231  0.00  0.00    +0.000 A 
ENDBRANCH   3   7
TORSDOF 1
ENDMDL
ENDMDL
