REMARK  Name = No_803-gen_results/8p0m/2024-11-26-14-13-15/
REMARK  9 active torsions:
REMARK  status: ('A' for Active; 'I' for Inactive)
REMARK    1  A    between atoms: C_2  and  C_14
REMARK    2  A    between atoms: C_3  and  C_4
REMARK    3  A    between atoms: C_4  and  C_8
REMARK    4  A    between atoms: C_9  and  C_17
REMARK    5  A    between atoms: C_18  and  C_19
REMARK    6  A    between atoms: C_19  and  C_20
REMARK    7  A    between atoms: C_20  and  C_21
REMARK    8  A    between atoms: C_25  and  C_27
REMARK    9  A    between atoms: C_31  and  C_33
REMARK                            x       y       z     vdW  Elec       q    Type
REMARK                         _______ _______ _______ _____ _____    ______ ____
ROOT
ATOM      1  C   UNL A   1     -25.944   0.368  25.054  0.00  0.00    -0.005 C 
ATOM      2  C   UNL A   1     -26.870  -0.461  25.010  0.00  0.00    -0.026 C 
ENDROOT
BRANCH   1   4
ATOM      3  C   UNL A   1     -25.213   0.686  27.403  0.00  0.00    -0.018 A 
ATOM      4  C   UNL A   1     -25.325   1.085  26.079  0.00  0.00    -0.004 A 
ATOM      5  C   UNL A   1     -24.764   2.348  25.689  0.00  0.00    -0.000 A 
ATOM      6  C   UNL A   1     -24.104   3.126  26.690  0.00  0.00    -0.000 A 
ATOM      7  C   UNL A   1     -24.479   1.519  28.261  0.00  0.00    -0.004 A 
ATOM      8  C   UNL A   1     -23.940   2.680  27.893  0.00  0.00    -0.000 A 
BRANCH   3   9
ATOM      9  C   UNL A   1     -25.654  -0.660  27.719  0.00  0.00    +0.053 C 
BRANCH   9  12
ATOM     10  C   UNL A   1     -28.016  -0.814  28.878  0.00  0.00    +0.003 A 
ATOM     11  C   UNL A   1     -28.469  -0.785  29.829  0.00  0.00    +0.080 A 
ATOM     12  C   UNL A   1     -26.504  -0.778  28.877  0.00  0.00    -0.018 A 
ATOM     13  C   UNL A   1     -27.918  -0.937  31.182  0.00  0.00    +0.007 A 
ATOM     14  C   UNL A   1     -26.542  -0.940  31.261  0.00  0.00    -0.000 A 
ATOM     15  C   UNL A   1     -25.791  -0.904  30.175  0.00  0.00    -0.004 A 
BRANCH  11  16
ATOM     16  C   UNL A   1     -30.055  -0.754  29.848  0.00  0.00    +0.388 C 
ATOM     17  O   UNL A   1     -30.748  -1.554  30.301  0.00  0.00    -0.241 OA
ATOM     18  O   UNL A   1     -30.564   0.265  29.217  0.00  0.00    -0.241 OA
ENDBRANCH  11  16
ENDBRANCH   9  12
ENDBRANCH   3   9
ENDBRANCH   1   4
BRANCH   2  19
ATOM     19  C   UNL A   1     -27.535  -0.976  23.892  0.00  0.00    +0.031 C 
BRANCH  19  20
ATOM     20  C   UNL A   1     -28.605  -0.121  23.519  0.00  0.00    +0.031 C 
BRANCH  20  21
ATOM     21  C   UNL A   1     -29.505   0.320  24.570  0.00  0.00    -0.022 A 
ATOM     22  C   UNL A   1     -30.490   0.348  24.835  0.00  0.00    -0.004 A 
ATOM     23  C   UNL A   1     -31.192   0.916  25.958  0.00  0.00    -0.000 A 
ATOM     24  C   UNL A   1     -30.441   1.851  26.689  0.00  0.00    -0.000 A 
ATOM     25  C   UNL A   1     -29.089   2.086  26.379  0.00  0.00    -0.000 A 
ATOM     26  C   UNL A   1     -28.540   1.416  25.318  0.00  0.00    -0.004 A 
BRANCH  25  27
ATOM     27  C   UNL A   1     -28.331   3.040  27.197  0.00  0.00    -0.000 A 
ATOM     28  C   UNL A   1     -28.824   4.328  27.409  0.00  0.00    +0.000 A 
ATOM     29  C   UNL A   1     -27.159   2.668  27.883  0.00  0.00    +0.000 A 
ATOM     30  C   UNL A   1     -26.983   3.404  29.201  0.00  0.00    +0.007 A 
ATOM     31  C   UNL A   1     -27.141   4.727  29.209  0.00  0.00    +0.080 A 
ATOM     32  C   UNL A   1     -27.701   5.233  28.317  0.00  0.00    +0.007 A 
BRANCH  31  33
ATOM     33  C   UNL A   1     -26.553   5.517  30.304  0.00  0.00    +0.388 C 
ATOM     34  O   UNL A   1     -27.127   6.260  30.911  0.00  0.00    -0.241 OA
ATOM     35  O   UNL A   1     -25.193   5.275  30.490  0.00  0.00    -0.241 OA
ENDBRANCH  31  33
ENDBRANCH  25  27
ENDBRANCH  20  21
ENDBRANCH  19  20
ENDBRANCH   2  19
TORSDOF 9
