MODEL 803
MODEL 1
REMARK VINA RESULT:    -8.532      0.000      0.000
REMARK INTER + INTRA:         -16.308
REMARK INTER:                 -13.021
REMARK INTRA:                  -3.287
REMARK UNBOUND:                -3.287
REMARK  Name = No_803-gen_results/8p0m/2024-11-26-14-13-15/
REMARK  9 active torsions:
REMARK  status: ('A' for Active; 'I' for Inactive)
REMARK    1  A    between atoms: C_2  and  C_14
REMARK    2  A    between atoms: C_3  and  C_4
REMARK    3  A    between atoms: C_4  and  C_8
REMARK    4  A    between atoms: C_9  and  C_17
REMARK    5  A    between atoms: C_18  and  C_19
REMARK    6  A    between atoms: C_19  and  C_20
REMARK    7  A    between atoms: C_20  and  C_21
REMARK    8  A    between atoms: C_25  and  C_27
REMARK    9  A    between atoms: C_31  and  C_33
REMARK                            x       y       z     vdW  Elec       q    Type
REMARK                         _______ _______ _______ _____ _____    ______ ____
ROOT
ATOM      1  C   UNL A   1     -23.538  -1.947  28.805  0.00  0.00    -0.005 C 
ATOM      2  C   UNL A   1     -22.664  -1.356  29.463  0.00  0.00    -0.026 C 
ENDROOT
BRANCH   1   4
ATOM      3  C   UNL A   1     -25.814  -2.675  29.472  0.00  0.00    -0.018 A 
ATOM      4  C   UNL A   1     -24.497  -2.916  29.107  0.00  0.00    -0.004 A 
ATOM      5  C   UNL A   1     -24.042  -4.275  29.020  0.00  0.00    -0.000 A 
ATOM      6  C   UNL A   1     -24.980  -5.315  29.305  0.00  0.00    -0.000 A 
ATOM      7  C   UNL A   1     -26.640  -3.794  29.654  0.00  0.00    -0.004 A 
ATOM      8  C   UNL A   1     -26.222  -5.055  29.553  0.00  0.00    -0.000 A 
BRANCH   3   9
ATOM      9  C   UNL A   1     -26.272  -1.300  29.395  0.00  0.00    +0.053 C 
BRANCH   9  12
ATOM     10  C   UNL A   1     -25.644   1.049  30.411  0.00  0.00    +0.003 A 
ATOM     11  C   UNL A   1     -25.226   1.487  31.273  0.00  0.00    +0.080 A 
ATOM     12  C   UNL A   1     -25.857  -0.447  30.480  0.00  0.00    -0.018 A 
ATOM     13  C   UNL A   1     -25.004   0.965  32.628  0.00  0.00    +0.007 A 
ATOM     14  C   UNL A   1     -25.204  -0.391  32.778  0.00  0.00    -0.000 A 
ATOM     15  C   UNL A   1     -25.656  -1.133  31.783  0.00  0.00    -0.004 A 
BRANCH  11  16
ATOM     16  C   UNL A   1     -24.932   3.044  31.196  0.00  0.00    +0.388 C 
ATOM     17  O   UNL A   1     -25.228   3.752  30.338  0.00  0.00    -0.241 OA
ATOM     18  O   UNL A   1     -24.229   3.492  32.195  0.00  0.00    -0.241 OA
ENDBRANCH  11  16
ENDBRANCH   9  12
ENDBRANCH   3   9
ENDBRANCH   1   4
BRANCH   2  19
ATOM     19  C   UNL A   1     -21.627  -0.535  29.007  0.00  0.00    +0.031 C 
BRANCH  19  20
ATOM     20  C   UNL A   1     -22.084   0.801  28.863  0.00  0.00    +0.031 C 
BRANCH  20  21
ATOM     21  C   UNL A   1     -22.366   1.269  27.517  0.00  0.00    -0.022 A 
ATOM     22  C   UNL A   1     -22.040   1.917  26.800  0.00  0.00    -0.004 A 
ATOM     23  C   UNL A   1     -22.536   2.271  25.494  0.00  0.00    -0.000 A 
ATOM     24  C   UNL A   1     -23.864   1.878  25.260  0.00  0.00    -0.000 A 
ATOM     25  C   UNL A   1     -24.561   1.105  26.206  0.00  0.00    -0.000 A 
ATOM     26  C   UNL A   1     -23.929   0.789  27.380  0.00  0.00    -0.004 A 
BRANCH  25  27
ATOM     27  C   UNL A   1     -25.932   0.680  25.901  0.00  0.00    -0.000 A 
ATOM     28  C   UNL A   1     -27.010   1.246  26.584  0.00  0.00    +0.000 A 
ATOM     29  C   UNL A   1     -26.220  -0.210  24.849  0.00  0.00    +0.000 A 
ATOM     30  C   UNL A   1     -27.555   0.074  24.179  0.00  0.00    +0.007 A 
ATOM     31  C   UNL A   1     -28.622   0.256  24.955  0.00  0.00    +0.080 A 
ATOM     32  C   UNL A   1     -28.461   0.504  26.085  0.00  0.00    +0.007 A 
BRANCH  31  33
ATOM     33  C   UNL A   1     -29.968   0.079  24.384  0.00  0.00    +0.388 C 
ATOM     34  O   UNL A   1     -30.262   0.436  23.366  0.00  0.00    -0.241 OA
ATOM     35  O   UNL A   1     -30.858  -0.549  25.253  0.00  0.00    -0.241 OA
ENDBRANCH  31  33
ENDBRANCH  25  27
ENDBRANCH  20  21
ENDBRANCH  19  20
ENDBRANCH   2  19
TORSDOF 9
ENDMDL
ENDMDL
