MODEL 804
MODEL 1
REMARK VINA RESULT:    -6.590      0.000      0.000
REMARK INTER + INTRA:          -8.211
REMARK INTER:                  -7.745
REMARK INTRA:                  -0.465
REMARK UNBOUND:                -0.465
REMARK  Name = No_804-gen_results/8p0m/2024-11-26-14-13-15/
REMARK  3 active torsions:
REMARK  status: ('A' for Active; 'I' for Inactive)
REMARK    1  A    between atoms: C_4  and  C_11
REMARK    2  A    between atoms: C_7  and  C_16
REMARK    3  A    between atoms: C_11  and  P_12
REMARK                            x       y       z     vdW  Elec       q    Type
REMARK                         _______ _______ _______ _____ _____    ______ ____
ROOT
ATOM      1  C   UNL A   1     -25.618  -1.092  27.952  0.00  0.00    +0.007 A 
ATOM      2  C   UNL A   1     -25.037  -0.202  27.375  0.00  0.00    -0.000 A 
ATOM      3  C   UNL A   1     -23.721   0.165  27.649  0.00  0.00    -0.001 A 
ATOM      4  C   UNL A   1     -22.942   1.241  27.006  0.00  0.00    +0.017 A 
ATOM      5  C   UNL A   1     -21.594   1.620  27.343  0.00  0.00    -0.001 A 
ATOM      6  C   UNL A   1     -20.941   0.745  28.217  0.00  0.00    -0.000 A 
ATOM      7  C   UNL A   1     -24.925  -1.718  29.130  0.00  0.00    +0.080 A 
ATOM      8  C   UNL A   1     -23.600  -1.482  29.416  0.00  0.00    +0.007 A 
ATOM      9  C   UNL A   1     -22.928  -0.493  28.720  0.00  0.00    -0.000 A 
ATOM     10  C   UNL A   1     -21.582  -0.220  28.964  0.00  0.00    -0.000 A 
ENDROOT
BRANCH   7  11
ATOM     11  C   UNL A   1     -25.729  -2.751  29.897  0.00  0.00    +0.388 C 
ATOM     12  O   UNL A   1     -25.640  -3.901  29.615  0.00  0.00    -0.241 OA
ATOM     13  O   UNL A   1     -26.578  -2.294  30.746  0.00  0.00    -0.241 OA
ENDBRANCH   7  11
BRANCH   4  14
ATOM     14  C   UNL A   1     -23.565   2.076  25.928  0.00  0.00    +0.234 C 
ATOM     15  F   UNL A   1     -23.316   1.746  24.757  0.00  0.00    -0.225 F 
BRANCH  14  16
ATOM     16  P   UNL A   1     -24.541   3.424  26.324  0.00  0.00    +0.154 P 
ATOM     17  O   UNL A   1     -24.203   4.343  25.694  0.00  0.00    -0.457 OA
ATOM     18  O   UNL A   1     -25.987   2.955  26.102  0.00  0.00    -0.355 OA
ATOM     19  O   UNL A   1     -24.322   3.639  27.838  0.00  0.00    -0.355 OA
ENDBRANCH  14  16
ENDBRANCH   4  14
TORSDOF 3
ENDMDL
ENDMDL
