REMARK  Name = No_805-gen_results/8p0m/2024-11-26-14-13-15/
REMARK  10 active torsions:
REMARK  status: ('A' for Active; 'I' for Inactive)
REMARK    1  A    between atoms: C_2  and  C_29
REMARK    2  A    between atoms: C_3  and  C_4
REMARK    3  A    between atoms: C_4  and  C_8
REMARK    4  A    between atoms: C_8  and  C_15
REMARK    5  A    between atoms: C_9  and  C_10
REMARK    6  A    between atoms: C_11  and  C_12
REMARK    7  A    between atoms: C_13  and  C_14
REMARK    8  A    between atoms: N_16  and  C_17
REMARK    9  A    between atoms: C_17  and  C_21
REMARK   10  A    between atoms: C_24  and  C_32
REMARK                            x       y       z     vdW  Elec       q    Type
REMARK                         _______ _______ _______ _____ _____    ______ ____
ROOT
ATOM      1  C   UNL A   1     -25.926   0.282  26.744  0.00  0.00    +0.094 C 
ATOM      2  C   UNL A   1     -24.990   0.678  25.868  0.00  0.00    +0.008 C 
ENDROOT
BRANCH   1   3
ATOM      3  C   UNL A   1     -27.185   0.932  26.652  0.00  0.00    +0.268 C 
ATOM      4  N   UNL A   1     -28.000   0.587  25.634  0.00  0.00    -0.199 NA
ATOM      5  O   UNL A   1     -27.606   1.720  27.578  0.00  0.00    -0.268 OA
BRANCH   4   6
ATOM      6  C   UNL A   1     -28.845   1.455  25.112  0.00  0.00    +0.118 C 
ATOM      7  C   UNL A   1     -28.440   2.299  24.088  0.00  0.00    +0.028 C 
BRANCH   6   8
ATOM      8  C   UNL A   1     -30.156   1.274  25.643  0.00  0.00    -0.003 A 
ATOM      9  C   UNL A   1     -30.702   0.455  26.052  0.00  0.00    -0.003 A 
ATOM     10  C   UNL A   1     -32.050   0.312  26.640  0.00  0.00    +0.004 A 
ATOM     11  C   UNL A   1     -32.814   1.472  26.516  0.00  0.00    +0.055 A 
ATOM     12  C   UNL A   1     -32.294   2.582  25.924  0.00  0.00    +0.004 A 
ATOM     13  C   UNL A   1     -30.980   2.624  25.479  0.00  0.00    -0.003 A 
BRANCH  11  14
ATOM     14  C   UNL A   1     -34.216   1.456  27.044  0.00  0.00    +0.265 C 
ATOM     15  O   UNL A   1     -35.145   1.166  26.476  0.00  0.00    -0.268 OA
ATOM     16  N   UNL A   1     -34.284   1.837  28.442  0.00  0.00    -0.200 NA
ATOM     17  C   UNL A   1     -35.547   1.817  29.140  0.00  0.00    +0.139 C 
ENDBRANCH  11  14
ENDBRANCH   6   8
ENDBRANCH   4   6
ENDBRANCH   1   3
BRANCH   1  18
ATOM     18  C   UNL A   1     -25.654  -0.660  27.719  0.00  0.00    +0.200 C 
ATOM     19  O   UNL A   1     -24.669  -1.448  27.640  0.00  0.00    -0.286 OA
BRANCH  18  22
ATOM     20  C   UNL A   1     -28.016  -0.814  28.878  0.00  0.00    +0.010 A 
ATOM     21  C   UNL A   1     -28.469  -0.785  29.829  0.00  0.00    +0.080 A 
ATOM     22  C   UNL A   1     -26.504  -0.778  28.877  0.00  0.00    +0.039 A 
ATOM     23  C   UNL A   1     -27.918  -0.937  31.182  0.00  0.00    +0.007 A 
ATOM     24  C   UNL A   1     -26.542  -0.940  31.261  0.00  0.00    +0.000 A 
ATOM     25  C   UNL A   1     -25.783  -0.893  30.120  0.00  0.00    +0.003 A 
BRANCH  21  26
ATOM     26  C   UNL A   1     -30.096  -0.785  29.938  0.00  0.00    +0.388 C 
ATOM     27  O   UNL A   1     -30.619   0.271  29.790  0.00  0.00    -0.241 OA
ATOM     28  O   UNL A   1     -30.702  -1.959  29.809  0.00  0.00    -0.241 OA
ENDBRANCH  21  26
ENDBRANCH  18  22
ENDBRANCH   1  18
BRANCH   2  29
ATOM     29  C   UNL A   1     -24.189   1.608  25.848  0.00  0.00    +0.000 C 
ATOM     30  C   UNL A   1     -23.330   2.008  26.816  0.00  0.00    -0.000 C 
BRANCH  30  31
ATOM     31  C   UNL A   1     -23.735   1.942  28.186  0.00  0.00    -0.000 C 
ATOM     32  C   UNL A   1     -22.732   1.868  29.231  0.00  0.00    +0.028 C 
BRANCH  32  33
ATOM     33  C   UNL A   1     -22.215   0.708  29.305  0.00  0.00    +0.273 C 
ATOM     34  N   UNL A   1     -21.328   0.225  28.574  0.00  0.00    -0.090 NA
ATOM     35  F   UNL A   1     -22.703  -0.194  30.201  0.00  0.00    -0.211 F 
ENDBRANCH  32  33
ENDBRANCH  30  31
ENDBRANCH   2  29
TORSDOF 10
