MODEL 805
MODEL 1
REMARK VINA RESULT:    -7.787      0.000      0.000
REMARK INTER + INTRA:         -14.783
REMARK INTER:                 -12.339
REMARK INTRA:                  -2.444
REMARK UNBOUND:                -2.444
REMARK  Name = No_805-gen_results/8p0m/2024-11-26-14-13-15/
REMARK  10 active torsions:
REMARK  status: ('A' for Active; 'I' for Inactive)
REMARK    1  A    between atoms: C_2  and  C_29
REMARK    2  A    between atoms: C_3  and  C_4
REMARK    3  A    between atoms: C_4  and  C_8
REMARK    4  A    between atoms: C_8  and  C_15
REMARK    5  A    between atoms: C_9  and  C_10
REMARK    6  A    between atoms: C_11  and  C_12
REMARK    7  A    between atoms: C_13  and  C_14
REMARK    8  A    between atoms: N_16  and  C_17
REMARK    9  A    between atoms: C_17  and  C_21
REMARK   10  A    between atoms: C_24  and  C_32
REMARK                            x       y       z     vdW  Elec       q    Type
REMARK                         _______ _______ _______ _____ _____    ______ ____
ROOT
ATOM      1  C   UNL A   1     -27.538 -16.382   7.886  0.00  0.00    +0.094 C 
ATOM      2  C   UNL A   1     -27.119 -15.165   7.507  0.00  0.00    +0.008 C 
ENDROOT
BRANCH   1   3
ATOM      3  C   UNL A   1     -26.524 -17.345   8.130  0.00  0.00    +0.268 C 
ATOM      4  N   UNL A   1     -25.953 -17.943   7.063  0.00  0.00    -0.199 NA
ATOM      5  O   UNL A   1     -26.056 -17.548   9.311  0.00  0.00    -0.268 OA
BRANCH   4   6
ATOM      6  C   UNL A   1     -25.489 -19.176   7.139  0.00  0.00    +0.118 C 
ATOM      7  C   UNL A   1     -26.330 -20.220   7.495  0.00  0.00    +0.028 C 
BRANCH   6   8
ATOM      8  C   UNL A   1     -24.139 -19.242   6.686  0.00  0.00    -0.003 A 
ATOM      9  C   UNL A   1     -23.636 -19.040   5.768  0.00  0.00    -0.003 A 
ATOM     10  C   UNL A   1     -22.221 -19.074   5.345  0.00  0.00    +0.004 A 
ATOM     11  C   UNL A   1     -21.382 -19.606   6.323  0.00  0.00    +0.055 A 
ATOM     12  C   UNL A   1     -21.886 -20.007   7.522  0.00  0.00    +0.004 A 
ATOM     13  C   UNL A   1     -23.228 -19.851   7.839  0.00  0.00    -0.003 A 
BRANCH  11  14
ATOM     14  C   UNL A   1     -19.921 -19.727   6.013  0.00  0.00    +0.265 C 
ATOM     15  O   UNL A   1     -19.265 -18.938   5.547  0.00  0.00    -0.268 OA
ATOM     16  N   UNL A   1     -19.376 -21.010   6.415  0.00  0.00    -0.200 NA
ATOM     17  C   UNL A   1     -17.968 -21.283   6.254  0.00  0.00    +0.139 C 
ENDBRANCH  11  14
ENDBRANCH   6   8
ENDBRANCH   4   6
ENDBRANCH   1   3
BRANCH   1  18
ATOM     18  C   UNL A   1     -28.883 -16.692   7.972  0.00  0.00    +0.200 C 
ATOM     19  O   UNL A   1     -29.447 -17.476   7.158  0.00  0.00    -0.286 OA
BRANCH  18  22
ATOM     20  C   UNL A   1     -29.261 -15.798  10.422  0.00  0.00    +0.010 A 
ATOM     21  C   UNL A   1     -30.028 -15.490  11.076  0.00  0.00    +0.080 A 
ATOM     22  C   UNL A   1     -29.700 -16.116   9.010  0.00  0.00    +0.039 A 
ATOM     23  C   UNL A   1     -31.421 -15.093  10.834  0.00  0.00    +0.007 A 
ATOM     24  C   UNL A   1     -31.888 -15.327   9.559  0.00  0.00    +0.000 A 
ATOM     25  C   UNL A   1     -31.046 -15.814   8.592  0.00  0.00    +0.003 A 
BRANCH  21  26
ATOM     26  C   UNL A   1     -29.665 -15.157  12.631  0.00  0.00    +0.388 C 
ATOM     27  O   UNL A   1     -28.814 -15.830  13.113  0.00  0.00    -0.241 OA
ATOM     28  O   UNL A   1     -30.055 -13.975  13.094  0.00  0.00    -0.241 OA
ENDBRANCH  21  26
ENDBRANCH  18  22
ENDBRANCH   1  18
BRANCH   2  29
ATOM     29  C   UNL A   1     -26.796 -14.679   6.427  0.00  0.00    +0.000 C 
ATOM     30  C   UNL A   1     -25.566 -14.605   5.865  0.00  0.00    -0.000 C 
BRANCH  30  31
ATOM     31  C   UNL A   1     -24.427 -14.365   6.697  0.00  0.00    -0.000 C 
ATOM     32  C   UNL A   1     -23.185 -13.907   6.103  0.00  0.00    +0.028 C 
BRANCH  32  33
ATOM     33  C   UNL A   1     -22.576 -14.849   5.503  0.00  0.00    +0.273 C 
ATOM     34  N   UNL A   1     -22.245 -14.894   4.301  0.00  0.00    -0.090 NA
ATOM     35  F   UNL A   1     -22.306 -16.009   6.163  0.00  0.00    -0.211 F 
ENDBRANCH  32  33
ENDBRANCH  30  31
ENDBRANCH   2  29
TORSDOF 10
ENDMDL
ENDMDL
