REMARK  Name = No_806-gen_results/8p0m/2024-11-26-14-13-15/
REMARK  1 active torsions:
REMARK  status: ('A' for Active; 'I' for Inactive)
REMARK    1  A    between atoms: C_9  and  C_11
REMARK                            x       y       z     vdW  Elec       q    Type
REMARK                         _______ _______ _______ _____ _____    ______ ____
ROOT
ATOM      1  C   UNL A   1     -28.016  -0.814  28.878  0.00  0.00    -0.000 A 
ATOM      2  C   UNL A   1     -27.064  -0.119  28.608  0.00  0.00    -0.000 A 
ATOM      3  C   UNL A   1     -25.792  -0.430  29.076  0.00  0.00    -0.000 A 
ATOM      4  C   UNL A   1     -25.576  -1.565  29.936  0.00  0.00    -0.000 A 
ATOM      5  C   UNL A   1     -26.535  -2.226  30.144  0.00  0.00    -0.000 A 
ATOM      6  C   UNL A   1     -27.823  -1.982  29.741  0.00  0.00    -0.000 A 
ATOM      7  C   UNL A   1     -27.141   1.119  27.778  0.00  0.00    -0.000 A 
ATOM      8  C   UNL A   1     -26.172   1.551  27.053  0.00  0.00    -0.002 A 
ATOM      9  C   UNL A   1     -24.749   1.232  27.541  0.00  0.00    +0.010 A 
ATOM     10  C   UNL A   1     -24.575   0.171  28.410  0.00  0.00    -0.002 A 
ENDROOT
BRANCH   9  11
ATOM     11  C   UNL A   1     -23.591   1.898  26.947  0.00  0.00    +0.193 C 
ATOM     12  N   UNL A   1     -22.428   1.745  27.517  0.00  0.00    -0.110 NA
ATOM     13 CL   UNL A   1     -23.678   2.815  25.514  0.00  0.00    -0.089 Cl
ENDBRANCH   9  11
TORSDOF 1
