MODEL 806
MODEL 1
REMARK VINA RESULT:    -6.333      0.000      0.000
REMARK INTER + INTRA:          -6.794
REMARK INTER:                  -6.703
REMARK INTRA:                  -0.091
REMARK UNBOUND:                -0.091
REMARK  Name = No_806-gen_results/8p0m/2024-11-26-14-13-15/
REMARK  1 active torsions:
REMARK  status: ('A' for Active; 'I' for Inactive)
REMARK    1  A    between atoms: C_9  and  C_11
REMARK                            x       y       z     vdW  Elec       q    Type
REMARK                         _______ _______ _______ _____ _____    ______ ____
ROOT
ATOM      1  C   UNL A   1     -26.466  -3.421  30.032  0.00  0.00    -0.000 A 
ATOM      2  C   UNL A   1     -25.543  -2.646  29.933  0.00  0.00    -0.000 A 
ATOM      3  C   UNL A   1     -24.327  -3.043  29.386  0.00  0.00    -0.000 A 
ATOM      4  C   UNL A   1     -24.114  -4.403  28.962  0.00  0.00    -0.000 A 
ATOM      5  C   UNL A   1     -25.058  -5.110  29.054  0.00  0.00    -0.000 A 
ATOM      6  C   UNL A   1     -26.281  -4.807  29.597  0.00  0.00    -0.000 A 
ATOM      7  C   UNL A   1     -25.594  -1.223  30.381  0.00  0.00    -0.000 A 
ATOM      8  C   UNL A   1     -24.904  -0.282  29.842  0.00  0.00    -0.002 A 
ATOM      9  C   UNL A   1     -23.551  -0.681  29.231  0.00  0.00    +0.010 A 
ATOM     10  C   UNL A   1     -23.351  -2.004  28.883  0.00  0.00    -0.002 A 
ENDROOT
BRANCH   9  11
ATOM     11  C   UNL A   1     -22.580   0.341  28.840  0.00  0.00    +0.193 C 
ATOM     12  N   UNL A   1     -22.965   1.586  28.820  0.00  0.00    -0.110 NA
ATOM     13 CL   UNL A   1     -20.956  -0.013  28.467  0.00  0.00    -0.089 Cl
ENDBRANCH   9  11
TORSDOF 1
ENDMDL
ENDMDL
