MODEL 807
MODEL 1
REMARK VINA RESULT:    -5.500      0.000      0.000
REMARK INTER + INTRA:          -7.632
REMARK INTER:                  -7.108
REMARK INTRA:                  -0.524
REMARK UNBOUND:                -0.524
REMARK  Name = No_807-gen_results/8p0m/2024-11-26-14-13-15/
REMARK  5 active torsions:
REMARK  status: ('A' for Active; 'I' for Inactive)
REMARK    1  A    between atoms: C_3  and  C_10
REMARK    2  A    between atoms: C_6  and  O_15
REMARK    3  A    between atoms: N_11  and  C_13
REMARK    4  A    between atoms: O_15  and  C_16
REMARK    5  A    between atoms: C_16  and  C_17
REMARK                            x       y       z     vdW  Elec       q    Type
REMARK                         _______ _______ _______ _____ _____    ______ ____
ROOT
ATOM      1  F   UNL A   1     -21.616  -0.952  29.259  0.00  0.00    -0.202 F 
ATOM      2  C   UNL A   1     -22.455  -0.175  29.188  0.00  0.00    +0.176 A 
ATOM      3  C   UNL A   1     -23.443  -0.343  29.997  0.00  0.00    +0.096 A 
ATOM      4  C   UNL A   1     -24.606   0.567  30.112  0.00  0.00    +0.078 A 
ATOM      5  C   UNL A   1     -24.563   1.710  29.239  0.00  0.00    +0.105 A 
ATOM      6  C   UNL A   1     -23.457   1.843  28.430  0.00  0.00    +0.180 A 
ATOM      7  C   UNL A   1     -22.419   0.960  28.416  0.00  0.00    +0.202 A 
ATOM      8  F   UNL A   1     -21.404   1.172  27.634  0.00  0.00    -0.199 F 
ATOM      9 CL   UNL A   1     -25.958   0.325  31.103  0.00  0.00    -0.081 Cl
ATOM     10 CL   UNL A   1     -25.899   2.821  29.234  0.00  0.00    -0.078 Cl
ENDROOT
BRANCH   3  11
ATOM     11  C   UNL A   1     -23.655  -1.495  30.953  0.00  0.00    +0.268 C 
ATOM     12  N   UNL A   1     -24.166  -2.573  30.553  0.00  0.00    -0.202 NA
ATOM     13  O   UNL A   1     -23.359  -1.273  32.175  0.00  0.00    -0.268 OA
BRANCH  12  14
ATOM     14  C   UNL A   1     -24.515  -2.960  29.248  0.00  0.00    +0.116 C 
ATOM     15  C   UNL A   1     -24.162  -4.041  28.656  0.00  0.00    +0.025 C 
ENDBRANCH  12  14
ENDBRANCH   3  11
BRANCH   6  16
ATOM     16  O   UNL A   1     -23.424   2.960  27.583  0.00  0.00    -0.460 OA
BRANCH  16  17
ATOM     17  C   UNL A   1     -24.026   2.910  26.447  0.00  0.00    +0.319 C 
BRANCH  17  18
ATOM     18  C   UNL A   1     -23.555   2.089  25.425  0.00  0.00    +0.408 C 
ATOM     19  O   UNL A   1     -22.482   2.403  24.882  0.00  0.00    -0.241 OA
ATOM     20  O   UNL A   1     -24.187   0.999  25.087  0.00  0.00    -0.241 OA
ENDBRANCH  17  18
ENDBRANCH  16  17
ENDBRANCH   6  16
TORSDOF 5
ENDMDL
ENDMDL
