REMARK  Name = No_808-gen_results/8p0m/2024-11-26-14-13-15/
REMARK  7 active torsions:
REMARK  status: ('A' for Active; 'I' for Inactive)
REMARK    1  A    between atoms: C_2  and  C_12
REMARK    2  A    between atoms: C_12  and  O_14
REMARK    3  A    between atoms: O_14  and  C_15
REMARK    4  A    between atoms: C_15  and  C_16
REMARK    5  A    between atoms: C_15  and  N_19
REMARK    6  A    between atoms: N_19  and  C_21
REMARK    7  A    between atoms: C_21  and  C_23
REMARK                            x       y       z     vdW  Elec       q    Type
REMARK                         _______ _______ _______ _____ _____    ______ ____
ROOT
ATOM      1  O   UNL A   1     -30.758  -1.708  30.472  0.00  0.00    -0.424 OA
ENDROOT
BRANCH   1   2
ATOM      2  C   UNL A   1     -29.609  -1.935  30.153  0.00  0.00    +0.343 C 
ATOM      3  O   UNL A   1     -29.190  -3.106  30.534  0.00  0.00    -0.245 OA
BRANCH   2   5
ATOM      4  C   UNL A   1     -28.016  -0.814  28.878  0.00  0.00    +0.006 A 
ATOM      5  C   UNL A   1     -28.469  -0.785  29.829  0.00  0.00    +0.076 A 
ATOM      6  C   UNL A   1     -27.087   0.290  28.638  0.00  0.00    +0.000 A 
ATOM      7  C   UNL A   1     -26.832   1.249  29.587  0.00  0.00    +0.003 A 
ATOM      8  C   UNL A   1     -28.391   0.080  31.006  0.00  0.00    +0.006 A 
ATOM      9  C   UNL A   1     -27.494   1.152  30.784  0.00  0.00    +0.000 A 
ATOM     10  C   UNL A   1     -26.260   0.604  27.415  0.00  0.00    +0.003 A 
ATOM     11  C   UNL A   1     -25.197   1.046  27.345  0.00  0.00    +0.042 A 
ATOM     12  C   UNL A   1     -24.844   2.044  28.464  0.00  0.00    +0.196 A 
ATOM     13  C   UNL A   1     -25.597   2.013  29.612  0.00  0.00    +0.042 A 
ATOM     14  O   UNL A   1     -23.725   2.799  28.239  0.00  0.00    -0.287 OA
ENDBRANCH   2   5
ENDBRANCH   1   2
BRANCH   1  15
ATOM     15  C   UNL A   1     -31.729  -2.607  30.260  0.00  0.00    +0.327 C 
BRANCH  15  16
ATOM     16  C   UNL A   1     -32.274  -2.607  28.989  0.00  0.00    +0.450 C 
ATOM     17  F   UNL A   1     -31.820  -1.742  28.265  0.00  0.00    -0.165 F 
ATOM     18  F   UNL A   1     -32.570  -3.707  28.384  0.00  0.00    -0.165 F 
ATOM     19  F   UNL A   1     -33.554  -2.045  28.967  0.00  0.00    -0.165 F 
ENDBRANCH  15  16
BRANCH  15  20
ATOM     20  N   UNL A   1     -32.815  -2.267  31.239  0.00  0.00    -0.227 NA
ATOM     21  C   UNL A   1     -33.382  -1.071  31.412  0.00  0.00    +0.093 C 
BRANCH  20  22
ATOM     22  C   UNL A   1     -33.243  -3.324  32.098  0.00  0.00    +0.102 C 
BRANCH  22  23
ATOM     23  C   UNL A   1     -32.264  -4.077  32.650  0.00  0.00    -0.006 A 
ATOM     24  C   UNL A   1     -32.308  -4.973  33.321  0.00  0.00    -0.003 A 
ATOM     25  C   UNL A   1     -31.159  -5.810  33.915  0.00  0.00    -0.000 A 
ATOM     26  C   UNL A   1     -30.037  -5.625  33.369  0.00  0.00    -0.000 A 
ATOM     27  C   UNL A   1     -29.791  -4.626  32.381  0.00  0.00    -0.000 A 
ATOM     28  C   UNL A   1     -30.891  -3.854  31.997  0.00  0.00    -0.003 A 
ENDBRANCH  22  23
ENDBRANCH  20  22
ENDBRANCH  15  20
ENDBRANCH   1  15
TORSDOF 7
