REMARK  Name = No_809-gen_results/8p0m/2024-11-26-14-13-15/
REMARK  10 active torsions:
REMARK  status: ('A' for Active; 'I' for Inactive)
REMARK    1  A    between atoms: C_1  and  C_8
REMARK    2  A    between atoms: C_3  and  C_14
REMARK    3  A    between atoms: C_5  and  C_10
REMARK    4  A    between atoms: N_16  and  C_17
REMARK    5  A    between atoms: C_17  and  C_18
REMARK    6  A    between atoms: C_20  and  O_24
REMARK    7  A    between atoms: O_24  and  C_25
REMARK    8  A    between atoms: C_25  and  C_26
REMARK    9  A    between atoms: C_26  and  P_27
REMARK   10  A    between atoms: P_27  and  O_29
REMARK                            x       y       z     vdW  Elec       q    Type
REMARK                         _______ _______ _______ _____ _____    ______ ____
ROOT
ATOM      1  C   UNL A   1     -28.079   0.806  26.554  0.00  0.00    +0.245 C 
ATOM      2  O   UNL A   1     -28.939   1.518  26.671  0.00  0.00    -0.273 OA
ATOM      3  N   UNL A   1     -28.046  -0.058  25.493  0.00  0.00    -0.200 NA
ENDROOT
BRANCH   1   6
ATOM      4  C   UNL A   1     -28.016  -0.814  28.878  0.00  0.00    +0.078 C 
ATOM      5  C   UNL A   1     -27.064  -0.119  28.608  0.00  0.00    -0.029 C 
ATOM      6  C   UNL A   1     -26.972   0.714  27.506  0.00  0.00    +0.097 C 
ATOM      7  C   UNL A   1     -25.821   1.491  27.116  0.00  0.00    +0.025 C 
ATOM      8  C   UNL A   1     -24.656   1.424  27.918  0.00  0.00    +0.104 C 
ATOM      9  C   UNL A   1     -24.685   0.590  29.066  0.00  0.00    +0.016 C 
ATOM     10  C   UNL A   1     -25.810  -0.127  29.334  0.00  0.00    +0.023 C 
BRANCH   4  11
ATOM     11  C   UNL A   1     -28.709  -0.459  30.175  0.00  0.00    +0.387 C 
ATOM     12  O   UNL A   1     -29.427  -1.389  30.742  0.00  0.00    -0.241 OA
ATOM     13  O   UNL A   1     -28.568   0.587  30.757  0.00  0.00    -0.241 OA
ENDBRANCH   4  11
BRANCH   8  14
ATOM     14  C   UNL A   1     -23.463   2.205  27.598  0.00  0.00    +0.364 C 
ATOM     15  O   UNL A   1     -22.574   2.250  28.484  0.00  0.00    -0.246 OA
ATOM     16  O   UNL A   1     -23.261   2.580  26.374  0.00  0.00    -0.246 OA
ENDBRANCH   8  14
ENDBRANCH   1   6
BRANCH   3  17
ATOM     17  C   UNL A   1     -29.035  -0.158  24.471  0.00  0.00    +0.142 C 
BRANCH  17  18
ATOM     18  C   UNL A   1     -30.267  -0.459  25.000  0.00  0.00    +0.003 A 
ATOM     19  C   UNL A   1     -30.447  -1.517  25.655  0.00  0.00    +0.034 A 
ATOM     20  C   UNL A   1     -31.792  -1.937  26.179  0.00  0.00    +0.138 A 
ATOM     21  C   UNL A   1     -32.865  -1.191  25.662  0.00  0.00    +0.037 A 
ATOM     22  C   UNL A   1     -32.730  -0.099  24.878  0.00  0.00    +0.003 A 
ATOM     23  C   UNL A   1     -31.445   0.271  24.462  0.00  0.00    -0.002 A 
BRANCH  20  24
ATOM     24  O   UNL A   1     -31.924  -2.980  26.972  0.00  0.00    -0.475 OA
BRANCH  24  25
ATOM     25  C   UNL A   1     -32.107  -2.772  28.306  0.00  0.00    +0.218 C 
BRANCH  25  26
ATOM     26  C   UNL A   1     -33.127  -3.610  28.901  0.00  0.00    +0.165 C 
BRANCH  26  27
ATOM     27  P   UNL A   1     -33.489  -4.862  28.408  0.00  0.00    +0.374 P 
ATOM     28  O   UNL A   1     -34.495  -5.349  28.549  0.00  0.00    -0.140 OA
ATOM     29  O   UNL A   1     -33.018  -4.982  26.915  0.00  0.00    -0.255 OA
BRANCH  27  30
ATOM     30  O   UNL A   1     -32.346  -5.788  29.086  0.00  0.00    -0.290 OA
ATOM     31  C   UNL A   1     -31.398  -6.373  28.472  0.00  0.00    +0.184 C 
ENDBRANCH  27  30
ENDBRANCH  26  27
ENDBRANCH  25  26
ENDBRANCH  24  25
ENDBRANCH  20  24
ENDBRANCH  17  18
ENDBRANCH   3  17
TORSDOF 10
