MODEL 80
MODEL 1
REMARK VINA RESULT:    -4.378      0.000      0.000
REMARK INTER + INTRA:          -5.028
REMARK INTER:                  -4.890
REMARK INTRA:                  -0.138
REMARK UNBOUND:                -0.138
REMARK  Name = No_80-gen_results/8p0m/2024-11-26-14-13-15/
REMARK  2 active torsions:
REMARK  status: ('A' for Active; 'I' for Inactive)
REMARK    1  A    between atoms: C_2  and  C_4
REMARK    2  A    between atoms: C_4  and  C_5
REMARK                            x       y       z     vdW  Elec       q    Type
REMARK                         _______ _______ _______ _____ _____    ______ ____
ROOT
ATOM      1  C   UNL A   1      -9.341  -9.298  19.686  0.00  0.00    +0.078 C 
ENDROOT
BRANCH   1   3
ATOM      2 CL   UNL A   1      -9.010 -11.012  17.881  0.00  0.00    -0.076 Cl
ATOM      3  C   UNL A   1      -9.641  -9.816  18.381  0.00  0.00    +0.243 C 
ATOM      4  F   UNL A   1     -10.352  -9.271  17.670  0.00  0.00    -0.219 F 
ENDBRANCH   1   3
BRANCH   1   5
ATOM      5  C   UNL A   1      -8.130  -9.689  20.265  0.00  0.00    -0.026 C 
ATOM      6  C   UNL A   1      -6.977  -9.100  20.113  0.00  0.00    -0.030 C 
ATOM      7  C   UNL A   1      -6.971  -7.813  19.540  0.00  0.00    +0.030 C 
ENDBRANCH   1   5
TORSDOF 2
ENDMDL
ENDMDL
