REMARK  Name = No_81-gen_results/8p0m/2024-11-26-14-13-15/
REMARK  1 active torsions:
REMARK  status: ('A' for Active; 'I' for Inactive)
REMARK    1  A    between atoms: C_5  and  C_8
REMARK                            x       y       z     vdW  Elec       q    Type
REMARK                         _______ _______ _______ _____ _____    ______ ____
ROOT
ATOM      1  F   UNL A   1     -28.073  -1.254  28.532  0.00  0.00    -0.204 F 
ATOM      2  C   UNL A   1     -27.061  -0.629  28.872  0.00  0.00    +0.140 A 
ATOM      3  C   UNL A   1     -26.153  -1.156  29.454  0.00  0.00    +0.030 A 
ATOM      4  C   UNL A   1     -24.878  -0.579  29.864  0.00  0.00    +0.006 A 
ATOM      5  C   UNL A   1     -24.743   0.827  29.481  0.00  0.00    +0.072 A 
ATOM      6  C   UNL A   1     -25.788   1.393  28.763  0.00  0.00    +0.006 A 
ATOM      7  C   UNL A   1     -26.915   0.731  28.443  0.00  0.00    +0.030 A 
ENDROOT
BRANCH   5   8
ATOM      8  C   UNL A   1     -23.540   1.527  29.845  0.00  0.00    +0.419 C 
ATOM      9  F   UNL A   1     -23.274   2.376  29.120  0.00  0.00    -0.166 F 
ATOM     10  F   UNL A   1     -23.640   2.027  31.132  0.00  0.00    -0.166 F 
ATOM     11  F   UNL A   1     -22.447   0.660  29.961  0.00  0.00    -0.166 F 
ENDBRANCH   5   8
TORSDOF 1
