MODEL 810
MODEL 1
REMARK VINA RESULT:    -6.137      0.000      0.000
REMARK INTER + INTRA:          -7.770
REMARK INTER:                  -7.214
REMARK INTRA:                  -0.557
REMARK UNBOUND:                -0.557
REMARK  Name = No_810-gen_results/8p0m/2024-11-26-14-13-15/
REMARK  3 active torsions:
REMARK  status: ('A' for Active; 'I' for Inactive)
REMARK    1  A    between atoms: C_3  and  C_8
REMARK    2  A    between atoms: C_6  and  O_7
REMARK    3  A    between atoms: O_7  and  C_14
REMARK                            x       y       z     vdW  Elec       q    Type
REMARK                         _______ _______ _______ _____ _____    ______ ____
ROOT
ATOM      1  C   UNL A   1     -24.749  -4.130  29.180  0.00  0.00    +0.037 A 
ATOM      2  C   UNL A   1     -23.964  -3.270  28.855  0.00  0.00    +0.003 A 
ATOM      3  C   UNL A   1     -24.265  -1.923  29.021  0.00  0.00    +0.000 A 
ATOM      4  C   UNL A   1     -25.541  -1.507  29.544  0.00  0.00    +0.003 A 
ATOM      5  C   UNL A   1     -26.398  -2.566  29.872  0.00  0.00    +0.037 A 
ATOM      6  C   UNL A   1     -26.072  -3.824  29.680  0.00  0.00    +0.145 A 
ENDROOT
BRANCH   3   7
ATOM      7  C   UNL A   1     -23.367  -0.762  28.666  0.00  0.00    +0.000 A 
ATOM      8  C   UNL A   1     -23.791   0.183  27.845  0.00  0.00    +0.000 A 
ATOM      9  C   UNL A   1     -23.091   1.155  27.442  0.00  0.00    +0.000 A 
ATOM     10  C   UNL A   1     -21.703   1.292  27.708  0.00  0.00    +0.000 A 
ATOM     11  C   UNL A   1     -21.999  -0.761  29.009  0.00  0.00    +0.000 A 
ATOM     12  C   UNL A   1     -21.157   0.338  28.538  0.00  0.00    +0.000 A 
ENDBRANCH   3   7
BRANCH   6  13
ATOM     13  O   UNL A   1     -26.978  -4.791  29.989  0.00  0.00    -0.451 OA
BRANCH  13  14
ATOM     14  C   UNL A   1     -28.215  -4.484  30.417  0.00  0.00    +0.175 C 
ATOM     15  C   UNL A   1     -28.833  -5.059  31.114  0.00  0.00    +0.015 C 
ATOM     16  C   UNL A   1     -30.199  -4.661  31.591  0.00  0.00    +0.034 C 
ENDBRANCH  13  14
ENDBRANCH   6  13
TORSDOF 3
ENDMDL
ENDMDL
