REMARK  Name = No_811-gen_results/8p0m/2024-11-26-14-13-15/
REMARK  3 active torsions:
REMARK  status: ('A' for Active; 'I' for Inactive)
REMARK    1  A    between atoms: C_2  and  C_4
REMARK    2  A    between atoms: C_4  and  C_7
REMARK    3  A    between atoms: C_4  and  C_8
REMARK                            x       y       z     vdW  Elec       q    Type
REMARK                         _______ _______ _______ _____ _____    ______ ____
ROOT
ATOM      1  C   UNL A   1     -29.253  -0.689  30.972  0.00  0.00    +0.071 C 
ATOM      2  C   UNL A   1     -30.457  -1.134  30.990  0.00  0.00    +0.007 C 
ENDROOT
BRANCH   1   4
ATOM      3 CL   UNL A   1     -28.149  -0.820  28.908  0.00  0.00    -0.047 Cl
ATOM      4  C   UNL A   1     -28.532  -0.047  29.773  0.00  0.00    +0.330 C 
ATOM      5  F   UNL A   1     -27.651   0.717  30.309  0.00  0.00    -0.187 F 
ATOM      6  F   UNL A   1     -29.454   0.827  29.245  0.00  0.00    -0.187 F 
ENDBRANCH   1   4
BRANCH   1   7
ATOM      7  C   UNL A   1     -29.085   0.151  32.251  0.00  0.00    +0.007 C 
ATOM      8  C   UNL A   1     -29.333  -0.213  33.323  0.00  0.00    +0.000 C 
ENDBRANCH   1   7
BRANCH   1   9
ATOM      9  C   UNL A   1     -28.294  -1.941  31.307  0.00  0.00    +0.007 C 
ATOM     10  C   UNL A   1     -27.511  -2.482  30.410  0.00  0.00    +0.000 C 
ENDBRANCH   1   9
TORSDOF 3
