MODEL 811
MODEL 1
REMARK VINA RESULT:    -4.307      0.000      0.000
REMARK INTER + INTRA:          -5.387
REMARK INTER:                  -5.062
REMARK INTRA:                  -0.324
REMARK UNBOUND:                -0.324
REMARK  Name = No_811-gen_results/8p0m/2024-11-26-14-13-15/
REMARK  3 active torsions:
REMARK  status: ('A' for Active; 'I' for Inactive)
REMARK    1  A    between atoms: C_2  and  C_4
REMARK    2  A    between atoms: C_4  and  C_7
REMARK    3  A    between atoms: C_4  and  C_8
REMARK                            x       y       z     vdW  Elec       q    Type
REMARK                         _______ _______ _______ _____ _____    ______ ____
ROOT
ATOM      1  C   UNL A   1     -23.392   1.948  26.328  0.00  0.00    +0.071 C 
ATOM      2  C   UNL A   1     -22.951   2.293  25.173  0.00  0.00    +0.007 C 
ENDROOT
BRANCH   1   4
ATOM      3 CL   UNL A   1     -21.358   1.657  27.458  0.00  0.00    -0.047 Cl
ATOM      4  C   UNL A   1     -22.556   1.418  27.507  0.00  0.00    +0.330 C 
ATOM      5  F   UNL A   1     -22.905   0.188  27.612  0.00  0.00    -0.187 F 
ATOM      6  F   UNL A   1     -23.107   2.017  28.616  0.00  0.00    -0.187 F 
ENDBRANCH   1   4
BRANCH   1   7
ATOM      7  C   UNL A   1     -24.356   3.062  26.772  0.00  0.00    +0.007 C 
ATOM      8  C   UNL A   1     -24.569   4.034  26.176  0.00  0.00    +0.000 C 
ENDBRANCH   1   7
BRANCH   1   9
ATOM      9  C   UNL A   1     -24.427   0.736  26.082  0.00  0.00    +0.007 C 
ATOM     10  C   UNL A   1     -24.816   0.380  24.885  0.00  0.00    +0.000 C 
ENDBRANCH   1   9
TORSDOF 3
ENDMDL
ENDMDL
