MODEL 812
MODEL 1
REMARK VINA RESULT:    -4.576      0.000      0.000
REMARK INTER + INTRA:          -4.959
REMARK INTER:                  -4.843
REMARK INTRA:                  -0.116
REMARK UNBOUND:                -0.116
REMARK  Name = No_812-gen_results/8p0m/2024-11-26-14-13-15/
REMARK  1 active torsions:
REMARK  status: ('A' for Active; 'I' for Inactive)
REMARK    1  A    between atoms: C_3  and  C_5
REMARK                            x       y       z     vdW  Elec       q    Type
REMARK                         _______ _______ _______ _____ _____    ______ ____
ROOT
ATOM      1  O   UNL A   1     -26.598 -12.827  33.575  0.00  0.00    -0.273 OA
ATOM      2  C   UNL A   1     -27.255 -11.892  33.427  0.00  0.00    +0.245 C 
ATOM      3  C   UNL A   1     -28.055 -11.512  32.800  0.00  0.00    +0.100 C 
ATOM      4  N   UNL A   1     -26.978 -10.871  34.558  0.00  0.00    -0.205 NA
ATOM      5  C   UNL A   1     -27.693  -9.709  34.710  0.00  0.00    +0.115 C 
ATOM      6  C   UNL A   1     -28.668  -9.449  33.774  0.00  0.00    +0.024 C 
ATOM      7  C   UNL A   1     -28.957 -10.273  32.859  0.00  0.00    +0.015 C 
ENDROOT
BRANCH   3   8
ATOM      8  C   UNL A   1     -28.645 -12.215  31.698  0.00  0.00    -0.017 C 
ATOM      9  C   UNL A   1     -28.423 -11.748  30.581  0.00  0.00    -0.004 C 
ENDBRANCH   3   8
TORSDOF 1
ENDMDL
ENDMDL
