REMARK  Name = No_813-gen_results/8p0m/2024-11-26-14-13-15/
REMARK  4 active torsions:
REMARK  status: ('A' for Active; 'I' for Inactive)
REMARK    1  A    between atoms: C_3  and  C_7
REMARK    2  A    between atoms: C_7  and  C_8
REMARK    3  A    between atoms: C_7  and  C_15
REMARK    4  A    between atoms: C_8  and  C_9
REMARK                            x       y       z     vdW  Elec       q    Type
REMARK                         _______ _______ _______ _____ _____    ______ ____
ROOT
ATOM      1  C   UNL A   1     -27.459   0.379  26.705  0.00  0.00    +0.043 C 
ENDROOT
BRANCH   1   4
ATOM      2  C   UNL A   1     -28.016  -0.814  28.878  0.00  0.00    -0.004 A 
ATOM      3  C   UNL A   1     -28.469  -0.785  29.829  0.00  0.00    -0.000 A 
ATOM      4  C   UNL A   1     -28.196   0.348  28.055  0.00  0.00    -0.021 A 
ATOM      5  C   UNL A   1     -29.019   1.350  28.378  0.00  0.00    -0.004 A 
ATOM      6  C   UNL A   1     -29.625   1.268  29.601  0.00  0.00    -0.000 A 
ATOM      7  C   UNL A   1     -29.382   0.182  30.400  0.00  0.00    -0.000 A 
ENDBRANCH   1   4
BRANCH   1   8
ATOM      8  C   UNL A   1     -28.124   0.595  25.553  0.00  0.00    +0.100 C 
ATOM      9 CL   UNL A   1     -29.331   1.507  25.287  0.00  0.00    -0.113 Cl
ENDBRANCH   1   8
BRANCH   1  10
ATOM     10  C   UNL A   1     -26.135   0.356  26.818  0.00  0.00    +0.032 C 
BRANCH  10  11
ATOM     11  C   UNL A   1     -25.322   1.316  27.378  0.00  0.00    -0.019 A 
ATOM     12  C   UNL A   1     -25.580   2.499  27.413  0.00  0.00    +0.016 A 
ATOM     13  C   UNL A   1     -24.851   3.459  27.873  0.00  0.00    +0.099 A 
ATOM     14  N   UNL A   1     -23.576   3.052  28.212  0.00  0.00    -0.242 NA
ATOM     15  C   UNL A   1     -23.923   1.121  27.851  0.00  0.00    +0.016 A 
ATOM     16  C   UNL A   1     -23.096   1.934  28.265  0.00  0.00    +0.099 A 
ENDBRANCH  10  11
ENDBRANCH   1  10
TORSDOF 4
