MODEL 813
MODEL 1
REMARK VINA RESULT:    -6.733      0.000      0.000
REMARK INTER + INTRA:          -9.064
REMARK INTER:                  -8.307
REMARK INTRA:                  -0.757
REMARK UNBOUND:                -0.757
REMARK  Name = No_813-gen_results/8p0m/2024-11-26-14-13-15/
REMARK  4 active torsions:
REMARK  status: ('A' for Active; 'I' for Inactive)
REMARK    1  A    between atoms: C_3  and  C_7
REMARK    2  A    between atoms: C_7  and  C_8
REMARK    3  A    between atoms: C_7  and  C_15
REMARK    4  A    between atoms: C_8  and  C_9
REMARK                            x       y       z     vdW  Elec       q    Type
REMARK                         _______ _______ _______ _____ _____    ______ ____
ROOT
ATOM      1  C   UNL A   1     -23.142  -0.809  29.333  0.00  0.00    +0.043 C 
ENDROOT
BRANCH   1   4
ATOM      2  C   UNL A   1     -22.067   1.137  28.103  0.00  0.00    -0.004 A 
ATOM      3  C   UNL A   1     -22.064   1.783  27.271  0.00  0.00    -0.000 A 
ATOM      4  C   UNL A   1     -23.166   0.218  28.188  0.00  0.00    -0.021 A 
ATOM      5  C   UNL A   1     -24.222   0.267  27.371  0.00  0.00    -0.004 A 
ATOM      6  C   UNL A   1     -24.168   1.190  26.363  0.00  0.00    -0.000 A 
ATOM      7  C   UNL A   1     -23.074   2.009  26.260  0.00  0.00    -0.000 A 
ENDBRANCH   1   4
BRANCH   1   8
ATOM      8  C   UNL A   1     -23.183  -0.418  30.621  0.00  0.00    +0.100 C 
ATOM      9 CL   UNL A   1     -23.845   0.825  31.236  0.00  0.00    -0.113 Cl
ENDBRANCH   1   8
BRANCH   1  10
ATOM     10  C   UNL A   1     -23.260  -2.068  28.924  0.00  0.00    +0.032 C 
BRANCH  10  11
ATOM     11  C   UNL A   1     -24.258  -2.965  29.237  0.00  0.00    -0.019 A 
ATOM     12  C   UNL A   1     -24.227  -4.147  28.974  0.00  0.00    +0.016 A 
ATOM     13  C   UNL A   1     -25.138  -5.034  29.190  0.00  0.00    +0.099 A 
ATOM     14  N   UNL A   1     -26.326  -4.489  29.635  0.00  0.00    -0.242 NA
ATOM     15  C   UNL A   1     -25.612  -2.630  29.761  0.00  0.00    +0.016 A 
ATOM     16  C   UNL A   1     -26.590  -3.348  29.970  0.00  0.00    +0.099 A 
ENDBRANCH  10  11
ENDBRANCH   1  10
TORSDOF 4
ENDMDL
ENDMDL
