REMARK  Name = No_814-gen_results/8p0m/2024-11-26-14-13-15/
REMARK  4 active torsions:
REMARK  status: ('A' for Active; 'I' for Inactive)
REMARK    1  A    between atoms: C_2  and  C_7
REMARK    2  A    between atoms: N_9  and  C_11
REMARK    3  A    between atoms: C_12  and  C_13
REMARK    4  A    between atoms: C_14  and  C_15
REMARK                            x       y       z     vdW  Elec       q    Type
REMARK                         _______ _______ _______ _____ _____    ______ ____
ROOT
ATOM      1  C   UNL A   1     -30.077  -0.886  30.024  0.00  0.00    +0.253 C 
ATOM      2  O   UNL A   1     -30.641  -1.899  30.142  0.00  0.00    -0.270 OA
ATOM      3  N   UNL A   1     -30.744   0.304  29.772  0.00  0.00    -0.252 N 
ATOM      4  C   UNL A   1     -32.155   0.289  29.714  0.00  0.00    +0.120 C 
ENDROOT
BRANCH   1   6
ATOM      5  C   UNL A   1     -28.016  -0.814  28.878  0.00  0.00    +0.004 A 
ATOM      6  C   UNL A   1     -28.469  -0.785  29.829  0.00  0.00    +0.054 A 
ATOM      7  C   UNL A   1     -26.504  -0.778  28.877  0.00  0.00    +0.000 A 
ATOM      8  C   UNL A   1     -25.810  -0.853  30.103  0.00  0.00    +0.000 A 
ATOM      9  C   UNL A   1     -27.991  -0.892  31.226  0.00  0.00    +0.004 A 
ATOM     10  C   UNL A   1     -26.604  -0.868  31.265  0.00  0.00    +0.000 A 
ENDBRANCH   1   6
BRANCH   3  11
ATOM     11  C   UNL A   1     -30.048   1.577  29.604  0.00  0.00    +0.068 C 
ATOM     12  C   UNL A   1     -30.190   2.050  28.453  0.00  0.00    +0.016 C 
BRANCH  12  13
ATOM     13  C   UNL A   1     -29.912   1.857  27.497  0.00  0.00    +0.001 C 
ATOM     14  C   UNL A   1     -30.036   2.609  26.204  0.00  0.00    +0.000 C 
BRANCH  14  15
ATOM     15  C   UNL A   1     -30.708   3.823  26.367  0.00  0.00    +0.000 C 
ATOM     16  C   UNL A   1     -31.110   4.230  27.592  0.00  0.00    +0.000 C 
ENDBRANCH  14  15
ENDBRANCH  12  13
ENDBRANCH   3  11
TORSDOF 4
