MODEL 814
MODEL 1
REMARK VINA RESULT:    -6.261      0.000      0.000
REMARK INTER + INTRA:          -7.661
REMARK INTER:                  -7.725
REMARK INTRA:                   0.064
REMARK UNBOUND:                 0.064
REMARK  Name = No_814-gen_results/8p0m/2024-11-26-14-13-15/
REMARK  4 active torsions:
REMARK  status: ('A' for Active; 'I' for Inactive)
REMARK    1  A    between atoms: C_2  and  C_7
REMARK    2  A    between atoms: N_9  and  C_11
REMARK    3  A    between atoms: C_12  and  C_13
REMARK    4  A    between atoms: C_14  and  C_15
REMARK                            x       y       z     vdW  Elec       q    Type
REMARK                         _______ _______ _______ _____ _____    ______ ____
ROOT
ATOM      1  C   UNL A   1     -23.281   1.131  29.790  0.00  0.00    +0.253 C 
ATOM      2  O   UNL A   1     -23.292   1.949  30.621  0.00  0.00    -0.270 OA
ATOM      3  N   UNL A   1     -23.258  -0.223  30.089  0.00  0.00    -0.252 N 
ATOM      4  C   UNL A   1     -23.305  -0.617  31.445  0.00  0.00    +0.120 C 
ENDROOT
BRANCH   1   6
ATOM      5  C   UNL A   1     -22.009   1.437  27.828  0.00  0.00    +0.004 A 
ATOM      6  C   UNL A   1     -22.982   1.459  28.229  0.00  0.00    +0.054 A 
ATOM      7  C   UNL A   1     -21.896   1.834  26.373  0.00  0.00    +0.000 A 
ATOM      8  C   UNL A   1     -23.033   2.333  25.703  0.00  0.00    +0.000 A 
ATOM      9  C   UNL A   1     -24.299   1.958  27.771  0.00  0.00    +0.004 A 
ATOM     10  C   UNL A   1     -24.233   2.339  26.438  0.00  0.00    +0.000 A 
ENDBRANCH   1   6
BRANCH   3  11
ATOM     11  C   UNL A   1     -23.227  -1.257  29.058  0.00  0.00    +0.068 C 
ATOM     12  C   UNL A   1     -24.369  -1.537  28.628  0.00  0.00    +0.016 C 
BRANCH  12  13
ATOM     13  C   UNL A   1     -25.227  -1.979  28.940  0.00  0.00    +0.001 C 
ATOM     14  C   UNL A   1     -25.581  -3.367  29.387  0.00  0.00    +0.000 C 
BRANCH  14  15
ATOM     15  C   UNL A   1     -24.485  -4.231  29.327  0.00  0.00    +0.000 C 
ATOM     16  C   UNL A   1     -24.594  -5.445  28.741  0.00  0.00    +0.000 C 
ENDBRANCH  14  15
ENDBRANCH  12  13
ENDBRANCH   3  11
TORSDOF 4
ENDMDL
ENDMDL
