REMARK  Name = No_815-gen_results/8p0m/2024-11-26-14-13-15/
REMARK  1 active torsions:
REMARK  status: ('A' for Active; 'I' for Inactive)
REMARK    1  A    between atoms: C_7  and  N_8
REMARK                            x       y       z     vdW  Elec       q    Type
REMARK                         _______ _______ _______ _____ _____    ______ ____
ROOT
ATOM      1  C   UNL A   1     -28.016  -0.814  28.878  0.00  0.00    +0.001 A 
ATOM      2  C   UNL A   1     -27.064  -0.119  28.608  0.00  0.00    +0.013 A 
ATOM      3  C   UNL A   1     -25.792  -0.430  29.076  0.00  0.00    -0.003 A 
ATOM      4  C   UNL A   1     -25.576  -1.565  29.936  0.00  0.00    -0.000 A 
ATOM      5  C   UNL A   1     -26.735  -2.300  30.217  0.00  0.00    -0.000 A 
ATOM      6  C   UNL A   1     -27.918  -1.954  29.763  0.00  0.00    +0.000 A 
ATOM      7  C   UNL A   1     -27.106   1.102  27.759  0.00  0.00    +0.048 A 
ATOM      8  C   UNL A   1     -25.726   1.895  27.592  0.00  0.00    +0.010 A 
ATOM      9  C   UNL A   1     -24.678   1.746  28.209  0.00  0.00    -0.021 A 
ATOM     10  C   UNL A   1     -24.572   0.376  28.983  0.00  0.00    -0.025 A 
ATOM     11  C   UNL A   1     -23.251   0.089  29.573  0.00  0.00    +0.031 C 
ATOM     12  C   UNL A   1     -22.116   0.189  28.699  0.00  0.00    +0.030 C 
ATOM     13  C   UNL A   1     -21.788   1.332  27.937  0.00  0.00    -0.030 C 
ATOM     14  C   UNL A   1     -22.587   2.129  27.112  0.00  0.00    -0.026 C 
ATOM     15  C   UNL A   1     -23.929   2.308  27.415  0.00  0.00    +0.052 C 
ENDROOT
BRANCH   7  16
ATOM     16  N   UNL A   1     -27.851   1.504  27.173  0.00  0.00    -0.307 N 
ATOM     17  C   UNL A   1     -29.053   0.996  27.191  0.00  0.00    +0.091 C 
ATOM     18  C   UNL A   1     -29.835   1.174  25.962  0.00  0.00    +0.021 C 
ATOM     19  C   UNL A   1     -27.860   2.644  26.270  0.00  0.00    +0.091 C 
ATOM     20  C   UNL A   1     -28.674   2.720  25.136  0.00  0.00    +0.021 C 
ATOM     21  C   UNL A   1     -29.830   2.168  25.169  0.00  0.00    +0.004 C 
ENDBRANCH   7  16
TORSDOF 1
