REMARK  Name = No_816-gen_results/8p0m/2024-11-26-14-13-15/
REMARK  1 active torsions:
REMARK  status: ('A' for Active; 'I' for Inactive)
REMARK    1  A    between atoms: C_3  and  C_4
REMARK                            x       y       z     vdW  Elec       q    Type
REMARK                         _______ _______ _______ _____ _____    ______ ____
ROOT
ATOM      1  C   UNL A   1     -28.016  -0.814  28.878  0.00  0.00    -0.000 A 
ATOM      2  C   UNL A   1     -28.469  -0.785  29.829  0.00  0.00    -0.000 A 
ATOM      3  C   UNL A   1     -28.182   0.428  28.113  0.00  0.00    -0.000 A 
ATOM      4  C   UNL A   1     -29.535   0.051  30.347  0.00  0.00    -0.000 A 
ATOM      5  C   UNL A   1     -29.786   1.146  29.629  0.00  0.00    -0.000 A 
ATOM      6  C   UNL A   1     -29.100   1.380  28.477  0.00  0.00    -0.000 A 
ENDROOT
BRANCH   3   7
ATOM      7  C   UNL A   1     -27.450   0.643  26.850  0.00  0.00    -0.005 C 
ATOM      8  C   UNL A   1     -26.181   0.036  26.715  0.00  0.00    -0.026 C 
ATOM      9  C   UNL A   1     -25.364   0.309  25.611  0.00  0.00    +0.031 C 
ENDBRANCH   3   7
TORSDOF 1
