MODEL 816
MODEL 1
REMARK VINA RESULT:    -5.241      0.000      0.000
REMARK INTER + INTRA:          -5.731
REMARK INTER:                  -5.547
REMARK INTRA:                  -0.183
REMARK UNBOUND:                -0.183
REMARK  Name = No_816-gen_results/8p0m/2024-11-26-14-13-15/
REMARK  1 active torsions:
REMARK  status: ('A' for Active; 'I' for Inactive)
REMARK    1  A    between atoms: C_3  and  C_4
REMARK                            x       y       z     vdW  Elec       q    Type
REMARK                         _______ _______ _______ _____ _____    ______ ____
ROOT
ATOM      1  C   UNL A   1     -24.027  -4.306  28.665  0.00  0.00    -0.000 A 
ATOM      2  C   UNL A   1     -24.727  -5.024  28.990  0.00  0.00    -0.000 A 
ATOM      3  C   UNL A   1     -24.279  -2.962  29.197  0.00  0.00    -0.000 A 
ATOM      4  C   UNL A   1     -26.074  -4.871  29.504  0.00  0.00    -0.000 A 
ATOM      5  C   UNL A   1     -26.381  -3.639  29.912  0.00  0.00    -0.000 A 
ATOM      6  C   UNL A   1     -25.476  -2.631  29.780  0.00  0.00    -0.000 A 
ENDROOT
BRANCH   3   7
ATOM      7  C   UNL A   1     -23.295  -1.878  29.013  0.00  0.00    -0.005 C 
ATOM      8  C   UNL A   1     -23.766  -0.640  28.519  0.00  0.00    -0.026 C 
ATOM      9  C   UNL A   1     -22.877   0.388  28.181  0.00  0.00    +0.031 C 
ENDBRANCH   3   7
TORSDOF 1
ENDMDL
ENDMDL
