MODEL 817
MODEL 1
REMARK VINA RESULT:    -6.064      0.000      0.000
REMARK INTER + INTRA:          -6.952
REMARK INTER:                  -6.773
REMARK INTRA:                  -0.180
REMARK UNBOUND:                -0.180
REMARK  Name = No_817-gen_results/8p0m/2024-11-26-14-13-15/
REMARK  2 active torsions:
REMARK  status: ('A' for Active; 'I' for Inactive)
REMARK    1  A    between atoms: C_2  and  C_7
REMARK    2  A    between atoms: N_9  and  C_11
REMARK                            x       y       z     vdW  Elec       q    Type
REMARK                         _______ _______ _______ _____ _____    ______ ____
ROOT
ATOM      1  C   UNL A   1     -24.375   0.232  29.536  0.00  0.00    +0.253 C 
ATOM      2  O   UNL A   1     -24.216   1.254  29.204  0.00  0.00    -0.270 OA
ATOM      3  N   UNL A   1     -24.798  -0.783  28.672  0.00  0.00    -0.253 N 
ATOM      4  C   UNL A   1     -25.053  -0.452  27.313  0.00  0.00    +0.120 C 
ENDROOT
BRANCH   1   6
ATOM      5  C   UNL A   1     -25.157  -0.098  31.653  0.00  0.00    +0.004 A 
ATOM      6  C   UNL A   1     -24.318  -0.304  31.049  0.00  0.00    +0.054 A 
ATOM      7  C   UNL A   1     -25.072  -0.601  33.077  0.00  0.00    +0.000 A 
ATOM      8  C   UNL A   1     -23.865  -1.165  33.540  0.00  0.00    +0.000 A 
ATOM      9  C   UNL A   1     -22.955  -0.830  31.286  0.00  0.00    +0.004 A 
ATOM     10  C   UNL A   1     -22.837  -1.297  32.588  0.00  0.00    +0.000 A 
ENDBRANCH   1   6
BRANCH   3  11
ATOM     11  C   UNL A   1     -24.993  -2.174  29.053  0.00  0.00    +0.054 A 
ATOM     12  C   UNL A   1     -24.063  -2.962  28.721  0.00  0.00    +0.015 A 
ATOM     13  C   UNL A   1     -24.282  -4.356  28.946  0.00  0.00    +0.001 A 
ATOM     14  C   UNL A   1     -25.475  -4.850  29.494  0.00  0.00    +0.000 A 
ATOM     15  C   UNL A   1     -26.478  -3.869  29.794  0.00  0.00    +0.001 A 
ATOM     16  C   UNL A   1     -26.278  -2.578  29.520  0.00  0.00    +0.015 A 
ENDBRANCH   3  11
TORSDOF 2
ENDMDL
ENDMDL
