MODEL 818
MODEL 1
REMARK VINA RESULT:    -6.543      0.000      0.000
REMARK INTER + INTRA:          -7.278
REMARK INTER:                  -6.926
REMARK INTRA:                  -0.352
REMARK UNBOUND:                -0.352
REMARK  Name = No_818-gen_results/8p0m/2024-11-26-14-13-15/
REMARK  1 active torsions:
REMARK  status: ('A' for Active; 'I' for Inactive)
REMARK    1  A    between atoms: C_2  and  C_7
REMARK                            x       y       z     vdW  Elec       q    Type
REMARK                         _______ _______ _______ _____ _____    ______ ____
ROOT
ATOM      1  C   UNL A   1     -24.045  -3.853  28.823  0.00  0.00    +0.000 A 
ATOM      2  C   UNL A   1     -24.420  -2.732  29.080  0.00  0.00    +0.000 A 
ATOM      3  C   UNL A   1     -25.668  -2.506  29.651  0.00  0.00    +0.000 A 
ATOM      4  C   UNL A   1     -26.571  -3.597  29.913  0.00  0.00    +0.000 A 
ATOM      5  C   UNL A   1     -26.067  -4.856  29.563  0.00  0.00    +0.000 A 
ATOM      6  C   UNL A   1     -24.886  -5.014  29.009  0.00  0.00    +0.000 A 
ENDROOT
BRANCH   2   7
ATOM      7  C   UNL A   1     -23.633  -1.490  28.853  0.00  0.00    +0.000 A 
ATOM      8  C   UNL A   1     -22.495  -1.209  29.195  0.00  0.00    +0.000 A 
ATOM      9  C   UNL A   1     -21.764   0.006  28.811  0.00  0.00    +0.000 A 
ATOM     10  C   UNL A   1     -22.457   0.933  28.005  0.00  0.00    +0.000 A 
ATOM     11  C   UNL A   1     -24.279  -0.486  27.974  0.00  0.00    +0.000 A 
ATOM     12  C   UNL A   1     -23.694   0.636  27.611  0.00  0.00    +0.000 A 
ENDBRANCH   2   7
TORSDOF 1
ENDMDL
ENDMDL
