MODEL 819
MODEL 1
REMARK VINA RESULT:    -6.032      0.000      0.000
REMARK INTER + INTRA:          -7.479
REMARK INTER:                  -7.089
REMARK INTRA:                  -0.390
REMARK UNBOUND:                -0.390
REMARK  Name = No_819-gen_results/8p0m/2024-11-26-14-13-15/
REMARK  3 active torsions:
REMARK  status: ('A' for Active; 'I' for Inactive)
REMARK    1  A    between atoms: C_4  and  C_11
REMARK    2  A    between atoms: C_11  and  C_12
REMARK    3  A    between atoms: C_13  and  C_14
REMARK                            x       y       z     vdW  Elec       q    Type
REMARK                         _______ _______ _______ _____ _____    ______ ____
ROOT
ATOM      1  C   UNL A   1     -25.206   1.799  26.157  0.00  0.00    -0.000 A 
ATOM      2  C   UNL A   1     -25.035   0.927  26.977  0.00  0.00    -0.000 A 
ATOM      3  C   UNL A   1     -23.797   0.634  27.546  0.00  0.00    -0.004 A 
ATOM      4  C   UNL A   1     -23.497  -0.415  28.540  0.00  0.00    -0.018 A 
ATOM      5  C   UNL A   1     -22.195  -0.717  29.076  0.00  0.00    -0.004 A 
ATOM      6  C   UNL A   1     -21.199   0.209  28.752  0.00  0.00    -0.000 A 
ATOM      7  C   UNL A   1     -23.983   2.486  25.616  0.00  0.00    -0.000 A 
ATOM      8  C   UNL A   1     -22.738   2.325  26.178  0.00  0.00    -0.000 A 
ATOM      9  C   UNL A   1     -22.559   1.356  27.149  0.00  0.00    -0.000 A 
ATOM     10  C   UNL A   1     -21.320   1.157  27.758  0.00  0.00    -0.000 A 
ENDROOT
BRANCH   4  11
ATOM     11  C   UNL A   1     -24.593  -1.305  29.044  0.00  0.00    +0.052 C 
BRANCH  11  12
ATOM     12  C   UNL A   1     -24.297  -2.526  29.306  0.00  0.00    -0.020 C 
ATOM     13  C   UNL A   1     -24.401  -3.617  28.470  0.00  0.00    +0.018 C 
BRANCH  13  14
ATOM     14  C   UNL A   1     -24.145  -4.946  28.844  0.00  0.00    +0.122 C 
ATOM     15  N   UNL A   1     -25.188  -5.620  29.374  0.00  0.00    -0.146 NA
ENDBRANCH  13  14
ENDBRANCH  11  12
ENDBRANCH   4  11
TORSDOF 3
ENDMDL
ENDMDL
