MODEL 81
MODEL 1
REMARK VINA RESULT:    -5.108      0.000      0.000
REMARK INTER + INTRA:          -5.562
REMARK INTER:                  -5.407
REMARK INTRA:                  -0.155
REMARK UNBOUND:                -0.155
REMARK  Name = No_81-gen_results/8p0m/2024-11-26-14-13-15/
REMARK  1 active torsions:
REMARK  status: ('A' for Active; 'I' for Inactive)
REMARK    1  A    between atoms: C_5  and  C_8
REMARK                            x       y       z     vdW  Elec       q    Type
REMARK                         _______ _______ _______ _____ _____    ______ ____
ROOT
ATOM      1  F   UNL A   1     -21.587   2.139  27.346  0.00  0.00    -0.204 F 
ATOM      2  C   UNL A   1     -22.108   1.100  27.767  0.00  0.00    +0.140 A 
ATOM      3  C   UNL A   1     -21.536   0.360  28.520  0.00  0.00    +0.030 A 
ATOM      4  C   UNL A   1     -22.032  -0.858  29.150  0.00  0.00    +0.006 A 
ATOM      5  C   UNL A   1     -23.416  -1.163  28.785  0.00  0.00    +0.072 A 
ATOM      6  C   UNL A   1     -24.067  -0.260  27.955  0.00  0.00    +0.006 A 
ATOM      7  C   UNL A   1     -23.482   0.841  27.449  0.00  0.00    +0.030 A 
ENDROOT
BRANCH   5   8
ATOM      8  C   UNL A   1     -24.023  -2.352  29.320  0.00  0.00    +0.419 C 
ATOM      9  F   UNL A   1     -23.885  -2.459  30.454  0.00  0.00    -0.166 F 
ATOM     10  F   UNL A   1     -25.371  -2.391  29.008  0.00  0.00    -0.166 F 
ATOM     11  F   UNL A   1     -23.551  -3.508  28.687  0.00  0.00    -0.166 F 
ENDBRANCH   5   8
TORSDOF 1
ENDMDL
ENDMDL
