REMARK  Name = No_82-gen_results/8p0m/2024-11-26-14-13-15/
REMARK  5 active torsions:
REMARK  status: ('A' for Active; 'I' for Inactive)
REMARK    1  A    between atoms: C_3  and  C_7
REMARK    2  A    between atoms: C_7  and  C_8
REMARK    3  A    between atoms: C_7  and  C_13
REMARK    4  A    between atoms: C_8  and  C_9
REMARK    5  A    between atoms: C_10  and  C_11
REMARK                            x       y       z     vdW  Elec       q    Type
REMARK                         _______ _______ _______ _____ _____    ______ ____
ROOT
ATOM      1  C   UNL A   1     -27.460   0.380  26.709  0.00  0.00    +0.049 C 
ENDROOT
BRANCH   1   4
ATOM      2  C   UNL A   1     -28.016  -0.814  28.878  0.00  0.00    -0.004 A 
ATOM      3  C   UNL A   1     -28.469  -0.785  29.829  0.00  0.00    -0.000 A 
ATOM      4  C   UNL A   1     -28.196   0.348  28.055  0.00  0.00    -0.018 A 
ATOM      5  C   UNL A   1     -29.019   1.350  28.378  0.00  0.00    -0.004 A 
ATOM      6  C   UNL A   1     -29.411   0.180  30.378  0.00  0.00    -0.000 A 
ATOM      7  C   UNL A   1     -29.606   1.250  29.619  0.00  0.00    -0.000 A 
ENDBRANCH   1   4
BRANCH   1   8
ATOM      8  C   UNL A   1     -28.097   0.476  25.495  0.00  0.00    -0.022 C 
ATOM      9  C   UNL A   1     -27.770   0.018  24.404  0.00  0.00    -0.005 C 
ENDBRANCH   1   8
BRANCH   1  10
ATOM     10  C   UNL A   1     -26.009   0.332  26.724  0.00  0.00    +0.034 C 
BRANCH  10  11
ATOM     11  C   UNL A   1     -25.257   1.316  27.339  0.00  0.00    -0.029 C 
ATOM     12  C   UNL A   1     -23.876   1.120  27.550  0.00  0.00    -0.010 C 
BRANCH  12  13
ATOM     13  C   UNL A   1     -23.002   2.226  27.578  0.00  0.00    +0.135 C 
ATOM     14  N   UNL A   1     -21.693   1.883  27.830  0.00  0.00    -0.126 NA
ENDBRANCH  12  13
ENDBRANCH  10  11
ENDBRANCH   1  10
TORSDOF 5
