REMARK  Name = No_820-gen_results/8p0m/2024-11-26-14-13-15/
REMARK  2 active torsions:
REMARK  status: ('A' for Active; 'I' for Inactive)
REMARK    1  A    between atoms: C_3  and  C_9
REMARK    2  A    between atoms: C_9  and  C_10
REMARK                            x       y       z     vdW  Elec       q    Type
REMARK                         _______ _______ _______ _____ _____    ______ ____
ROOT
ATOM      1  C   UNL A   1     -28.016  -0.814  28.878  0.00  0.00    +0.013 A 
ATOM      2  C   UNL A   1     -27.064  -0.119  28.608  0.00  0.00    +0.054 A 
ATOM      3  C   UNL A   1     -26.929   1.171  29.008  0.00  0.00    -0.002 A 
ATOM      4  C   UNL A   1     -27.956   1.741  29.784  0.00  0.00    +0.027 A 
ATOM      5  C   UNL A   1     -29.057  -0.327  29.747  0.00  0.00    +0.030 A 
ATOM      6  C   UNL A   1     -28.983   0.972  30.152  0.00  0.00    +0.140 A 
ATOM      7 CL   UNL A   1     -25.799  -0.912  27.761  0.00  0.00    -0.083 Cl
ATOM      8  F   UNL A   1     -29.973   1.446  30.915  0.00  0.00    -0.204 F 
ENDROOT
BRANCH   3   9
ATOM      9  C   UNL A   1     -25.713   1.996  28.562  0.00  0.00    +0.093 C 
BRANCH   9  10
ATOM     10  C   UNL A   1     -25.723   3.324  28.647  0.00  0.00    +0.144 A 
ATOM     11  N   UNL A   1     -26.073   3.999  29.667  0.00  0.00    -0.229 NA
ATOM     12  C   UNL A   1     -26.076   5.416  29.648  0.00  0.00    +0.102 A 
ATOM     13  N   UNL A   1     -25.356   4.059  27.556  0.00  0.00    -0.229 NA
ATOM     14  C   UNL A   1     -25.271   5.404  27.447  0.00  0.00    +0.102 A 
ATOM     15  C   UNL A   1     -25.623   6.123  28.565  0.00  0.00    +0.041 A 
ENDBRANCH   9  10
ENDBRANCH   3   9
TORSDOF 2
