MODEL 820
MODEL 1
REMARK VINA RESULT:    -5.990      0.000      0.000
REMARK INTER + INTRA:          -6.988
REMARK INTER:                  -6.690
REMARK INTRA:                  -0.298
REMARK UNBOUND:                -0.298
REMARK  Name = No_820-gen_results/8p0m/2024-11-26-14-13-15/
REMARK  2 active torsions:
REMARK  status: ('A' for Active; 'I' for Inactive)
REMARK    1  A    between atoms: C_3  and  C_9
REMARK    2  A    between atoms: C_9  and  C_10
REMARK                            x       y       z     vdW  Elec       q    Type
REMARK                         _______ _______ _______ _____ _____    ______ ____
ROOT
ATOM      1  C   UNL A   1     -26.288  -3.641  29.971  0.00  0.00    +0.013 A 
ATOM      2  C   UNL A   1     -25.766  -2.552  30.033  0.00  0.00    +0.054 A 
ATOM      3  C   UNL A   1     -24.534  -2.272  29.535  0.00  0.00    -0.002 A 
ATOM      4  C   UNL A   1     -23.815  -3.308  28.909  0.00  0.00    +0.027 A 
ATOM      5  C   UNL A   1     -25.651  -4.721  29.261  0.00  0.00    +0.030 A 
ATOM      6  C   UNL A   1     -24.400  -4.500  28.769  0.00  0.00    +0.140 A 
ATOM      7 CL   UNL A   1     -26.744  -1.310  30.702  0.00  0.00    -0.083 Cl
ATOM      8  F   UNL A   1     -23.782  -5.514  28.156  0.00  0.00    -0.204 F 
ENDROOT
BRANCH   3   9
ATOM      9  C   UNL A   1     -23.926  -0.874  29.717  0.00  0.00    +0.093 C 
BRANCH   9  10
ATOM     10  C   UNL A   1     -23.724  -0.078  28.670  0.00  0.00    +0.144 A 
ATOM     11  N   UNL A   1     -24.483   0.018  27.654  0.00  0.00    -0.229 NA
ATOM     12  C   UNL A   1     -24.164   0.877  26.573  0.00  0.00    +0.102 A 
ATOM     13  N   UNL A   1     -22.601   0.699  28.638  0.00  0.00    -0.229 NA
ATOM     14  C   UNL A   1     -22.230   1.588  27.689  0.00  0.00    +0.102 A 
ATOM     15  C   UNL A   1     -23.073   1.705  26.609  0.00  0.00    +0.041 A 
ENDBRANCH   9  10
ENDBRANCH   3   9
TORSDOF 2
ENDMDL
ENDMDL
