MODEL 821
MODEL 1
REMARK VINA RESULT:    -7.350      0.000      0.000
REMARK INTER + INTRA:          -9.579
REMARK INTER:                  -9.068
REMARK INTRA:                  -0.511
REMARK UNBOUND:                -0.511
REMARK  Name = No_821-gen_results/8p0m/2024-11-26-14-13-15/
REMARK  4 active torsions:
REMARK  status: ('A' for Active; 'I' for Inactive)
REMARK    1  A    between atoms: C_2  and  C_14
REMARK    2  A    between atoms: C_6  and  O_7
REMARK    3  A    between atoms: O_7  and  C_8
REMARK    4  A    between atoms: C_9  and  C_17
REMARK                            x       y       z     vdW  Elec       q    Type
REMARK                         _______ _______ _______ _____ _____    ______ ____
ROOT
ATOM      1  O   UNL A   1     -24.439  -1.137  29.294  0.00  0.00    -0.453 OA
ENDROOT
BRANCH   1   7
ATOM      2  C   UNL A   1     -26.199  -2.794  29.819  0.00  0.00    +0.044 A 
ATOM      3  C   UNL A   1     -26.526  -3.957  29.776  0.00  0.00    +0.083 A 
ATOM      4  C   UNL A   1     -25.628  -4.941  29.379  0.00  0.00    +0.007 A 
ATOM      5  C   UNL A   1     -24.627  -4.750  29.014  0.00  0.00    +0.003 A 
ATOM      6  C   UNL A   1     -24.052  -3.379  28.946  0.00  0.00    +0.037 A 
ATOM      7  C   UNL A   1     -24.877  -2.433  29.331  0.00  0.00    +0.145 A 
BRANCH   3   8
ATOM      8  C   UNL A   1     -27.934  -4.323  30.307  0.00  0.00    +0.388 C 
ATOM      9  O   UNL A   1     -28.120  -5.304  30.763  0.00  0.00    -0.241 OA
ATOM     10  O   UNL A   1     -28.804  -3.356  30.179  0.00  0.00    -0.241 OA
ENDBRANCH   3   8
ENDBRANCH   1   7
BRANCH   1  11
ATOM     11  C   UNL A   1     -24.024  -0.578  28.143  0.00  0.00    +0.152 A 
ATOM     12  C   UNL A   1     -22.826   0.049  28.328  0.00  0.00    +0.114 A 
ATOM     13  C   UNL A   1     -22.662   1.276  27.758  0.00  0.00    +0.010 A 
ATOM     14  C   UNL A   1     -23.531   1.670  26.672  0.00  0.00    +0.000 A 
ATOM     15  C   UNL A   1     -24.683   0.945  26.473  0.00  0.00    +0.003 A 
ATOM     16  C   UNL A   1     -24.965  -0.183  27.257  0.00  0.00    +0.038 A 
BRANCH  12  17
ATOM     17  C   UNL A   1     -21.863  -0.363  29.354  0.00  0.00    +0.391 C 
ATOM     18  O   UNL A   1     -22.005  -0.327  30.532  0.00  0.00    -0.240 OA
ATOM     19  O   UNL A   1     -20.822  -1.086  28.877  0.00  0.00    -0.240 OA
ENDBRANCH  12  17
ENDBRANCH   1  11
TORSDOF 4
ENDMDL
ENDMDL
