MODEL 822
MODEL 1
REMARK VINA RESULT:    -5.793      0.000      0.000
REMARK INTER + INTRA:          -6.738
REMARK INTER:                  -6.470
REMARK INTRA:                  -0.267
REMARK UNBOUND:                -0.267
REMARK  Name = No_822-gen_results/8p0m/2024-11-26-14-13-15/
REMARK  2 active torsions:
REMARK  status: ('A' for Active; 'I' for Inactive)
REMARK    1  A    between atoms: C_2  and  C_11
REMARK    2  A    between atoms: C_3  and  C_7
REMARK                            x       y       z     vdW  Elec       q    Type
REMARK                         _______ _______ _______ _____ _____    ______ ____
ROOT
ATOM      1  C   UNL A   1     -28.268 -11.789  31.650  0.00  0.00    +0.010 A 
ATOM      2  C   UNL A   1     -28.246 -11.300  32.583  0.00  0.00    +0.080 A 
ATOM      3  C   UNL A   1     -29.126 -11.271  30.655  0.00  0.00    +0.072 A 
ATOM      4  C   UNL A   1     -29.927 -10.169  30.882  0.00  0.00    +0.004 A 
ATOM      5  C   UNL A   1     -29.831  -9.584  32.134  0.00  0.00    +0.000 A 
ATOM      6  C   UNL A   1     -28.952 -10.102  33.061  0.00  0.00    +0.007 A 
ENDROOT
BRANCH   3   7
ATOM      7  C   UNL A   1     -29.239 -11.854  29.278  0.00  0.00    +0.419 C 
ATOM      8  F   UNL A   1     -28.332 -11.692  28.569  0.00  0.00    -0.166 F 
ATOM      9  F   UNL A   1     -30.420 -11.331  28.684  0.00  0.00    -0.166 F 
ATOM     10  F   UNL A   1     -29.551 -13.227  29.212  0.00  0.00    -0.166 F 
ENDBRANCH   3   7
BRANCH   2  11
ATOM     11  C   UNL A   1     -27.192 -11.767  33.720  0.00  0.00    +0.388 C 
ATOM     12  O   UNL A   1     -26.720 -12.782  33.768  0.00  0.00    -0.241 OA
ATOM     13  O   UNL A   1     -26.806 -10.807  34.657  0.00  0.00    -0.241 OA
ENDBRANCH   2  11
TORSDOF 2
ENDMDL
ENDMDL
