REMARK  Name = No_823-gen_results/8p0m/2024-11-26-14-13-15/
REMARK  5 active torsions:
REMARK  status: ('A' for Active; 'I' for Inactive)
REMARK    1  A    between atoms: C_1  and  C_11
REMARK    2  A    between atoms: C_4  and  C_5
REMARK    3  A    between atoms: C_8  and  C_10
REMARK    4  A    between atoms: C_14  and  C_15
REMARK    5  A    between atoms: C_16  and  C_17
REMARK                            x       y       z     vdW  Elec       q    Type
REMARK                         _______ _______ _______ _____ _____    ______ ____
ROOT
ATOM      1  C   UNL A   1     -28.144   1.432  25.488  0.00  0.00    -0.022 C 
ATOM      2  C   UNL A   1     -27.284   1.189  24.542  0.00  0.00    -0.004 C 
ATOM      3  C   UNL A   1     -29.194   2.427  25.233  0.00  0.00    +0.031 C 
ENDROOT
BRANCH   1   7
ATOM      4  C   UNL A   1     -28.016  -0.814  28.878  0.00  0.00    +0.080 A 
ATOM      5  C   UNL A   1     -27.064  -0.119  28.608  0.00  0.00    +0.007 A 
ATOM      6  C   UNL A   1     -27.001   0.691  27.491  0.00  0.00    -0.000 A 
ATOM      7  C   UNL A   1     -28.137   0.736  26.635  0.00  0.00    -0.004 A 
ATOM      8  C   UNL A   1     -29.280  -0.552  28.248  0.00  0.00    +0.007 A 
ATOM      9  C   UNL A   1     -29.255   0.095  27.045  0.00  0.00    -0.000 A 
BRANCH   4  10
ATOM     10  C   UNL A   1     -28.044  -1.617  30.209  0.00  0.00    +0.388 C 
ATOM     11  O   UNL A   1     -27.113  -2.437  30.366  0.00  0.00    -0.241 OA
ATOM     12  O   UNL A   1     -28.705  -1.291  31.201  0.00  0.00    -0.241 OA
ENDBRANCH   4  10
ENDBRANCH   1   7
BRANCH   2  13
ATOM     13  C   UNL A   1     -26.256   0.292  24.724  0.00  0.00    +0.009 C 
ATOM     14  C   UNL A   1     -24.875   0.641  25.014  0.00  0.00    +0.050 C 
BRANCH  14  15
ATOM     15  C   UNL A   1     -24.437   1.429  26.096  0.00  0.00    -0.059 C 
ATOM     16  C   UNL A   1     -23.682   2.199  26.359  0.00  0.00    -0.059 C 
BRANCH  16  17
ATOM     17  C   UNL A   1     -23.343   2.720  27.677  0.00  0.00    +0.045 C 
ATOM     18  C   UNL A   1     -24.145   2.257  28.740  0.00  0.00    -0.017 C 
ATOM     19  C   UNL A   1     -24.946   1.367  28.548  0.00  0.00    +0.031 C 
ENDBRANCH  16  17
ENDBRANCH  14  15
ENDBRANCH   2  13
TORSDOF 5
