MODEL 823
MODEL 1
REMARK VINA RESULT:    -6.138      0.000      0.000
REMARK INTER + INTRA:          -9.152
REMARK INTER:                  -7.933
REMARK INTRA:                  -1.219
REMARK UNBOUND:                -1.219
REMARK  Name = No_823-gen_results/8p0m/2024-11-26-14-13-15/
REMARK  5 active torsions:
REMARK  status: ('A' for Active; 'I' for Inactive)
REMARK    1  A    between atoms: C_1  and  C_11
REMARK    2  A    between atoms: C_4  and  C_5
REMARK    3  A    between atoms: C_8  and  C_10
REMARK    4  A    between atoms: C_14  and  C_15
REMARK    5  A    between atoms: C_16  and  C_17
REMARK                            x       y       z     vdW  Elec       q    Type
REMARK                         _______ _______ _______ _____ _____    ______ ____
ROOT
ATOM      1  C   UNL A   1     -23.467   2.582  25.829  0.00  0.00    -0.022 C 
ATOM      2  C   UNL A   1     -24.227   3.626  25.986  0.00  0.00    -0.004 C 
ATOM      3  C   UNL A   1     -22.424   2.632  24.796  0.00  0.00    +0.031 C 
ENDROOT
BRANCH   1   7
ATOM      4  C   UNL A   1     -23.914  -0.562  28.373  0.00  0.00    +0.080 A 
ATOM      5  C   UNL A   1     -24.632  -0.496  27.402  0.00  0.00    +0.007 A 
ATOM      6  C   UNL A   1     -24.563   0.518  26.467  0.00  0.00    -0.000 A 
ATOM      7  C   UNL A   1     -23.564   1.517  26.640  0.00  0.00    -0.004 A 
ATOM      8  C   UNL A   1     -22.704   0.212  28.407  0.00  0.00    +0.007 A 
ATOM      9  C   UNL A   1     -22.658   1.332  27.626  0.00  0.00    -0.000 A 
BRANCH   4  10
ATOM     10  C   UNL A   1     -23.991  -1.792  29.320  0.00  0.00    +0.388 C 
ATOM     11  O   UNL A   1     -23.412  -2.824  28.915  0.00  0.00    -0.241 OA
ATOM     12  O   UNL A   1     -24.296  -1.728  30.516  0.00  0.00    -0.241 OA
ENDBRANCH   4  10
ENDBRANCH   1   7
BRANCH   2  13
ATOM     13  C   UNL A   1     -25.245   3.636  26.914  0.00  0.00    +0.009 C 
ATOM     14  C   UNL A   1     -26.640   3.929  26.630  0.00  0.00    +0.050 C 
BRANCH  14  15
ATOM     15  C   UNL A   1     -27.445   3.257  25.690  0.00  0.00    -0.059 C 
ATOM     16  C   UNL A   1     -27.395   2.468  24.911  0.00  0.00    -0.059 C 
BRANCH  16  17
ATOM     17  C   UNL A   1     -28.408   2.100  23.930  0.00  0.00    +0.045 C 
ATOM     18  C   UNL A   1     -28.495   0.725  23.631  0.00  0.00    -0.017 C 
ATOM     19  C   UNL A   1     -27.862  -0.076  24.285  0.00  0.00    +0.031 C 
ENDBRANCH  16  17
ENDBRANCH  14  15
ENDBRANCH   2  13
TORSDOF 5
ENDMDL
ENDMDL
