MODEL 824
MODEL 1
REMARK VINA RESULT:    -7.150      0.000      0.000
REMARK INTER + INTRA:          -9.139
REMARK INTER:                  -8.403
REMARK INTRA:                  -0.736
REMARK UNBOUND:                -0.736
REMARK  Name = No_824-gen_results/8p0m/2024-11-26-14-13-15/
REMARK  3 active torsions:
REMARK  status: ('A' for Active; 'I' for Inactive)
REMARK    1  A    between atoms: C_2  and  C_11
REMARK    2  A    between atoms: C_3  and  C_7
REMARK    3  A    between atoms: C_5  and  C_14
REMARK                            x       y       z     vdW  Elec       q    Type
REMARK                         _______ _______ _______ _____ _____    ______ ____
ROOT
ATOM      1  C   UNL A   1      -9.620   1.065  34.560  0.00  0.00    +0.010 A 
ATOM      2  C   UNL A   1     -10.563   1.244  34.996  0.00  0.00    +0.080 A 
ATOM      3  C   UNL A   1      -8.737   0.193  35.234  0.00  0.00    +0.072 A 
ATOM      4  C   UNL A   1      -9.074  -0.405  36.432  0.00  0.00    +0.004 A 
ATOM      5  C   UNL A   1     -10.335  -0.121  36.931  0.00  0.00    +0.000 A 
ATOM      6  C   UNL A   1     -11.177   0.708  36.220  0.00  0.00    +0.007 A 
ENDROOT
BRANCH   5   7
ATOM      7  C   UNL A   1     -10.749  -0.753  38.208  0.00  0.00    -0.000 A 
ATOM      8  C   UNL A   1     -10.493  -0.585  39.313  0.00  0.00    -0.000 A 
ATOM      9  C   UNL A   1     -10.848  -1.349  40.502  0.00  0.00    -0.000 A 
ATOM     10  C   UNL A   1     -11.765  -2.384  40.306  0.00  0.00    +0.000 A 
ATOM     11  C   UNL A   1     -11.699  -1.973  37.942  0.00  0.00    -0.000 A 
ATOM     12  C   UNL A   1     -12.197  -2.675  39.023  0.00  0.00    -0.000 A 
ENDBRANCH   5   7
BRANCH   3  13
ATOM     13  C   UNL A   1      -7.377  -0.167  34.715  0.00  0.00    +0.419 C 
ATOM     14  F   UNL A   1      -7.442  -1.078  33.930  0.00  0.00    -0.166 F 
ATOM     15  F   UNL A   1      -6.496  -0.554  35.699  0.00  0.00    -0.166 F 
ATOM     16  F   UNL A   1      -6.748   0.940  34.172  0.00  0.00    -0.166 F 
ENDBRANCH   3  13
BRANCH   2  17
ATOM     17  C   UNL A   1     -11.671   2.126  34.206  0.00  0.00    +0.388 C 
ATOM     18  O   UNL A   1     -11.900   3.185  34.399  0.00  0.00    -0.241 OA
ATOM     19  O   UNL A   1     -12.337   1.478  33.155  0.00  0.00    -0.241 OA
ENDBRANCH   2  17
TORSDOF 3
ENDMDL
ENDMDL
