REMARK  Name = No_825-gen_results/8p0m/2024-11-26-14-13-15/
REMARK  4 active torsions:
REMARK  status: ('A' for Active; 'I' for Inactive)
REMARK    1  A    between atoms: C_1  and  C_2
REMARK    2  A    between atoms: C_1  and  N_11
REMARK    3  A    between atoms: C_3  and  C_17
REMARK    4  A    between atoms: C_5  and  C_6
REMARK                            x       y       z     vdW  Elec       q    Type
REMARK                         _______ _______ _______ _____ _____    ______ ____
ROOT
ATOM      1  C   UNL A   1     -27.064  -0.119  28.608  0.00  0.00    -0.001 A 
ATOM      2  C   UNL A   1     -27.001   0.691  27.491  0.00  0.00    +0.065 A 
ATOM      3  C   UNL A   1     -25.855   1.482  27.083  0.00  0.00    +0.012 A 
ATOM      4  C   UNL A   1     -24.690   1.453  27.881  0.00  0.00    +0.080 A 
ATOM      5  C   UNL A   1     -25.916  -0.142  29.558  0.00  0.00    -0.003 A 
ATOM      6  C   UNL A   1     -24.689   0.641  29.130  0.00  0.00    +0.006 A 
ENDROOT
BRANCH   4   7
ATOM      7  C   UNL A   1     -23.488   2.145  27.601  0.00  0.00    +0.388 C 
ATOM      8  O   UNL A   1     -22.645   2.275  28.485  0.00  0.00    -0.241 OA
ATOM      9  O   UNL A   1     -23.314   2.518  26.349  0.00  0.00    -0.241 OA
ENDBRANCH   4   7
BRANCH   2  10
ATOM     10  C   UNL A   1     -28.105   0.772  26.581  0.00  0.00    +0.333 C 
ATOM     11  O   UNL A   1     -28.087   0.678  25.442  0.00  0.00    -0.254 OA
ATOM     12  F   UNL A   1     -29.317   0.776  27.146  0.00  0.00    -0.159 F 
ENDBRANCH   2  10
BRANCH   1  13
ATOM     13  C   UNL A   1     -28.016  -0.814  28.878  0.00  0.00    +0.099 C 
BRANCH  13  14
ATOM     14  N   UNL A   1     -28.677  -0.542  30.083  0.00  0.00    -0.269 NA
ATOM     15  C   UNL A   1     -29.657  -1.318  30.638  0.00  0.00    +0.072 C 
ATOM     16  C   UNL A   1     -30.196  -0.978  31.898  0.00  0.00    +0.017 C 
ATOM     17  C   UNL A   1     -28.424   0.565  30.964  0.00  0.00    +0.072 C 
ATOM     18  C   UNL A   1     -28.946   0.861  32.095  0.00  0.00    +0.017 C 
ATOM     19  C   UNL A   1     -29.868   0.089  32.621  0.00  0.00    +0.003 C 
ENDBRANCH  13  14
ENDBRANCH   1  13
TORSDOF 4
