MODEL 825
MODEL 1
REMARK VINA RESULT:    -6.937      0.000      0.000
REMARK INTER + INTRA:          -9.061
REMARK INTER:                  -8.559
REMARK INTRA:                  -0.503
REMARK UNBOUND:                -0.503
REMARK  Name = No_825-gen_results/8p0m/2024-11-26-14-13-15/
REMARK  4 active torsions:
REMARK  status: ('A' for Active; 'I' for Inactive)
REMARK    1  A    between atoms: C_1  and  C_2
REMARK    2  A    between atoms: C_1  and  N_11
REMARK    3  A    between atoms: C_3  and  C_17
REMARK    4  A    between atoms: C_5  and  C_6
REMARK                            x       y       z     vdW  Elec       q    Type
REMARK                         _______ _______ _______ _____ _____    ______ ____
ROOT
ATOM      1  C   UNL A   1     -24.813  -0.319  28.650  0.00  0.00    -0.001 A 
ATOM      2  C   UNL A   1     -23.628   0.373  28.800  0.00  0.00    +0.065 A 
ATOM      3  C   UNL A   1     -23.079   1.326  27.853  0.00  0.00    +0.012 A 
ATOM      4  C   UNL A   1     -23.787   1.582  26.658  0.00  0.00    +0.080 A 
ATOM      5  C   UNL A   1     -25.582  -0.183  27.381  0.00  0.00    -0.003 A 
ATOM      6  C   UNL A   1     -25.053   0.841  26.395  0.00  0.00    +0.006 A 
ENDROOT
BRANCH   4   7
ATOM      7  C   UNL A   1     -23.396   2.500  25.655  0.00  0.00    +0.388 C 
ATOM      8  O   UNL A   1     -24.021   3.548  25.518  0.00  0.00    -0.241 OA
ATOM      9  O   UNL A   1     -22.297   2.199  24.993  0.00  0.00    -0.241 OA
ENDBRANCH   4   7
BRANCH   2  10
ATOM     10  C   UNL A   1     -22.840   0.230  29.988  0.00  0.00    +0.333 C 
ATOM     11  O   UNL A   1     -21.897  -0.400  30.136  0.00  0.00    -0.254 OA
ATOM     12  F   UNL A   1     -23.140   1.072  30.983  0.00  0.00    -0.159 F 
ENDBRANCH   2  10
BRANCH   1  13
ATOM     13  C   UNL A   1     -25.269  -1.056  29.494  0.00  0.00    +0.099 C 
BRANCH  13  14
ATOM     14  N   UNL A   1     -25.134  -2.433  29.272  0.00  0.00    -0.269 NA
ATOM     15  C   UNL A   1     -24.054  -3.036  28.687  0.00  0.00    +0.072 C 
ATOM     16  C   UNL A   1     -24.002  -4.443  28.587  0.00  0.00    +0.017 C 
ATOM     17  C   UNL A   1     -26.073  -3.454  29.648  0.00  0.00    +0.072 C 
ATOM     18  C   UNL A   1     -26.008  -4.727  29.524  0.00  0.00    +0.017 C 
ATOM     19  C   UNL A   1     -24.952  -5.286  28.981  0.00  0.00    +0.003 C 
ENDBRANCH  13  14
ENDBRANCH   1  13
TORSDOF 4
ENDMDL
ENDMDL
