MODEL 826
MODEL 1
REMARK VINA RESULT:    -4.197      0.000      0.000
REMARK INTER + INTRA:          -4.197
REMARK INTER:                  -4.197
REMARK INTRA:                   0.000
REMARK UNBOUND:                 0.000
REMARK  Name = No_826-gen_results/8p0m/2024-11-26-14-13-15/
REMARK  0 active torsions:
REMARK  status: ('A' for Active; 'I' for Inactive)
REMARK                            x       y       z     vdW  Elec       q    Type
REMARK                         _______ _______ _______ _____ _____    ______ ____
ROOT
ATOM      1  C   UNL A   1      -8.114  -9.761  20.159  0.00  0.00    +0.000 A 
ATOM      2  C   UNL A   1      -8.000 -10.302  19.262  0.00  0.00    +0.000 A 
ATOM      3  C   UNL A   1      -9.419  -9.112  20.288  0.00  0.00    +0.000 A 
ATOM      4  C   UNL A   1     -10.392  -9.230  19.327  0.00  0.00    +0.000 A 
ATOM      5  C   UNL A   1      -8.834 -10.599  18.098  0.00  0.00    +0.000 A 
ATOM      6  C   UNL A   1     -10.099  -9.975  18.213  0.00  0.00    +0.000 A 
ENDROOT
TORSDOF 0
ENDMDL
ENDMDL
