REMARK  Name = No_827-gen_results/8p0m/2024-11-26-14-13-15/
REMARK  3 active torsions:
REMARK  status: ('A' for Active; 'I' for Inactive)
REMARK    1  A    between atoms: C_1  and  C_2
REMARK    2  A    between atoms: C_5  and  C_10
REMARK    3  A    between atoms: N_8  and  C_9
REMARK                            x       y       z     vdW  Elec       q    Type
REMARK                         _______ _______ _______ _____ _____    ______ ____
ROOT
ATOM      1  C   UNL A   1     -27.064  -0.119  28.608  0.00  0.00    +0.055 A 
ATOM      2  C   UNL A   1     -27.001   0.691  27.491  0.00  0.00    +0.005 A 
ATOM      3  C   UNL A   1     -25.855   1.482  27.083  0.00  0.00    +0.005 A 
ATOM      4  C   UNL A   1     -24.690   1.453  27.881  0.00  0.00    +0.057 A 
ATOM      5  C   UNL A   1     -24.738   0.601  29.042  0.00  0.00    +0.005 A 
ATOM      6  C   UNL A   1     -25.823  -0.169  29.389  0.00  0.00    +0.005 A 
ENDROOT
BRANCH   1   7
ATOM      7  C   UNL A   1     -28.016  -0.814  28.878  0.00  0.00    +0.269 C 
ATOM      8  N   UNL A   1     -29.207  -0.151  29.066  0.00  0.00    -0.174 NA
ATOM      9  O   UNL A   1     -27.839  -1.883  29.627  0.00  0.00    -0.268 OA
BRANCH   8  10
ATOM     10  C   UNL A   1     -30.232  -0.761  29.696  0.00  0.00    +0.084 C 
ATOM     11  C   UNL A   1     -29.973  -1.910  30.364  0.00  0.00    -0.008 C 
ATOM     12  C   UNL A   1     -31.026  -2.652  30.937  0.00  0.00    +0.032 C 
ENDBRANCH   8  10
ENDBRANCH   1   7
BRANCH   4  13
ATOM     13  C   UNL A   1     -23.522   2.214  27.550  0.00  0.00    +0.284 C 
ATOM     14  N   UNL A   1     -23.450   2.770  26.330  0.00  0.00    -0.084 NA
ATOM     15  O   UNL A   1     -22.327   1.872  28.007  0.00  0.00    -0.267 OA
ENDBRANCH   4  13
TORSDOF 3
