REMARK  Name = No_828-gen_results/8p0m/2024-11-26-14-13-15/
REMARK  4 active torsions:
REMARK  status: ('A' for Active; 'I' for Inactive)
REMARK    1  A    between atoms: C_1  and  C_2
REMARK    2  A    between atoms: C_1  and  N_8
REMARK    3  A    between atoms: C_3  and  C_16
REMARK    4  A    between atoms: C_5  and  C_10
REMARK                            x       y       z     vdW  Elec       q    Type
REMARK                         _______ _______ _______ _____ _____    ______ ____
ROOT
ATOM      1  C   UNL A   1     -27.064  -0.119  28.608  0.00  0.00    +0.090 C 
ATOM      2  C   UNL A   1     -25.792  -0.430  29.076  0.00  0.00    +0.112 C 
ATOM      3  C   UNL A   1     -24.546   0.349  28.823  0.00  0.00    +0.021 C 
ATOM      4  C   UNL A   1     -24.659   1.420  27.888  0.00  0.00    +0.103 C 
ATOM      5  C   UNL A   1     -25.947   1.681  27.379  0.00  0.00    +0.073 C 
ATOM      6  C   UNL A   1     -27.044   0.974  27.687  0.00  0.00    +0.153 C 
ATOM      7  O   UNL A   1     -28.199   1.395  27.172  0.00  0.00    -0.296 OA
ENDROOT
BRANCH   4   8
ATOM      8  C   UNL A   1     -23.446   2.155  27.609  0.00  0.00    +0.398 C 
ATOM      9  F   UNL A   1     -22.465   1.969  28.188  0.00  0.00    -0.170 F 
ATOM     10  F   UNL A   1     -23.706   3.490  27.557  0.00  0.00    -0.170 F 
ATOM     11  F   UNL A   1     -23.152   1.845  26.197  0.00  0.00    -0.170 F 
ENDBRANCH   4   8
BRANCH   2  12
ATOM     12  C   UNL A   1     -25.501  -1.534  30.001  0.00  0.00    +0.365 C 
ATOM     13  O   UNL A   1     -24.649  -2.300  29.667  0.00  0.00    -0.246 OA
ATOM     14  O   UNL A   1     -26.379  -1.769  30.920  0.00  0.00    -0.246 OA
ENDBRANCH   2  12
BRANCH   1  15
ATOM     15  C   UNL A   1     -28.016  -0.814  28.878  0.00  0.00    +0.124 C 
BRANCH  15  16
ATOM     16  N   UNL A   1     -29.180  -0.120  29.129  0.00  0.00    -0.191 NA
ATOM     17  C   UNL A   1     -30.209  -0.765  29.743  0.00  0.00    +0.326 C 
ATOM     18 CL   UNL A   1     -31.716  -0.594  29.269  0.00  0.00    -0.021 Cl
ATOM     19  O   UNL A   1     -29.943  -1.862  30.420  0.00  0.00    -0.255 OA
ENDBRANCH  15  16
ENDBRANCH   1  15
TORSDOF 4
