MODEL 828
MODEL 1
REMARK VINA RESULT:    -6.132      0.000      0.000
REMARK INTER + INTRA:          -8.163
REMARK INTER:                  -7.566
REMARK INTRA:                  -0.597
REMARK UNBOUND:                -0.597
REMARK  Name = No_828-gen_results/8p0m/2024-11-26-14-13-15/
REMARK  4 active torsions:
REMARK  status: ('A' for Active; 'I' for Inactive)
REMARK    1  A    between atoms: C_1  and  C_2
REMARK    2  A    between atoms: C_1  and  N_8
REMARK    3  A    between atoms: C_3  and  C_16
REMARK    4  A    between atoms: C_5  and  C_10
REMARK                            x       y       z     vdW  Elec       q    Type
REMARK                         _______ _______ _______ _____ _____    ______ ____
ROOT
ATOM      1  C   UNL A   1     -23.279   0.115  28.844  0.00  0.00    +0.090 C 
ATOM      2  C   UNL A   1     -24.094  -0.929  28.418  0.00  0.00    +0.112 C 
ATOM      3  C   UNL A   1     -24.824  -1.002  27.120  0.00  0.00    +0.021 C 
ATOM      4  C   UNL A   1     -24.797   0.180  26.322  0.00  0.00    +0.103 C 
ATOM      5  C   UNL A   1     -24.014   1.249  26.801  0.00  0.00    +0.073 C 
ATOM      6  C   UNL A   1     -23.334   1.234  27.957  0.00  0.00    +0.153 C 
ATOM      7  O   UNL A   1     -22.586   2.302  28.232  0.00  0.00    -0.296 OA
ENDROOT
BRANCH   4   8
ATOM      8  C   UNL A   1     -25.535   0.129  25.080  0.00  0.00    +0.398 C 
ATOM      9  F   UNL A   1     -26.412   0.844  24.853  0.00  0.00    -0.170 F 
ATOM     10  F   UNL A   1     -25.899  -1.153  24.801  0.00  0.00    -0.170 F 
ATOM     11  F   UNL A   1     -24.518   0.390  24.044  0.00  0.00    -0.170 F 
ENDBRANCH   4   8
BRANCH   2  12
ATOM     12  C   UNL A   1     -24.270  -2.189  29.152  0.00  0.00    +0.365 C 
ATOM     13  O   UNL A   1     -23.542  -3.086  28.855  0.00  0.00    -0.246 OA
ATOM     14  O   UNL A   1     -25.373  -2.328  29.812  0.00  0.00    -0.246 OA
ENDBRANCH   2  12
BRANCH   1  15
ATOM     15  C   UNL A   1     -22.722   0.074  29.916  0.00  0.00    +0.124 C 
BRANCH  15  16
ATOM     16  N   UNL A   1     -23.510   0.441  30.986  0.00  0.00    -0.191 NA
ATOM     17  C   UNL A   1     -23.473  -0.315  32.118  0.00  0.00    +0.326 C 
ATOM     18 CL   UNL A   1     -24.790  -0.700  32.920  0.00  0.00    -0.021 Cl
ATOM     19  O   UNL A   1     -22.436  -1.102  32.309  0.00  0.00    -0.255 OA
ENDBRANCH  15  16
ENDBRANCH   1  15
TORSDOF 4
ENDMDL
ENDMDL
