MODEL 82
MODEL 1
REMARK VINA RESULT:    -5.616      0.000      0.000
REMARK INTER + INTRA:          -8.064
REMARK INTER:                  -7.257
REMARK INTRA:                  -0.807
REMARK UNBOUND:                -0.807
REMARK  Name = No_82-gen_results/8p0m/2024-11-26-14-13-15/
REMARK  5 active torsions:
REMARK  status: ('A' for Active; 'I' for Inactive)
REMARK    1  A    between atoms: C_3  and  C_7
REMARK    2  A    between atoms: C_7  and  C_8
REMARK    3  A    between atoms: C_7  and  C_13
REMARK    4  A    between atoms: C_8  and  C_9
REMARK    5  A    between atoms: C_10  and  C_11
REMARK                            x       y       z     vdW  Elec       q    Type
REMARK                         _______ _______ _______ _____ _____    ______ ____
ROOT
ATOM      1  C   UNL A   1     -25.031  -1.338  29.093  0.00  0.00    +0.049 C 
ENDROOT
BRANCH   1   4
ATOM      2  C   UNL A   1     -26.094  -3.563  29.694  0.00  0.00    -0.004 A 
ATOM      3  C   UNL A   1     -26.098  -4.612  29.597  0.00  0.00    -0.000 A 
ATOM      4  C   UNL A   1     -25.006  -2.872  29.061  0.00  0.00    -0.018 A 
ATOM      5  C   UNL A   1     -23.959  -3.501  28.519  0.00  0.00    -0.004 A 
ATOM      6  C   UNL A   1     -25.068  -5.498  29.073  0.00  0.00    -0.000 A 
ATOM      7  C   UNL A   1     -24.044  -4.875  28.505  0.00  0.00    -0.000 A 
ENDBRANCH   1   4
BRANCH   1   8
ATOM      8  C   UNL A   1     -24.668  -0.594  30.190  0.00  0.00    -0.022 C 
ATOM      9  C   UNL A   1     -23.560  -0.438  30.695  0.00  0.00    -0.005 C 
ENDBRANCH   1   8
BRANCH   1  10
ATOM     10  C   UNL A   1     -25.436  -0.637  27.888  0.00  0.00    +0.034 C 
BRANCH  10  11
ATOM     11  C   UNL A   1     -24.516  -0.009  27.070  0.00  0.00    -0.029 C 
ATOM     12  C   UNL A   1     -24.397   1.397  27.092  0.00  0.00    -0.010 C 
BRANCH  12  13
ATOM     13  C   UNL A   1     -23.160   2.006  26.798  0.00  0.00    +0.135 C 
ATOM     14  N   UNL A   1     -22.334   2.126  27.893  0.00  0.00    -0.126 NA
ENDBRANCH  12  13
ENDBRANCH  10  11
ENDBRANCH   1  10
TORSDOF 5
ENDMDL
ENDMDL
