MODEL 830
MODEL 1
REMARK VINA RESULT:    -3.539      0.000      0.000
REMARK INTER + INTRA:          -3.816
REMARK INTER:                  -3.746
REMARK INTRA:                  -0.070
REMARK UNBOUND:                -0.070
REMARK  Name = No_830-gen_results/8p0m/2024-11-26-14-13-15/
REMARK  1 active torsions:
REMARK  status: ('A' for Active; 'I' for Inactive)
REMARK    1  A    between atoms: C_3  and  C_4
REMARK                            x       y       z     vdW  Elec       q    Type
REMARK                         _______ _______ _______ _____ _____    ______ ____
ROOT
ATOM      1  F   UNL A   1     -10.059  -9.019  20.778  0.00  0.00    -0.202 F 
ATOM      2  C   UNL A   1      -9.974  -9.378  19.694  0.00  0.00    +0.167 C 
ATOM      3  C   UNL A   1      -8.777  -9.486  19.233  0.00  0.00    +0.032 C 
ENDROOT
BRANCH   3   4
ATOM      4  C   UNL A   1      -7.522  -9.193  20.025  0.00  0.00    +0.002 C 
ATOM      5  C   UNL A   1      -6.941  -7.969  19.655  0.00  0.00    +0.000 C 
ENDBRANCH   3   4
TORSDOF 1
ENDMDL
ENDMDL
