MODEL 831
MODEL 1
REMARK VINA RESULT:    -6.577      0.000      0.000
REMARK INTER + INTRA:          -7.033
REMARK INTER:                  -6.962
REMARK INTRA:                  -0.071
REMARK UNBOUND:                -0.071
REMARK  Name = No_831-gen_results/8p0m/2024-11-26-14-13-15/
REMARK  1 active torsions:
REMARK  status: ('A' for Active; 'I' for Inactive)
REMARK    1  A    between atoms: C_5  and  C_11
REMARK                            x       y       z     vdW  Elec       q    Type
REMARK                         _______ _______ _______ _____ _____    ______ ____
ROOT
ATOM      1  C   UNL A   1     -30.650  -9.840  29.655  0.00  0.00    +0.001 A 
ATOM      2  C   UNL A   1     -29.969 -10.258  30.562  0.00  0.00    +0.011 A 
ATOM      3  C   UNL A   1     -29.942  -9.737  31.844  0.00  0.00    +0.058 A 
ATOM      4  C   UNL A   1     -29.081 -10.162  32.922  0.00  0.00    +0.018 A 
ATOM      5  C   UNL A   1     -28.168 -11.216  32.682  0.00  0.00    +0.081 A 
ATOM      6  C   UNL A   1     -28.146 -11.797  31.388  0.00  0.00    +0.007 A 
ATOM      7  C   UNL A   1     -28.977 -11.306  30.429  0.00  0.00    +0.001 A 
ATOM      8  C   UNL A   1     -30.685 -10.573  28.349  0.00  0.00    +0.000 A 
ATOM      9  C   UNL A   1     -29.650 -11.514  28.074  0.00  0.00    +0.000 A 
ATOM     10  C   UNL A   1     -28.874 -11.954  29.097  0.00  0.00    +0.000 A 
ATOM     11 CL   UNL A   1     -30.925  -8.400  32.246  0.00  0.00    -0.082 Cl
ENDROOT
BRANCH   5  12
ATOM     12  C   UNL A   1     -27.287 -11.715  33.762  0.00  0.00    +0.388 C 
ATOM     13  O   UNL A   1     -26.760 -12.789  33.690  0.00  0.00    -0.241 OA
ATOM     14  O   UNL A   1     -26.830 -10.868  34.676  0.00  0.00    -0.241 OA
ENDBRANCH   5  12
TORSDOF 1
ENDMDL
ENDMDL
