REMARK  Name = No_832-gen_results/8p0m/2024-11-26-14-13-15/
REMARK  1 active torsions:
REMARK  status: ('A' for Active; 'I' for Inactive)
REMARK    1  A    between atoms: C_9  and  C_11
REMARK                            x       y       z     vdW  Elec       q    Type
REMARK                         _______ _______ _______ _____ _____    ______ ____
ROOT
ATOM      1  C   UNL A   1     -28.016  -0.814  28.878  0.00  0.00    -0.000 A 
ATOM      2  C   UNL A   1     -28.469  -0.785  29.829  0.00  0.00    -0.000 A 
ATOM      3  C   UNL A   1     -26.504  -0.778  28.877  0.00  0.00    -0.000 A 
ATOM      4  C   UNL A   1     -25.654  -0.660  27.719  0.00  0.00    -0.000 A 
ATOM      5  C   UNL A   1     -27.918  -0.937  31.182  0.00  0.00    -0.000 A 
ATOM      6  C   UNL A   1     -26.542  -0.940  31.261  0.00  0.00    -0.000 A 
ATOM      7  C   UNL A   1     -25.783  -0.893  30.120  0.00  0.00    -0.000 A 
ATOM      8  C   UNL A   1     -24.318  -0.237  27.844  0.00  0.00    +0.004 A 
ATOM      9  C   UNL A   1     -23.663  -0.428  29.085  0.00  0.00    +0.071 A 
ATOM     10  C   UNL A   1     -24.362  -0.646  30.194  0.00  0.00    +0.004 A 
ENDROOT
BRANCH   9  11
ATOM     11  C   UNL A   1     -22.197  -0.159  29.126  0.00  0.00    +0.419 C 
ATOM     12  F   UNL A   1     -21.595  -1.145  29.373  0.00  0.00    -0.166 F 
ATOM     13  F   UNL A   1     -21.790   0.335  27.863  0.00  0.00    -0.166 F 
ATOM     14  F   UNL A   1     -21.923   0.797  30.041  0.00  0.00    -0.166 F 
ENDBRANCH   9  11
TORSDOF 1
