MODEL 832
MODEL 1
REMARK VINA RESULT:    -6.741      0.000      0.000
REMARK INTER + INTRA:          -7.336
REMARK INTER:                  -7.135
REMARK INTRA:                  -0.201
REMARK UNBOUND:                -0.201
REMARK  Name = No_832-gen_results/8p0m/2024-11-26-14-13-15/
REMARK  1 active torsions:
REMARK  status: ('A' for Active; 'I' for Inactive)
REMARK    1  A    between atoms: C_9  and  C_11
REMARK                            x       y       z     vdW  Elec       q    Type
REMARK                         _______ _______ _______ _____ _____    ______ ____
ROOT
ATOM      1  C   UNL A   1     -26.569  -3.957  29.866  0.00  0.00    -0.000 A 
ATOM      2  C   UNL A   1     -26.190  -4.920  29.666  0.00  0.00    -0.000 A 
ATOM      3  C   UNL A   1     -25.598  -2.818  29.645  0.00  0.00    -0.000 A 
ATOM      4  C   UNL A   1     -25.817  -1.434  29.981  0.00  0.00    -0.000 A 
ATOM      5  C   UNL A   1     -24.961  -5.371  29.001  0.00  0.00    -0.000 A 
ATOM      6  C   UNL A   1     -24.035  -4.383  28.742  0.00  0.00    -0.000 A 
ATOM      7  C   UNL A   1     -24.324  -3.073  29.021  0.00  0.00    -0.000 A 
ATOM      8  C   UNL A   1     -24.735  -0.543  30.112  0.00  0.00    +0.004 A 
ATOM      9  C   UNL A   1     -23.531  -0.839  29.428  0.00  0.00    +0.071 A 
ATOM     10  C   UNL A   1     -23.286  -2.069  28.989  0.00  0.00    +0.004 A 
ENDROOT
BRANCH   9  11
ATOM     11  C   UNL A   1     -22.479   0.217  29.420  0.00  0.00    +0.419 C 
ATOM     12  F   UNL A   1     -21.477  -0.183  29.900  0.00  0.00    -0.166 F 
ATOM     13  F   UNL A   1     -22.235   0.605  28.080  0.00  0.00    -0.166 F 
ATOM     14  F   UNL A   1     -22.911   1.312  30.085  0.00  0.00    -0.166 F 
ENDBRANCH   9  11
TORSDOF 1
ENDMDL
ENDMDL
