MODEL 833
MODEL 1
REMARK VINA RESULT:    -4.298      0.000      0.000
REMARK INTER + INTRA:          -4.298
REMARK INTER:                  -4.298
REMARK INTRA:                   0.000
REMARK UNBOUND:                 0.000
REMARK  Name = No_833-gen_results/8p0m/2024-11-26-14-13-15/
REMARK  0 active torsions:
REMARK  status: ('A' for Active; 'I' for Inactive)
REMARK                            x       y       z     vdW  Elec       q    Type
REMARK                         _______ _______ _______ _____ _____    ______ ____
ROOT
ATOM      1  C   UNL A   1     -24.953  -5.367  28.967  0.00  0.00    +0.000 A 
ATOM      2  C   UNL A   1     -24.188  -4.679  28.736  0.00  0.00    +0.000 A 
ATOM      3  C   UNL A   1     -26.121  -4.753  29.597  0.00  0.00    +0.000 A 
ATOM      4  C   UNL A   1     -26.197  -3.403  29.836  0.00  0.00    +0.000 A 
ATOM      5  C   UNL A   1     -23.997  -3.235  28.866  0.00  0.00    +0.000 A 
ATOM      6  C   UNL A   1     -25.123  -2.631  29.475  0.00  0.00    +0.000 A 
ENDROOT
TORSDOF 0
ENDMDL
ENDMDL
