REMARK  Name = No_834-gen_results/8p0m/2024-11-26-14-13-15/
REMARK  10 active torsions:
REMARK  status: ('A' for Active; 'I' for Inactive)
REMARK    1  A    between atoms: C_3  and  C_7
REMARK    2  A    between atoms: C_7  and  C_8
REMARK    3  A    between atoms: C_7  and  C_9
REMARK    4  A    between atoms: C_8  and  C_10
REMARK    5  A    between atoms: C_9  and  C_17
REMARK    6  A    between atoms: C_14  and  C_31
REMARK    7  A    between atoms: C_17  and  C_18
REMARK    8  A    between atoms: C_18  and  C_22
REMARK    9  A    between atoms: C_23  and  C_25
REMARK   10  A    between atoms: C_31  and  C_33
REMARK                            x       y       z     vdW  Elec       q    Type
REMARK                         _______ _______ _______ _____ _____    ______ ____
ROOT
ATOM      1  C   UNL A   1     -26.408   0.307  27.226  0.00  0.00    +0.027 C 
ENDROOT
BRANCH   1   4
ATOM      2  C   UNL A   1     -28.016  -0.814  28.878  0.00  0.00    -0.004 A 
ATOM      3  C   UNL A   1     -28.469  -0.785  29.829  0.00  0.00    -0.000 A 
ATOM      4  C   UNL A   1     -27.136   0.236  28.535  0.00  0.00    -0.022 A 
ATOM      5  C   UNL A   1     -26.875   1.282  29.398  0.00  0.00    -0.004 A 
ATOM      6  C   UNL A   1     -27.507   1.238  30.630  0.00  0.00    -0.000 A 
ATOM      7  C   UNL A   1     -28.329   0.174  30.935  0.00  0.00    -0.000 A 
ENDBRANCH   1   4
BRANCH   1   8
ATOM      8  C   UNL A   1     -26.875   0.839  26.213  0.00  0.00    +0.026 C 
ATOM      9  C   UNL A   1     -26.207   0.749  24.933  0.00  0.00    +0.005 C 
BRANCH   8  10
ATOM     10  C   UNL A   1     -28.178   1.412  26.139  0.00  0.00    -0.022 A 
ATOM     11  C   UNL A   1     -29.102   1.098  25.742  0.00  0.00    -0.004 A 
ATOM     12  C   UNL A   1     -30.219   1.564  25.911  0.00  0.00    -0.001 A 
ATOM     13  C   UNL A   1     -30.360   2.845  26.569  0.00  0.00    -0.004 A 
ATOM     14  C   UNL A   1     -29.259   3.464  27.037  0.00  0.00    -0.023 A 
ATOM     15  C   UNL A   1     -28.059   2.786  26.890  0.00  0.00    -0.009 A 
BRANCH  14  16
ATOM     16  C   UNL A   1     -29.288   4.814  27.685  0.00  0.00    +0.022 C 
ATOM     17  C   UNL A   1     -28.922   5.819  26.927  0.00  0.00    +0.005 C 
BRANCH  16  18
ATOM     18  C   UNL A   1     -29.693   4.903  29.064  0.00  0.00    +0.004 C 
ATOM     19  C   UNL A   1     -29.538   3.981  30.002  0.00  0.00    +0.000 C 
ENDBRANCH  16  18
ENDBRANCH  14  16
ENDBRANCH   8  10
ENDBRANCH   1   8
BRANCH   1  20
ATOM     20  C   UNL A   1     -25.081  -0.288  27.183  0.00  0.00    +0.009 C 
BRANCH  20  21
ATOM     21  C   UNL A   1     -24.163   0.204  28.215  0.00  0.00    +0.022 C 
ATOM     22  C   UNL A   1     -23.908  -0.601  29.352  0.00  0.00    +0.005 C 
BRANCH  21  23
ATOM     23  C   UNL A   1     -23.480   1.356  28.019  0.00  0.00    -0.026 C 
ATOM     24  C   UNL A   1     -22.218   1.326  27.876  0.00  0.00    -0.030 C 
ATOM     25  C   UNL A   1     -21.451   2.556  27.610  0.00  0.00    +0.030 C 
BRANCH  23  26
ATOM     26  C   UNL A   1     -24.163   2.646  27.879  0.00  0.00    +0.004 C 
ATOM     27  C   UNL A   1     -24.565   3.485  27.379  0.00  0.00    +0.052 C 
ATOM     28 BR   UNL A   1     -24.710   3.870  25.641  0.00  0.00    -0.047 Br
BRANCH  27  29
ATOM     29  C   UNL A   1     -25.210   4.668  28.228  0.00  0.00    +0.087 A 
ATOM     30  N   UNL A   1     -25.468   4.460  29.454  0.00  0.00    -0.243 NA
ATOM     31  C   UNL A   1     -26.020   5.446  30.233  0.00  0.00    +0.099 A 
ATOM     32  C   UNL A   1     -25.707   5.902  27.704  0.00  0.00    +0.020 A 
ATOM     33  C   UNL A   1     -26.153   6.925  28.406  0.00  0.00    +0.003 A 
ATOM     34  C   UNL A   1     -26.352   6.680  29.794  0.00  0.00    +0.021 A 
ENDBRANCH  27  29
ENDBRANCH  23  26
ENDBRANCH  21  23
ENDBRANCH  20  21
ENDBRANCH   1  20
TORSDOF 10
