MODEL 834
MODEL 1
REMARK VINA RESULT:    -6.711      0.000      0.000
REMARK INTER + INTRA:         -16.599
REMARK INTER:                 -10.634
REMARK INTRA:                  -5.965
REMARK UNBOUND:                -5.965
REMARK  Name = No_834-gen_results/8p0m/2024-11-26-14-13-15/
REMARK  10 active torsions:
REMARK  status: ('A' for Active; 'I' for Inactive)
REMARK    1  A    between atoms: C_3  and  C_7
REMARK    2  A    between atoms: C_7  and  C_8
REMARK    3  A    between atoms: C_7  and  C_9
REMARK    4  A    between atoms: C_8  and  C_10
REMARK    5  A    between atoms: C_9  and  C_17
REMARK    6  A    between atoms: C_14  and  C_31
REMARK    7  A    between atoms: C_17  and  C_18
REMARK    8  A    between atoms: C_18  and  C_22
REMARK    9  A    between atoms: C_23  and  C_25
REMARK   10  A    between atoms: C_31  and  C_33
REMARK                            x       y       z     vdW  Elec       q    Type
REMARK                         _______ _______ _______ _____ _____    ______ ____
ROOT
ATOM      1  C   UNL A   1     -26.114   1.831  25.581  0.00  0.00    +0.027 C 
ENDROOT
BRANCH   1   4
ATOM      2  C   UNL A   1     -28.014   2.359  23.943  0.00  0.00    -0.004 A 
ATOM      3  C   UNL A   1     -28.935   2.057  23.530  0.00  0.00    -0.000 A 
ATOM      4  C   UNL A   1     -27.430   1.532  24.928  0.00  0.00    -0.022 A 
ATOM      5  C   UNL A   1     -28.037   0.369  25.359  0.00  0.00    -0.004 A 
ATOM      6  C   UNL A   1     -29.243   0.043  24.758  0.00  0.00    -0.000 A 
ATOM      7  C   UNL A   1     -29.756   0.862  23.775  0.00  0.00    -0.000 A 
ENDBRANCH   1   4
BRANCH   1   8
ATOM      8  C   UNL A   1     -25.144   1.066  25.544  0.00  0.00    +0.026 C 
ATOM      9  C   UNL A   1     -24.964   0.123  24.462  0.00  0.00    +0.005 C 
BRANCH   8  10
ATOM     10  C   UNL A   1     -24.023   1.153  26.419  0.00  0.00    -0.022 A 
ATOM     11  C   UNL A   1     -23.204   1.810  26.508  0.00  0.00    -0.004 A 
ATOM     12  C   UNL A   1     -22.402   1.933  27.422  0.00  0.00    -0.001 A 
ATOM     13  C   UNL A   1     -22.375   0.945  28.479  0.00  0.00    -0.004 A 
ATOM     14  C   UNL A   1     -23.279  -0.054  28.463  0.00  0.00    -0.023 A 
ATOM     15  C   UNL A   1     -24.213  -0.026  27.439  0.00  0.00    -0.009 A 
BRANCH  14  16
ATOM     16  C   UNL A   1     -23.304  -1.155  29.477  0.00  0.00    +0.022 C 
ATOM     17  C   UNL A   1     -23.528  -2.359  29.008  0.00  0.00    +0.005 C 
BRANCH  16  18
ATOM     18  C   UNL A   1     -23.100  -0.816  30.862  0.00  0.00    +0.004 C 
ATOM     19  C   UNL A   1     -23.883  -1.128  31.883  0.00  0.00    +0.000 C 
ENDBRANCH  16  18
ENDBRANCH  14  16
ENDBRANCH   8  10
ENDBRANCH   1   8
BRANCH   1  20
ATOM     20  C   UNL A   1     -26.006   3.100  26.284  0.00  0.00    +0.009 C 
BRANCH  20  21
ATOM     21  C   UNL A   1     -26.872   3.216  27.462  0.00  0.00    +0.022 C 
ATOM     22  C   UNL A   1     -28.034   4.022  27.387  0.00  0.00    +0.005 C 
BRANCH  21  23
ATOM     23  C   UNL A   1     -26.623   2.464  28.560  0.00  0.00    -0.026 C 
ATOM     24  C   UNL A   1     -25.716   2.818  29.375  0.00  0.00    -0.030 C 
ATOM     25  C   UNL A   1     -25.455   2.051  30.606  0.00  0.00    +0.030 C 
BRANCH  23  26
ATOM     26  C   UNL A   1     -27.432   1.287  28.891  0.00  0.00    +0.004 C 
ATOM     27  C   UNL A   1     -28.308   0.705  28.994  0.00  0.00    +0.052 C 
ATOM     28 BR   UNL A   1     -30.006   1.034  28.549  0.00  0.00    -0.047 Br
BRANCH  27  29
ATOM     29  C   UNL A   1     -28.209  -0.755  29.621  0.00  0.00    +0.087 A 
ATOM     30  N   UNL A   1     -29.260  -1.274  30.111  0.00  0.00    -0.243 NA
ATOM     31  C   UNL A   1     -29.232  -2.531  30.660  0.00  0.00    +0.099 A 
ATOM     32  C   UNL A   1     -27.004  -1.486  29.859  0.00  0.00    +0.020 A 
ATOM     33  C   UNL A   1     -26.916  -2.730  30.286  0.00  0.00    +0.003 A 
ATOM     34  C   UNL A   1     -28.131  -3.308  30.752  0.00  0.00    +0.021 A 
ENDBRANCH  27  29
ENDBRANCH  23  26
ENDBRANCH  21  23
ENDBRANCH  20  21
ENDBRANCH   1  20
TORSDOF 10
ENDMDL
ENDMDL
