REMARK  Name = No_835-gen_results/8p0m/2024-11-26-14-13-15/
REMARK  2 active torsions:
REMARK  status: ('A' for Active; 'I' for Inactive)
REMARK    1  A    between atoms: C_5  and  C_7
REMARK    2  A    between atoms: C_7  and  C_9
REMARK                            x       y       z     vdW  Elec       q    Type
REMARK                         _______ _______ _______ _____ _____    ______ ____
ROOT
ATOM      1  C   UNL A   1     -28.016  -0.814  28.878  0.00  0.00    +0.000 A 
ATOM      2  C   UNL A   1     -27.064  -0.119  28.608  0.00  0.00    +0.000 A 
ATOM      3  C   UNL A   1     -27.001   0.691  27.491  0.00  0.00    +0.000 A 
ATOM      4  C   UNL A   1     -28.137   0.736  26.635  0.00  0.00    +0.001 A 
ATOM      5  C   UNL A   1     -29.236   0.076  27.069  0.00  0.00    +0.015 A 
ATOM      6  C   UNL A   1     -29.218  -0.643  28.175  0.00  0.00    +0.001 A 
ENDROOT
BRANCH   5   7
ATOM      7  C   UNL A   1     -30.415   0.159  26.182  0.00  0.00    +0.081 C 
ATOM      8  N   UNL A   1     -30.347   0.080  24.953  0.00  0.00    -0.153 NA
BRANCH   7   9
ATOM      9  C   UNL A   1     -31.723   0.120  26.790  0.00  0.00    +0.048 C 
ATOM     10  C   UNL A   1     -32.812   0.077  25.929  0.00  0.00    +0.007 C 
ENDBRANCH   7   9
ENDBRANCH   5   7
TORSDOF 2
