MODEL 835
MODEL 1
REMARK VINA RESULT:    -5.182      0.000      0.000
REMARK INTER + INTRA:          -5.987
REMARK INTER:                  -5.788
REMARK INTRA:                  -0.199
REMARK UNBOUND:                -0.199
REMARK  Name = No_835-gen_results/8p0m/2024-11-26-14-13-15/
REMARK  2 active torsions:
REMARK  status: ('A' for Active; 'I' for Inactive)
REMARK    1  A    between atoms: C_5  and  C_7
REMARK    2  A    between atoms: C_7  and  C_9
REMARK                            x       y       z     vdW  Elec       q    Type
REMARK                         _______ _______ _______ _____ _____    ______ ____
ROOT
ATOM      1  C   UNL A   1     -24.573  -5.179  28.912  0.00  0.00    +0.000 A 
ATOM      2  C   UNL A   1     -25.701  -5.142  29.346  0.00  0.00    +0.000 A 
ATOM      3  C   UNL A   1     -26.315  -3.984  29.782  0.00  0.00    +0.000 A 
ATOM      4  C   UNL A   1     -25.590  -2.764  29.676  0.00  0.00    +0.001 A 
ATOM      5  C   UNL A   1     -24.403  -2.831  29.029  0.00  0.00    +0.015 A 
ATOM      6  C   UNL A   1     -23.910  -3.980  28.608  0.00  0.00    +0.001 A 
ENDROOT
BRANCH   5   7
ATOM      7  C   UNL A   1     -23.679  -1.550  28.901  0.00  0.00    +0.081 C 
ATOM      8  N   UNL A   1     -22.452  -1.453  28.977  0.00  0.00    -0.153 NA
BRANCH   7   9
ATOM      9  C   UNL A   1     -24.422  -0.394  28.461  0.00  0.00    +0.048 C 
ATOM     10  C   UNL A   1     -23.855   0.364  27.444  0.00  0.00    +0.007 C 
ENDBRANCH   7   9
ENDBRANCH   5   7
TORSDOF 2
ENDMDL
ENDMDL
