MODEL 836
MODEL 1
REMARK VINA RESULT:    -4.508      0.000      0.000
REMARK INTER + INTRA:          -4.508
REMARK INTER:                  -4.508
REMARK INTRA:                   0.000
REMARK UNBOUND:                 0.000
REMARK  Name = No_836-gen_results/8p0m/2024-11-26-14-13-15/
REMARK  0 active torsions:
REMARK  status: ('A' for Active; 'I' for Inactive)
REMARK                            x       y       z     vdW  Elec       q    Type
REMARK                         _______ _______ _______ _____ _____    ______ ____
ROOT
ATOM      1  C   UNL A   1     -24.020  -4.385  28.619  0.00  0.00    +0.030 A 
ATOM      2  C   UNL A   1     -24.867  -4.973  28.838  0.00  0.00    +0.140 A 
ATOM      3  C   UNL A   1     -24.108  -2.954  28.952  0.00  0.00    +0.002 A 
ATOM      4  C   UNL A   1     -25.234  -2.443  29.661  0.00  0.00    +0.000 A 
ATOM      5  C   UNL A   1     -26.113  -4.708  29.607  0.00  0.00    +0.030 A 
ATOM      6  C   UNL A   1     -26.235  -3.388  29.925  0.00  0.00    +0.002 A 
ATOM      7  F   UNL A   1     -24.781  -6.378  28.529  0.00  0.00    -0.204 F 
ENDROOT
TORSDOF 0
ENDMDL
ENDMDL
