MODEL 837
MODEL 1
REMARK VINA RESULT:    -5.403      0.000      0.000
REMARK INTER + INTRA:          -6.897
REMARK INTER:                  -6.667
REMARK INTRA:                  -0.231
REMARK UNBOUND:                -0.231
REMARK  Name = No_837-gen_results/8p0m/2024-11-26-14-13-15/
REMARK  4 active torsions:
REMARK  status: ('A' for Active; 'I' for Inactive)
REMARK    1  A    between atoms: C_3  and  O_7
REMARK    2  A    between atoms: O_7  and  C_8
REMARK    3  A    between atoms: C_8  and  C_9
REMARK    4  A    between atoms: C_9  and  C_10
REMARK                            x       y       z     vdW  Elec       q    Type
REMARK                         _______ _______ _______ _____ _____    ______ ____
ROOT
ATOM      1  C   UNL A   1     -24.479   1.024  25.785  0.00  0.00    +0.003 A 
ATOM      2  C   UNL A   1     -24.514   0.289  26.745  0.00  0.00    +0.037 A 
ATOM      3  C   UNL A   1     -23.604   0.354  27.799  0.00  0.00    +0.139 A 
ATOM      4  C   UNL A   1     -22.514   1.308  27.733  0.00  0.00    +0.037 A 
ATOM      5  C   UNL A   1     -22.532   2.125  26.579  0.00  0.00    +0.003 A 
ATOM      6  C   UNL A   1     -23.428   1.985  25.636  0.00  0.00    +0.000 A 
ENDROOT
BRANCH   3   7
ATOM      7  O   UNL A   1     -23.595  -0.472  28.898  0.00  0.00    -0.475 OA
BRANCH   7   8
ATOM      8  C   UNL A   1     -23.257  -1.761  28.889  0.00  0.00    +0.210 C 
BRANCH   8   9
ATOM      9  C   UNL A   1     -24.256  -2.693  29.308  0.00  0.00    +0.076 C 
BRANCH   9  10
ATOM     10  C   UNL A   1     -24.156  -4.004  28.735  0.00  0.00    +0.010 C 
ATOM     11  C   UNL A   1     -25.010  -5.057  29.077  0.00  0.00    +0.163 C 
ATOM     12  F   UNL A   1     -24.857  -6.169  28.543  0.00  0.00    -0.202 F 
ENDBRANCH   9  10
ENDBRANCH   8   9
ENDBRANCH   7   8
ENDBRANCH   3   7
TORSDOF 4
ENDMDL
ENDMDL
