MODEL 838
MODEL 1
REMARK VINA RESULT:    -4.360      0.000      0.000
REMARK INTER + INTRA:          -4.360
REMARK INTER:                  -4.360
REMARK INTRA:                   0.000
REMARK UNBOUND:                 0.000
REMARK  Name = No_838-gen_results/8p0m/2024-11-26-14-13-15/
REMARK  0 active torsions:
REMARK  status: ('A' for Active; 'I' for Inactive)
REMARK                            x       y       z     vdW  Elec       q    Type
REMARK                         _______ _______ _______ _____ _____    ______ ____
ROOT
ATOM      1  C   UNL A   1     -25.400  -2.557  29.660  0.00  0.00    +0.011 A 
ATOM      2  C   UNL A   1     -24.317  -2.843  29.205  0.00  0.00    +0.058 A 
ATOM      3  C   UNL A   1     -24.005  -4.155  28.865  0.00  0.00    +0.011 A 
ATOM      4  C   UNL A   1     -24.946  -5.222  29.088  0.00  0.00    +0.001 A 
ATOM      5  C   UNL A   1     -26.165  -4.806  29.640  0.00  0.00    +0.000 A 
ATOM      6  C   UNL A   1     -26.404  -3.554  29.959  0.00  0.00    +0.001 A 
ATOM      7 CL   UNL A   1     -23.040  -1.733  28.911  0.00  0.00    -0.082 Cl
ENDROOT
TORSDOF 0
ENDMDL
ENDMDL
