REMARK  Name = No_839-gen_results/8p0m/2024-11-26-14-13-15/
REMARK  9 active torsions:
REMARK  status: ('A' for Active; 'I' for Inactive)
REMARK    1  A    between atoms: C_1  and  C_19
REMARK    2  A    between atoms: C_2  and  C_10
REMARK    3  A    between atoms: C_5  and  C_7
REMARK    4  A    between atoms: N_9  and  C_16
REMARK    5  A    between atoms: C_12  and  C_13
REMARK    6  A    between atoms: C_16  and  C_22
REMARK    7  A    between atoms: C_22  and  C_23
REMARK    8  A    between atoms: C_28  and  C_29
REMARK    9  A    between atoms: N_31  and  C_32
REMARK                            x       y       z     vdW  Elec       q    Type
REMARK                         _______ _______ _______ _____ _____    ______ ____
ROOT
ATOM      1  C   UNL A   1     -30.415   0.159  26.182  0.00  0.00    +0.265 C 
ATOM      2  O   UNL A   1     -31.277  -0.512  26.408  0.00  0.00    -0.268 OA
ATOM      3  N   UNL A   1     -30.504   1.209  25.296  0.00  0.00    -0.201 NA
ENDROOT
BRANCH   1   8
ATOM      4  C   UNL A   1     -28.016  -0.814  28.878  0.00  0.00    +0.084 A 
ATOM      5  C   UNL A   1     -27.064  -0.119  28.608  0.00  0.00    +0.062 A 
ATOM      6  C   UNL A   1     -27.001   0.691  27.491  0.00  0.00    +0.005 A 
ATOM      7  C   UNL A   1     -28.137   0.736  26.635  0.00  0.00    +0.005 A 
ATOM      8  C   UNL A   1     -29.236   0.076  27.069  0.00  0.00    +0.055 A 
ATOM      9  C   UNL A   1     -29.218  -0.643  28.175  0.00  0.00    +0.011 A 
BRANCH   5  10
ATOM     10  C   UNL A   1     -25.709  -0.222  29.418  0.00  0.00    +0.272 C 
ATOM     11  N   UNL A   1     -24.624  -0.645  28.904  0.00  0.00    -0.131 NA
ATOM     12  C   UNL A   1     -23.476  -0.863  29.410  0.00  0.00    +0.352 C 
ATOM     13  O   UNL A   1     -23.015  -2.079  29.497  0.00  0.00    -0.261 OA
ATOM     14  O   UNL A   1     -25.633   0.362  30.534  0.00  0.00    -0.268 OA
BRANCH  12  15
ATOM     15  C   UNL A   1     -22.671   0.218  29.659  0.00  0.00    +0.442 C 
ATOM     16  O   UNL A   1     -22.962   1.243  30.142  0.00  0.00    -0.235 OA
ATOM     17  O   UNL A   1     -21.300   0.125  29.273  0.00  0.00    -0.235 OA
ENDBRANCH  12  15
ENDBRANCH   5  10
BRANCH   4  18
ATOM     18  C   UNL A   1     -28.088  -1.714  30.134  0.00  0.00    +0.388 C 
ATOM     19  O   UNL A   1     -27.390  -2.602  30.260  0.00  0.00    -0.241 OA
ATOM     20  O   UNL A   1     -29.089  -1.514  30.936  0.00  0.00    -0.241 OA
ENDBRANCH   4  18
ENDBRANCH   1   8
BRANCH   3  21
ATOM     21  C   UNL A   1     -31.673   1.384  24.400  0.00  0.00    +0.120 C 
BRANCH  21  22
ATOM     22  C   UNL A   1     -31.678   2.574  23.746  0.00  0.00    +0.044 C 
ATOM     23  C   UNL A   1     -30.249   2.929  23.015  0.00  0.00    +0.006 C 
BRANCH  22  24
ATOM     24  C   UNL A   1     -32.026   3.646  24.196  0.00  0.00    -0.016 A 
ATOM     25  C   UNL A   1     -31.841   3.877  25.557  0.00  0.00    -0.004 A 
ATOM     26  C   UNL A   1     -32.199   5.153  26.201  0.00  0.00    -0.000 A 
ATOM     27  C   UNL A   1     -33.194   5.859  25.540  0.00  0.00    +0.000 A 
ATOM     28  C   UNL A   1     -33.497   5.634  24.207  0.00  0.00    +0.004 A 
ATOM     29  C   UNL A   1     -32.979   4.529  23.585  0.00  0.00    +0.051 A 
BRANCH  29  30
ATOM     30  C   UNL A   1     -33.352   4.192  22.240  0.00  0.00    +0.268 C 
ATOM     31  N   UNL A   1     -33.717   3.089  21.793  0.00  0.00    -0.180 NA
ATOM     32  O   UNL A   1     -33.427   5.255  21.422  0.00  0.00    -0.268 OA
BRANCH  31  33
ATOM     33  C   UNL A   1     -33.589   2.703  20.598  0.00  0.00    +0.052 C 
ATOM     34  C   UNL A   1     -33.708   1.276  20.328  0.00  0.00    +0.013 C 
ATOM     35  C   UNL A   1     -33.243   3.481  19.437  0.00  0.00    +0.049 C 
ENDBRANCH  31  33
ENDBRANCH  29  30
ENDBRANCH  22  24
ENDBRANCH  21  22
ENDBRANCH   3  21
TORSDOF 9
