MODEL 839
MODEL 1
REMARK VINA RESULT:    -7.074      0.000      0.000
REMARK INTER + INTRA:         -13.055
REMARK INTER:                 -10.796
REMARK INTRA:                  -2.259
REMARK UNBOUND:                -2.259
REMARK  Name = No_839-gen_results/8p0m/2024-11-26-14-13-15/
REMARK  9 active torsions:
REMARK  status: ('A' for Active; 'I' for Inactive)
REMARK    1  A    between atoms: C_1  and  C_19
REMARK    2  A    between atoms: C_2  and  C_10
REMARK    3  A    between atoms: C_5  and  C_7
REMARK    4  A    between atoms: N_9  and  C_16
REMARK    5  A    between atoms: C_12  and  C_13
REMARK    6  A    between atoms: C_16  and  C_22
REMARK    7  A    between atoms: C_22  and  C_23
REMARK    8  A    between atoms: C_28  and  C_29
REMARK    9  A    between atoms: N_31  and  C_32
REMARK                            x       y       z     vdW  Elec       q    Type
REMARK                         _______ _______ _______ _____ _____    ______ ____
ROOT
ATOM      1  C   UNL A   1     -25.684   0.387  26.117  0.00  0.00    +0.265 C 
ATOM      2  O   UNL A   1     -24.913   1.143  25.835  0.00  0.00    -0.268 OA
ATOM      3  N   UNL A   1     -25.549  -0.438  27.211  0.00  0.00    -0.201 NA
ENDROOT
BRANCH   1   8
ATOM      4  C   UNL A   1     -29.353   0.614  25.443  0.00  0.00    +0.084 A 
ATOM      5  C   UNL A   1     -29.365   0.723  24.239  0.00  0.00    +0.062 A 
ATOM      6  C   UNL A   1     -28.222   0.831  23.470  0.00  0.00    +0.005 A 
ATOM      7  C   UNL A   1     -26.964   0.770  24.132  0.00  0.00    +0.005 A 
ATOM      8  C   UNL A   1     -27.000   0.476  25.453  0.00  0.00    +0.055 A 
ATOM      9  C   UNL A   1     -28.142   0.349  26.101  0.00  0.00    +0.011 A 
BRANCH   5  10
ATOM     10  C   UNL A   1     -30.713   0.950  23.442  0.00  0.00    +0.272 C 
ATOM     11  N   UNL A   1     -31.114   2.099  23.070  0.00  0.00    -0.131 NA
ATOM     12  C   UNL A   1     -32.186   2.477  22.496  0.00  0.00    +0.352 C 
ATOM     13  O   UNL A   1     -33.043   3.227  23.130  0.00  0.00    -0.261 OA
ATOM     14  O   UNL A   1     -31.288  -0.055  22.942  0.00  0.00    -0.268 OA
BRANCH  12  15
ATOM     15  C   UNL A   1     -32.305   2.250  21.150  0.00  0.00    +0.442 C 
ATOM     16  O   UNL A   1     -32.930   1.424  20.606  0.00  0.00    -0.235 OA
ATOM     17  O   UNL A   1     -31.568   3.097  20.268  0.00  0.00    -0.235 OA
ENDBRANCH  12  15
ENDBRANCH   5  10
BRANCH   4  18
ATOM     18  C   UNL A   1     -30.633   0.485  26.302  0.00  0.00    +0.388 C 
ATOM     19  O   UNL A   1     -31.097   1.393  26.803  0.00  0.00    -0.241 OA
ATOM     20  O   UNL A   1     -31.039  -0.720  26.564  0.00  0.00    -0.241 OA
ENDBRANCH   4  18
ENDBRANCH   1   8
BRANCH   3  21
ATOM     21  C   UNL A   1     -24.271  -0.552  27.956  0.00  0.00    +0.120 C 
BRANCH  21  22
ATOM     22  C   UNL A   1     -24.395  -1.199  29.143  0.00  0.00    +0.044 C 
ATOM     23  C   UNL A   1     -23.113  -0.979  30.149  0.00  0.00    +0.006 C 
BRANCH  22  24
ATOM     24  C   UNL A   1     -24.669  -2.370  29.305  0.00  0.00    -0.016 A 
ATOM     25  C   UNL A   1     -23.880  -3.322  28.664  0.00  0.00    -0.004 A 
ATOM     26  C   UNL A   1     -24.105  -4.771  28.816  0.00  0.00    -0.000 A 
ATOM     27  C   UNL A   1     -25.409  -5.108  29.148  0.00  0.00    +0.000 A 
ATOM     28  C   UNL A   1     -26.285  -4.196  29.715  0.00  0.00    +0.004 A 
ATOM     29  C   UNL A   1     -25.946  -2.869  29.729  0.00  0.00    +0.051 A 
BRANCH  29  30
ATOM     30  C   UNL A   1     -26.866  -1.874  30.203  0.00  0.00    +0.268 C 
ATOM     31  N   UNL A   1     -27.845  -1.382  29.612  0.00  0.00    -0.180 NA
ATOM     32  O   UNL A   1     -26.692  -1.555  31.497  0.00  0.00    -0.268 OA
BRANCH  31  33
ATOM     33  C   UNL A   1     -28.333  -0.238  29.826  0.00  0.00    +0.052 C 
ATOM     34  C   UNL A   1     -29.739  -0.159  30.202  0.00  0.00    +0.013 C 
ATOM     35  C   UNL A   1     -27.708   1.048  29.663  0.00  0.00    +0.049 C 
ENDBRANCH  31  33
ENDBRANCH  29  30
ENDBRANCH  22  24
ENDBRANCH  21  22
ENDBRANCH   3  21
TORSDOF 9
ENDMDL
ENDMDL
