MODEL 83
MODEL 1
REMARK VINA RESULT:    -5.983      0.000      0.000
REMARK INTER + INTRA:          -7.136
REMARK INTER:                  -6.683
REMARK INTRA:                  -0.454
REMARK UNBOUND:                -0.454
REMARK  Name = No_83-gen_results/8p0m/2024-11-26-14-13-15/
REMARK  2 active torsions:
REMARK  status: ('A' for Active; 'I' for Inactive)
REMARK    1  A    between atoms: C_1  and  C_2
REMARK    2  A    between atoms: C_4  and  C_11
REMARK                            x       y       z     vdW  Elec       q    Type
REMARK                         _______ _______ _______ _____ _____    ______ ____
ROOT
ATOM      1  C   UNL A   1     -23.093   1.683  27.136  0.00  0.00    +0.071 A 
ATOM      2  C   UNL A   1     -23.754   0.402  27.411  0.00  0.00    +0.008 A 
ATOM      3  C   UNL A   1     -23.309  -0.456  28.526  0.00  0.00    +0.071 A 
ATOM      4  C   UNL A   1     -21.943  -0.412  28.883  0.00  0.00    +0.004 A 
ATOM      5  C   UNL A   1     -21.121   0.617  28.315  0.00  0.00    -0.000 A 
ATOM      6  C   UNL A   1     -21.616   1.477  27.424  0.00  0.00    +0.004 A 
ENDROOT
BRANCH   1   7
ATOM      7  C   UNL A   1     -23.398   2.127  26.230  0.00  0.00    +0.419 C 
ATOM      8  F   UNL A   1     -23.772   3.335  26.198  0.00  0.00    -0.166 F 
ATOM      9  F   UNL A   1     -22.118   2.296  25.343  0.00  0.00    -0.166 F 
ATOM     10  F   UNL A   1     -24.090   1.487  25.232  0.00  0.00    -0.166 F 
ENDBRANCH   1   7
BRANCH   3  11
ATOM     11  C   UNL A   1     -24.053  -1.529  29.109  0.00  0.00    +0.419 C 
ATOM     12  F   UNL A   1     -24.225  -1.435  30.258  0.00  0.00    -0.166 F 
ATOM     13  F   UNL A   1     -23.261  -2.671  28.908  0.00  0.00    -0.166 F 
ATOM     14  F   UNL A   1     -25.159  -1.734  28.338  0.00  0.00    -0.166 F 
ENDBRANCH   3  11
TORSDOF 2
ENDMDL
ENDMDL
