REMARK  Name = No_840-gen_results/8p0m/2024-11-26-14-13-15/
REMARK  4 active torsions:
REMARK  status: ('A' for Active; 'I' for Inactive)
REMARK    1  A    between atoms: C_3  and  C_4
REMARK    2  A    between atoms: C_4  and  C_8
REMARK    3  A    between atoms: C_8  and  C_9
REMARK    4  A    between atoms: C_8  and  C_15
REMARK                            x       y       z     vdW  Elec       q    Type
REMARK                         _______ _______ _______ _____ _____    ______ ____
ROOT
ATOM      1  C   UNL A   1     -25.232   0.579  27.329  0.00  0.00    +0.049 C 
ENDROOT
BRANCH   1   2
ATOM      2  C   UNL A   1     -23.982   0.870  27.768  0.00  0.00    -0.018 A 
ATOM      3  C   UNL A   1     -23.187   0.288  28.722  0.00  0.00    -0.004 A 
ATOM      4  C   UNL A   1     -21.856   0.649  29.024  0.00  0.00    -0.000 A 
ATOM      5  C   UNL A   1     -21.212   1.532  28.172  0.00  0.00    -0.000 A 
ATOM      6  C   UNL A   1     -23.348   2.123  27.141  0.00  0.00    -0.004 A 
ATOM      7  C   UNL A   1     -21.960   2.303  27.297  0.00  0.00    -0.000 A 
ENDBRANCH   1   2
BRANCH   1   8
ATOM      8  C   UNL A   1     -25.977   1.345  26.450  0.00  0.00    -0.018 A 
ATOM      9  C   UNL A   1     -27.326   1.621  26.655  0.00  0.00    -0.004 A 
ATOM     10  C   UNL A   1     -28.098   2.139  25.664  0.00  0.00    -0.000 A 
ATOM     11  C   UNL A   1     -27.631   2.058  24.413  0.00  0.00    -0.000 A 
ATOM     12  C   UNL A   1     -26.317   1.599  24.144  0.00  0.00    -0.000 A 
ATOM     13  C   UNL A   1     -25.466   1.222  25.115  0.00  0.00    -0.004 A 
ENDBRANCH   1   8
BRANCH   1  14
ATOM     14  C   UNL A   1     -25.683  -0.777  27.683  0.00  0.00    +0.035 C 
BRANCH  14  17
ATOM     15  C   UNL A   1     -28.016  -0.814  28.878  0.00  0.00    -0.004 A 
ATOM     16  C   UNL A   1     -28.469  -0.785  29.829  0.00  0.00    -0.000 A 
ATOM     17  C   UNL A   1     -26.546  -0.876  28.850  0.00  0.00    -0.021 A 
ATOM     18  C   UNL A   1     -27.918  -1.003  31.188  0.00  0.00    -0.000 A 
ATOM     19  C   UNL A   1     -26.531  -1.079  31.246  0.00  0.00    -0.000 A 
ATOM     20  C   UNL A   1     -25.780  -1.046  30.090  0.00  0.00    -0.004 A 
ENDBRANCH  14  17
ENDBRANCH   1  14
TORSDOF 4
