MODEL 841
MODEL 1
REMARK VINA RESULT:    -7.113      0.000      0.000
REMARK INTER + INTRA:         -10.636
REMARK INTER:                 -10.856
REMARK INTRA:                   0.220
REMARK UNBOUND:                 0.220
REMARK  Name = No_841-gen_results/8p0m/2024-11-26-14-13-15/
REMARK  9 active torsions:
REMARK  status: ('A' for Active; 'I' for Inactive)
REMARK    1  A    between atoms: C_3  and  C_8
REMARK    2  A    between atoms: C_6  and  O_7
REMARK    3  A    between atoms: O_7  and  C_14
REMARK    4  A    between atoms: C_14  and  C_15
REMARK    5  A    between atoms: C_17  and  C_20
REMARK    6  A    between atoms: C_17  and  C_34
REMARK    7  A    between atoms: C_18  and  C_23
REMARK    8  A    between atoms: C_23  and  C_24
REMARK    9  A    between atoms: C_24  and  C_25
REMARK                            x       y       z     vdW  Elec       q    Type
REMARK                         _______ _______ _______ _____ _____    ______ ____
ROOT
ATOM      1  C   UNL A   1     -25.085   1.275  25.514  0.00  0.00    +0.189 C 
ATOM      2  O   UNL A   1     -25.344   1.358  26.716  0.00  0.00    -0.339 OA
ATOM      3  C   UNL A   1     -24.606   2.153  27.507  0.00  0.00    +0.204 C 
ATOM      4  C   UNL A   1     -23.381   1.789  27.397  0.00  0.00    +0.153 C 
ATOM      5  O   UNL A   1     -22.859   2.284  26.260  0.00  0.00    -0.350 OA
ATOM      6  C   UNL A   1     -23.566   1.550  25.179  0.00  0.00    +0.175 C 
ENDROOT
BRANCH   3   7
ATOM      7  C   UNL A   1     -25.075   1.991  29.041  0.00  0.00    +0.256 C 
ATOM      8  O   UNL A   1     -24.948   2.901  29.772  0.00  0.00    -0.272 OA
ATOM      9  N   UNL A   1     -25.567   0.762  29.419  0.00  0.00    -0.277 N 
ATOM     10  C   UNL A   1     -25.897   0.460  30.771  0.00  0.00    +0.093 C 
ATOM     11  C   UNL A   1     -26.046  -0.761  30.942  0.00  0.00    +0.022 C 
ATOM     12  C   UNL A   1     -26.017  -1.789  29.930  0.00  0.00    +0.004 C 
ATOM     13  C   UNL A   1     -25.684  -1.377  28.623  0.00  0.00    +0.022 C 
ATOM     14  C   UNL A   1     -25.454  -0.180  28.460  0.00  0.00    +0.093 C 
ENDBRANCH   3   7
BRANCH   3  15
ATOM     15  C   UNL A   1     -24.849   3.635  27.290  0.00  0.00    +0.011 C 
ATOM     16  C   UNL A   1     -26.165   4.020  26.891  0.00  0.00    -0.002 C 
ENDBRANCH   3  15
BRANCH   1  17
ATOM     17  C   UNL A   1     -25.785   0.171  24.983  0.00  0.00    +0.237 C 
BRANCH  17  18
ATOM     18  O   UNL A   1     -27.088   0.133  25.435  0.00  0.00    -0.473 OA
BRANCH  18  24
ATOM     19  C   UNL A   1     -29.141  -0.587  24.294  0.00  0.00    +0.037 A 
ATOM     20  C   UNL A   1     -30.103  -0.299  23.621  0.00  0.00    +0.003 A 
ATOM     21  C   UNL A   1     -30.308   0.965  23.069  0.00  0.00    +0.000 A 
ATOM     22  C   UNL A   1     -29.355   2.022  23.352  0.00  0.00    +0.003 A 
ATOM     23  C   UNL A   1     -28.263   1.614  24.151  0.00  0.00    +0.037 A 
ATOM     24  C   UNL A   1     -28.160   0.400  24.631  0.00  0.00    +0.139 A 
BRANCH  21  25
ATOM     25  C   UNL A   1     -31.471   1.396  22.227  0.00  0.00    +0.000 A 
ATOM     26  C   UNL A   1     -32.550   0.631  22.131  0.00  0.00    +0.000 A 
ATOM     27  C   UNL A   1     -33.626   1.015  21.255  0.00  0.00    +0.000 A 
ATOM     28  C   UNL A   1     -33.534   2.106  20.425  0.00  0.00    +0.000 A 
ATOM     29  C   UNL A   1     -31.443   2.670  21.557  0.00  0.00    +0.000 A 
ATOM     30  C   UNL A   1     -32.464   2.951  20.573  0.00  0.00    +0.000 A 
ENDBRANCH  21  25
ENDBRANCH  18  24
ENDBRANCH  17  18
ENDBRANCH   1  17
BRANCH   4  31
ATOM     31  C   UNL A   1     -22.319   1.605  28.378  0.00  0.00    +0.045 C 
BRANCH  31  32
ATOM     32  C   UNL A   1     -21.620   0.306  28.279  0.00  0.00    +0.117 C 
BRANCH  32  33
ATOM     33  C   UNL A   1     -22.099  -0.674  29.320  0.00  0.00    +0.365 C 
ATOM     34  O   UNL A   1     -22.323  -0.257  30.450  0.00  0.00    -0.246 OA
ATOM     35  O   UNL A   1     -22.344  -1.862  28.966  0.00  0.00    -0.246 OA
ENDBRANCH  32  33
ENDBRANCH  31  32
ENDBRANCH   4  31
TORSDOF 9
ENDMDL
ENDMDL
