REMARK  Name = No_842-gen_results/8p0m/2024-11-26-14-13-15/
REMARK  2 active torsions:
REMARK  status: ('A' for Active; 'I' for Inactive)
REMARK    1  A    between atoms: C_2  and  C_21
REMARK    2  A    between atoms: N_14  and  C_15
REMARK                            x       y       z     vdW  Elec       q    Type
REMARK                         _______ _______ _______ _____ _____    ______ ____
ROOT
ATOM      1  C   UNL A   1     -28.016  -0.814  28.878  0.00  0.00    +0.021 A 
ATOM      2  C   UNL A   1     -28.469  -0.785  29.829  0.00  0.00    +0.081 A 
ATOM      3  C   UNL A   1     -26.546  -0.876  28.850  0.00  0.00    +0.052 A 
ATOM      4  C   UNL A   1     -25.804  -1.032  30.057  0.00  0.00    -0.004 A 
ATOM      5  C   UNL A   1     -24.370  -1.100  30.072  0.00  0.00    +0.055 C 
ATOM      6  C   UNL A   1     -27.990  -1.005  31.209  0.00  0.00    +0.006 A 
ATOM      7  C   UNL A   1     -26.562  -1.137  31.260  0.00  0.00    -0.003 A 
ATOM      8  C   UNL A   1     -23.634  -0.783  29.067  0.00  0.00    -0.004 A 
ATOM      9  C   UNL A   1     -22.176  -0.678  29.166  0.00  0.00    -0.003 A 
ATOM     10  C   UNL A   1     -21.440  -0.130  28.121  0.00  0.00    -0.000 A 
ATOM     11  C   UNL A   1     -22.101   0.876  27.308  0.00  0.00    +0.001 A 
ATOM     12  C   UNL A   1     -23.547   0.996  27.364  0.00  0.00    +0.015 A 
ATOM     13  C   UNL A   1     -24.263   0.302  28.249  0.00  0.00    +0.052 A 
ATOM     14  N   UNL A   1     -25.733  -0.293  27.860  0.00  0.00    -0.266 N 
ENDROOT
BRANCH  14  15
ATOM     15  C   UNL A   1     -26.249   0.308  26.703  0.00  0.00    +0.056 A 
ATOM     16  C   UNL A   1     -25.820  -0.204  25.556  0.00  0.00    +0.015 A 
ATOM     17  C   UNL A   1     -27.157   1.299  26.735  0.00  0.00    +0.015 A 
ATOM     18  C   UNL A   1     -27.724   1.810  25.634  0.00  0.00    +0.001 A 
ATOM     19  C   UNL A   1     -26.310   0.242  24.318  0.00  0.00    +0.001 A 
ATOM     20  C   UNL A   1     -27.297   1.284  24.375  0.00  0.00    +0.000 A 
ENDBRANCH  14  15
BRANCH   2  21
ATOM     21  C   UNL A   1     -30.100  -0.803  29.901  0.00  0.00    +0.388 C 
ATOM     22  O   UNL A   1     -30.609  -0.230  29.014  0.00  0.00    -0.241 OA
ATOM     23  O   UNL A   1     -30.724  -1.355  30.844  0.00  0.00    -0.241 OA
ENDBRANCH   2  21
TORSDOF 2
