MODEL 842
MODEL 1
REMARK VINA RESULT:    -7.292      0.000      0.000
REMARK INTER + INTRA:          -8.828
REMARK INTER:                  -8.144
REMARK INTRA:                  -0.684
REMARK UNBOUND:                -0.684
REMARK  Name = No_842-gen_results/8p0m/2024-11-26-14-13-15/
REMARK  2 active torsions:
REMARK  status: ('A' for Active; 'I' for Inactive)
REMARK    1  A    between atoms: C_2  and  C_21
REMARK    2  A    between atoms: N_14  and  C_15
REMARK                            x       y       z     vdW  Elec       q    Type
REMARK                         _______ _______ _______ _____ _____    ______ ____
ROOT
ATOM      1  C   UNL A   1     -25.822  -0.471  27.275  0.00  0.00    +0.021 A 
ATOM      2  C   UNL A   1     -25.564   0.303  26.609  0.00  0.00    +0.081 A 
ATOM      3  C   UNL A   1     -25.797  -0.142  28.709  0.00  0.00    +0.052 A 
ATOM      4  C   UNL A   1     -25.572   1.198  29.141  0.00  0.00    -0.004 A 
ATOM      5  C   UNL A   1     -25.544   1.561  30.530  0.00  0.00    +0.055 C 
ATOM      6  C   UNL A   1     -25.370   1.761  26.743  0.00  0.00    +0.006 A 
ATOM      7  C   UNL A   1     -25.393   2.174  28.117  0.00  0.00    -0.003 A 
ATOM      8  C   UNL A   1     -25.466   0.705  31.486  0.00  0.00    -0.004 A 
ATOM      9  C   UNL A   1     -25.247   1.104  32.878  0.00  0.00    -0.003 A 
ATOM     10  C   UNL A   1     -24.959   0.147  33.845  0.00  0.00    -0.000 A 
ATOM     11  C   UNL A   1     -24.255  -1.044  33.401  0.00  0.00    +0.001 A 
ATOM     12  C   UNL A   1     -24.215  -1.359  31.984  0.00  0.00    +0.015 A 
ATOM     13  C   UNL A   1     -24.686  -0.505  31.075  0.00  0.00    +0.052 A 
ATOM     14  N   UNL A   1     -25.455  -1.040  29.737  0.00  0.00    -0.266 N 
ENDROOT
BRANCH  14  15
ATOM     15  C   UNL A   1     -25.225  -2.405  29.515  0.00  0.00    +0.056 A 
ATOM     16  C   UNL A   1     -26.219  -3.214  29.862  0.00  0.00    +0.015 A 
ATOM     17  C   UNL A   1     -24.104  -2.875  28.941  0.00  0.00    +0.015 A 
ATOM     18  C   UNL A   1     -23.920  -4.167  28.639  0.00  0.00    +0.001 A 
ATOM     19  C   UNL A   1     -26.164  -4.597  29.624  0.00  0.00    +0.001 A 
ATOM     20  C   UNL A   1     -24.968  -5.075  28.989  0.00  0.00    +0.000 A 
ENDBRANCH  14  15
BRANCH   2  21
ATOM     21  C   UNL A   1     -25.664  -0.001  25.007  0.00  0.00    +0.388 C 
ATOM     22  O   UNL A   1     -24.626   0.036  24.463  0.00  0.00    -0.241 OA
ATOM     23  O   UNL A   1     -26.762  -0.216  24.433  0.00  0.00    -0.241 OA
ENDBRANCH   2  21
TORSDOF 2
ENDMDL
ENDMDL
