REMARK  Name = No_844-gen_results/8p0m/2024-11-26-14-13-15/
REMARK  2 active torsions:
REMARK  status: ('A' for Active; 'I' for Inactive)
REMARK    1  A    between atoms: C_2  and  N_7
REMARK    2  A    between atoms: N_8  and  C_9
REMARK                            x       y       z     vdW  Elec       q    Type
REMARK                         _______ _______ _______ _____ _____    ______ ____
ROOT
ATOM      1  C   UNL A   1     -28.016  -0.814  28.878  0.00  0.00    +0.055 A 
ATOM      2  C   UNL A   1     -27.064  -0.119  28.608  0.00  0.00    +0.136 A 
ATOM      3  N   UNL A   1     -25.818  -0.343  29.049  0.00  0.00    -0.198 NA
ATOM      4  C   UNL A   1     -25.555  -1.473  29.730  0.00  0.00    +0.238 A 
ATOM      5  C   UNL A   1     -27.855  -1.929  29.813  0.00  0.00    +0.105 A 
ATOM      6  N   UNL A   1     -26.547  -2.215  30.186  0.00  0.00    -0.211 NA
ATOM      7  N   UNL A   1     -24.275  -1.733  30.094  0.00  0.00    -0.204 NA
ENDROOT
BRANCH   2   8
ATOM      8  N   UNL A   1     -27.174   1.056  27.851  0.00  0.00    -0.293 N 
ATOM      9  C   UNL A   1     -27.081   1.047  26.478  0.00  0.00    +0.092 C 
ATOM     10  C   UNL A   1     -27.086   2.135  25.730  0.00  0.00    +0.021 C 
ATOM     11  C   UNL A   1     -27.407   2.284  28.451  0.00  0.00    +0.092 C 
ATOM     12  C   UNL A   1     -27.449   3.488  27.743  0.00  0.00    +0.021 C 
ATOM     13  C   UNL A   1     -27.340   3.464  26.317  0.00  0.00    +0.004 C 
ENDBRANCH   2   8
BRANCH   7  14
ATOM     14  C   UNL A   1     -23.282  -0.784  30.346  0.00  0.00    +0.115 C 
ATOM     15  C   UNL A   1     -23.484   0.228  31.230  0.00  0.00    +0.025 C 
ENDBRANCH   7  14
TORSDOF 2
