REMARK  Name = No_845-gen_results/8p0m/2024-11-26-14-13-15/
REMARK  6 active torsions:
REMARK  status: ('A' for Active; 'I' for Inactive)
REMARK    1  A    between atoms: C_6  and  C_24
REMARK    2  A    between atoms: C_7  and  C_10
REMARK    3  A    between atoms: C_10  and  C_11
REMARK    4  A    between atoms: N_22  and  C_23
REMARK    5  A    between atoms: C_26  and  C_32
REMARK    6  A    between atoms: C_33  and  C_34
REMARK                            x       y       z     vdW  Elec       q    Type
REMARK                         _______ _______ _______ _____ _____    ______ ____
ROOT
ATOM      1  C   UNL A   1     -28.016  -0.814  28.878  0.00  0.00    +0.001 A 
ATOM      2  C   UNL A   1     -28.469  -0.785  29.829  0.00  0.00    +0.000 A 
ATOM      3  C   UNL A   1     -28.182   0.428  28.113  0.00  0.00    +0.017 A 
ATOM      4  C   UNL A   1     -28.984   1.415  28.515  0.00  0.00    +0.056 A 
ATOM      5  C   UNL A   1     -29.380   0.138  30.461  0.00  0.00    +0.001 A 
ATOM      6  C   UNL A   1     -29.541   1.274  29.724  0.00  0.00    +0.014 A 
ATOM      7  C   UNL A   1     -27.445   0.487  26.773  0.00  0.00    +0.040 C 
ATOM      8  C   UNL A   1     -27.863   0.805  25.756  0.00  0.00    +0.004 C 
ATOM      9  C   UNL A   1     -29.271   1.143  25.669  0.00  0.00    +0.014 A 
ATOM     10  C   UNL A   1     -29.810   1.422  24.348  0.00  0.00    +0.001 A 
ATOM     11  C   UNL A   1     -31.154   1.734  24.238  0.00  0.00    +0.000 A 
ATOM     12  C   UNL A   1     -31.948   1.876  25.337  0.00  0.00    +0.001 A 
ATOM     13  C   UNL A   1     -31.453   1.621  26.578  0.00  0.00    +0.015 A 
ATOM     14  C   UNL A   1     -30.162   1.282  26.775  0.00  0.00    +0.056 A 
ATOM     15  N   UNL A   1     -29.729   1.179  28.042  0.00  0.00    -0.264 N 
ENDROOT
BRANCH   6  16
ATOM     16  C   UNL A   1     -30.136   2.406  30.258  0.00  0.00    +0.001 A 
ATOM     17  C   UNL A   1     -29.384   3.311  31.093  0.00  0.00    +0.000 A 
ATOM     18  C   UNL A   1     -31.523   2.742  30.154  0.00  0.00    +0.000 A 
ATOM     19  C   UNL A   1     -32.095   3.874  30.684  0.00  0.00    +0.000 A 
ATOM     20  C   UNL A   1     -29.908   4.451  31.685  0.00  0.00    +0.000 A 
ATOM     21  C   UNL A   1     -31.282   4.724  31.495  0.00  0.00    +0.000 A 
ENDBRANCH   6  16
BRANCH   7  22
ATOM     22  C   UNL A   1     -25.967   0.035  26.922  0.00  0.00    +0.196 C 
ATOM     23  O   UNL A   1     -25.220   0.418  25.974  0.00  0.00    -0.287 OA
BRANCH  22  24
ATOM     24  C   UNL A   1     -25.324  -0.201  28.133  0.00  0.00    +0.039 A 
ATOM     25  C   UNL A   1     -24.467   0.550  28.721  0.00  0.00    +0.003 A 
ATOM     26  C   UNL A   1     -23.676   0.253  29.630  0.00  0.00    +0.000 A 
ATOM     27  C   UNL A   1     -23.763  -1.042  30.258  0.00  0.00    +0.000 A 
ATOM     28  C   UNL A   1     -25.326  -1.562  28.707  0.00  0.00    +0.003 A 
ATOM     29  C   UNL A   1     -24.578  -1.928  29.710  0.00  0.00    +0.000 A 
ENDBRANCH  22  24
ENDBRANCH   7  22
BRANCH  15  30
ATOM     30  C   UNL A   1     -31.005   0.120  28.616  0.00  0.00    +0.070 C 
ATOM     31  C   UNL A   1     -31.475  -0.531  27.884  0.00  0.00    +0.016 C 
BRANCH  31  32
ATOM     32  C   UNL A   1     -32.483  -1.528  28.420  0.00  0.00    +0.001 C 
ATOM     33  C   UNL A   1     -33.133  -2.431  27.559  0.00  0.00    +0.000 C 
BRANCH  33  34
ATOM     34  C   UNL A   1     -32.788  -2.417  26.184  0.00  0.00    +0.000 C 
ATOM     35  C   UNL A   1     -31.865  -1.533  25.650  0.00  0.00    +0.000 C 
ENDBRANCH  33  34
ENDBRANCH  31  32
ENDBRANCH  15  30
TORSDOF 6
