MODEL 845
MODEL 1
REMARK VINA RESULT:    -9.453      0.000      0.000
REMARK INTER + INTRA:         -11.745
REMARK INTER:                 -12.217
REMARK INTRA:                   0.472
REMARK UNBOUND:                 0.472
REMARK  Name = No_845-gen_results/8p0m/2024-11-26-14-13-15/
REMARK  6 active torsions:
REMARK  status: ('A' for Active; 'I' for Inactive)
REMARK    1  A    between atoms: C_6  and  C_24
REMARK    2  A    between atoms: C_7  and  C_10
REMARK    3  A    between atoms: C_10  and  C_11
REMARK    4  A    between atoms: N_22  and  C_23
REMARK    5  A    between atoms: C_26  and  C_32
REMARK    6  A    between atoms: C_33  and  C_34
REMARK                            x       y       z     vdW  Elec       q    Type
REMARK                         _______ _______ _______ _____ _____    ______ ____
ROOT
ATOM      1  C   UNL A   1     -26.985   1.221  28.593  0.00  0.00    +0.001 A 
ATOM      2  C   UNL A   1     -27.374   0.524  29.281  0.00  0.00    +0.000 A 
ATOM      3  C   UNL A   1     -25.917   0.673  27.746  0.00  0.00    +0.017 A 
ATOM      4  C   UNL A   1     -25.377  -0.527  27.962  0.00  0.00    +0.056 A 
ATOM      5  C   UNL A   1     -26.952  -0.790  29.701  0.00  0.00    +0.001 A 
ATOM      6  C   UNL A   1     -25.944  -1.271  28.919  0.00  0.00    +0.014 A 
ATOM      7  C   UNL A   1     -25.395   1.604  26.649  0.00  0.00    +0.040 C 
ATOM      8  C   UNL A   1     -24.306   1.849  26.397  0.00  0.00    +0.004 C 
ATOM      9  C   UNL A   1     -23.264   1.278  27.229  0.00  0.00    +0.014 A 
ATOM     10  C   UNL A   1     -21.897   1.700  26.971  0.00  0.00    +0.001 A 
ATOM     11  C   UNL A   1     -20.888   1.178  27.761  0.00  0.00    +0.000 A 
ATOM     12  C   UNL A   1     -21.135   0.220  28.699  0.00  0.00    +0.001 A 
ATOM     13  C   UNL A   1     -22.410  -0.185  28.946  0.00  0.00    +0.015 A 
ATOM     14  C   UNL A   1     -23.458   0.293  28.243  0.00  0.00    +0.056 A 
ATOM     15  N   UNL A   1     -24.662  -0.260  28.464  0.00  0.00    -0.264 N 
ENDROOT
BRANCH   6  16
ATOM     16  C   UNL A   1     -25.576  -2.607  28.952  0.00  0.00    +0.001 A 
ATOM     17  C   UNL A   1     -26.391  -3.581  29.637  0.00  0.00    +0.000 A 
ATOM     18  C   UNL A   1     -24.351  -3.143  28.443  0.00  0.00    +0.000 A 
ATOM     19  C   UNL A   1     -24.005  -4.473  28.478  0.00  0.00    +0.000 A 
ATOM     20  C   UNL A   1     -26.084  -4.930  29.738  0.00  0.00    +0.000 A 
ATOM     21  C   UNL A   1     -24.869  -5.376  29.170  0.00  0.00    +0.000 A 
ENDBRANCH   6  16
BRANCH   7  22
ATOM     22  C   UNL A   1     -26.563   2.244  25.851  0.00  0.00    +0.196 C 
ATOM     23  O   UNL A   1     -26.459   3.499  25.716  0.00  0.00    -0.287 OA
BRANCH  22  24
ATOM     24  C   UNL A   1     -27.307   1.597  24.869  0.00  0.00    +0.039 A 
ATOM     25  C   UNL A   1     -28.255   2.086  24.159  0.00  0.00    +0.003 A 
ATOM     26  C   UNL A   1     -29.114   1.482  23.497  0.00  0.00    +0.000 A 
ATOM     27  C   UNL A   1     -29.019   0.052  23.339  0.00  0.00    +0.000 A 
ATOM     28  C   UNL A   1     -27.287   0.122  24.794  0.00  0.00    +0.003 A 
ATOM     29  C   UNL A   1     -28.108  -0.579  24.062  0.00  0.00    +0.000 A 
ENDBRANCH  22  24
ENDBRANCH   7  22
BRANCH  15  30
ATOM     30  C   UNL A   1     -24.645  -0.112  30.212  0.00  0.00    +0.070 C 
ATOM     31  C   UNL A   1     -24.344   0.846  30.626  0.00  0.00    +0.016 C 
BRANCH  31  32
ATOM     32  C   UNL A   1     -24.458   0.996  32.130  0.00  0.00    +0.001 C 
ATOM     33  C   UNL A   1     -25.200   2.050  32.695  0.00  0.00    +0.000 C 
BRANCH  33  34
ATOM     34  C   UNL A   1     -25.875   2.941  31.824  0.00  0.00    +0.000 C 
ATOM     35  C   UNL A   1     -27.248   3.121  31.850  0.00  0.00    +0.000 C 
ENDBRANCH  33  34
ENDBRANCH  31  32
ENDBRANCH  15  30
TORSDOF 6
ENDMDL
ENDMDL
