REMARK  Name = No_846-gen_results/8p0m/2024-11-26-14-13-15/
REMARK  6 active torsions:
REMARK  status: ('A' for Active; 'I' for Inactive)
REMARK    1  A    between atoms: C_1  and  C_2
REMARK    2  A    between atoms: C_5  and  C_10
REMARK    3  A    between atoms: C_9  and  C_13
REMARK    4  A    between atoms: C_20  and  C_21
REMARK    5  A    between atoms: C_24  and  C_31
REMARK    6  A    between atoms: C_29  and  C_34
REMARK                            x       y       z     vdW  Elec       q    Type
REMARK                         _______ _______ _______ _____ _____    ______ ____
ROOT
ATOM      1  C   UNL A   1     -30.425  -0.807  30.840  0.00  0.00    +0.056 A 
ATOM      2  C   UNL A   1     -31.390  -1.524  31.529  0.00  0.00    +0.005 A 
ATOM      3  C   UNL A   1     -31.545  -1.539  32.929  0.00  0.00    +0.000 A 
ATOM      4  C   UNL A   1     -30.628  -0.774  33.713  0.00  0.00    +0.000 A 
ATOM      5  C   UNL A   1     -29.499  -0.078  31.785  0.00  0.00    +0.005 A 
ATOM      6  C   UNL A   1     -29.630  -0.077  33.139  0.00  0.00    +0.000 A 
ENDROOT
BRANCH   6   7
ATOM      7  C   UNL A   1     -28.565   0.667  33.798  0.00  0.00    -0.000 A 
ATOM      8  C   UNL A   1     -27.937   1.609  33.710  0.00  0.00    +0.000 A 
ATOM      9  C   UNL A   1     -28.267   2.520  32.564  0.00  0.00    +0.007 A 
ATOM     10  C   UNL A   1     -27.446   3.693  32.334  0.00  0.00    +0.080 A 
ATOM     11  C   UNL A   1     -26.380   3.854  33.207  0.00  0.00    +0.007 A 
ATOM     12  C   UNL A   1     -26.050   3.030  34.198  0.00  0.00    +0.000 A 
ATOM     13  C   UNL A   1     -26.804   1.941  34.411  0.00  0.00    -0.000 A 
ATOM     14  C   UNL A   1     -28.140  -0.192  35.104  0.00  0.00    -0.002 A 
ATOM     15  C   UNL A   1     -26.934  -0.093  35.617  0.00  0.00    +0.013 A 
ATOM     16  C   UNL A   1     -26.334   1.038  35.451  0.00  0.00    -0.002 A 
BRANCH  10  17
ATOM     17  C   UNL A   1     -27.807   4.571  31.237  0.00  0.00    +0.388 C 
ATOM     18  O   UNL A   1     -27.558   5.600  31.284  0.00  0.00    -0.241 OA
ATOM     19  O   UNL A   1     -28.060   3.895  30.047  0.00  0.00    -0.241 OA
ENDBRANCH  10  17
BRANCH  15  20
ATOM     20  C   UNL A   1     -26.568  -0.950  36.738  0.00  0.00    +0.220 C 
ATOM     21  F   UNL A   1     -26.937  -0.579  37.914  0.00  0.00    -0.229 F 
ENDBRANCH  15  20
ENDBRANCH   6   7
BRANCH   1  24
ATOM     22  C   UNL A   1     -28.016  -0.814  28.878  0.00  0.00    +0.272 C 
ATOM     23  N   UNL A   1     -29.215  -0.173  29.013  0.00  0.00    -0.137 NA
ATOM     24  C   UNL A   1     -30.246  -0.774  29.639  0.00  0.00    +0.272 C 
ATOM     25  O   UNL A   1     -31.139  -1.316  28.853  0.00  0.00    -0.268 OA
ATOM     26  O   UNL A   1     -27.888  -1.960  29.377  0.00  0.00    -0.268 OA
BRANCH  22  27
ATOM     27  C   UNL A   1     -27.064  -0.119  28.608  0.00  0.00    +0.056 A 
ATOM     28  C   UNL A   1     -27.001   0.691  27.491  0.00  0.00    +0.005 A 
ATOM     29  C   UNL A   1     -25.855   1.482  27.083  0.00  0.00    +0.007 A 
ATOM     30  C   UNL A   1     -24.690   1.453  27.881  0.00  0.00    +0.080 A 
ATOM     31  C   UNL A   1     -24.738   0.601  29.042  0.00  0.00    +0.007 A 
ATOM     32  C   UNL A   1     -25.823  -0.169  29.389  0.00  0.00    +0.005 A 
BRANCH  30  33
ATOM     33  C   UNL A   1     -23.519   2.203  27.555  0.00  0.00    +0.388 C 
ATOM     34  O   UNL A   1     -23.438   2.795  26.451  0.00  0.00    -0.241 OA
ATOM     35  O   UNL A   1     -22.497   2.276  28.353  0.00  0.00    -0.241 OA
ENDBRANCH  30  33
ENDBRANCH  22  27
ENDBRANCH   1  24
TORSDOF 6
