MODEL 846
MODEL 1
REMARK VINA RESULT:    -8.680      0.000      0.000
REMARK INTER + INTRA:         -13.252
REMARK INTER:                 -11.725
REMARK INTRA:                  -1.528
REMARK UNBOUND:                -1.528
REMARK  Name = No_846-gen_results/8p0m/2024-11-26-14-13-15/
REMARK  6 active torsions:
REMARK  status: ('A' for Active; 'I' for Inactive)
REMARK    1  A    between atoms: C_1  and  C_2
REMARK    2  A    between atoms: C_5  and  C_10
REMARK    3  A    between atoms: C_9  and  C_13
REMARK    4  A    between atoms: C_20  and  C_21
REMARK    5  A    between atoms: C_24  and  C_31
REMARK    6  A    between atoms: C_29  and  C_34
REMARK                            x       y       z     vdW  Elec       q    Type
REMARK                         _______ _______ _______ _____ _____    ______ ____
ROOT
ATOM      1  C   UNL A   1      -9.253 -24.407  21.695  0.00  0.00    +0.056 A 
ATOM      2  C   UNL A   1      -8.336 -23.563  22.301  0.00  0.00    +0.005 A 
ATOM      3  C   UNL A   1      -8.485 -22.170  22.444  0.00  0.00    +0.000 A 
ATOM      4  C   UNL A   1      -9.663 -21.564  21.909  0.00  0.00    +0.000 A 
ATOM      5  C   UNL A   1     -10.428 -23.637  21.139  0.00  0.00    +0.005 A 
ATOM      6  C   UNL A   1     -10.594 -22.292  21.266  0.00  0.00    +0.000 A 
ENDROOT
BRANCH   6   7
ATOM      7  C   UNL A   1     -11.791 -21.815  20.587  0.00  0.00    -0.000 A 
ATOM      8  C   UNL A   1     -12.145 -21.322  19.628  0.00  0.00    +0.000 A 
ATOM      9  C   UNL A   1     -11.094 -21.062  18.589  0.00  0.00    +0.007 A 
ATOM     10  C   UNL A   1     -11.456 -20.350  17.378  0.00  0.00    +0.080 A 
ATOM     11  C   UNL A   1     -12.778 -19.937  17.304  0.00  0.00    +0.007 A 
ATOM     12  C   UNL A   1     -13.708 -20.120  18.237  0.00  0.00    +0.000 A 
ATOM     13  C   UNL A   1     -13.376 -20.774  19.360  0.00  0.00    -0.000 A 
ATOM     14  C   UNL A   1     -13.032 -22.085  21.592  0.00  0.00    -0.002 A 
ATOM     15  C   UNL A   1     -14.124 -21.356  21.531  0.00  0.00    +0.013 A 
ATOM     16  C   UNL A   1     -14.416 -20.860  20.375  0.00  0.00    -0.002 A 
BRANCH  10  17
ATOM     17  C   UNL A   1     -10.425 -20.141  16.379  0.00  0.00    +0.388 C 
ATOM     18  O   UNL A   1     -10.330 -20.821  15.572  0.00  0.00    -0.241 OA
ATOM     19  O   UNL A   1      -9.945 -18.835  16.344  0.00  0.00    -0.241 OA
ENDBRANCH  10  17
BRANCH  15  20
ATOM     20  C   UNL A   1     -15.179 -21.576  22.512  0.00  0.00    +0.220 C 
ATOM     21  F   UNL A   1     -15.360 -20.665  23.404  0.00  0.00    -0.229 F 
ENDBRANCH  15  20
ENDBRANCH   6   7
BRANCH   1  24
ATOM     22  C   UNL A   1      -8.590 -26.903  23.422  0.00  0.00    +0.272 C 
ATOM     23  N   UNL A   1      -8.298 -26.421  22.177  0.00  0.00    -0.137 NA
ATOM     24  C   UNL A   1      -9.161 -25.607  21.538  0.00  0.00    +0.272 C 
ATOM     25  O   UNL A   1      -9.916 -26.186  20.641  0.00  0.00    -0.268 OA
ATOM     26  O   UNL A   1      -9.664 -26.545  23.967  0.00  0.00    -0.268 OA
BRANCH  22  27
ATOM     27  C   UNL A   1      -7.661 -27.346  24.057  0.00  0.00    +0.056 A 
ATOM     28  C   UNL A   1      -6.425 -26.735  24.131  0.00  0.00    +0.005 A 
ATOM     29  C   UNL A   1      -5.259 -27.264  24.814  0.00  0.00    +0.007 A 
ATOM     30  C   UNL A   1      -5.366 -28.504  25.481  0.00  0.00    +0.080 A 
ATOM     31  C   UNL A   1      -6.647 -29.159  25.399  0.00  0.00    +0.007 A 
ATOM     32  C   UNL A   1      -7.728 -28.656  24.715  0.00  0.00    +0.005 A 
BRANCH  30  33
ATOM     33  C   UNL A   1      -4.270 -29.096  26.180  0.00  0.00    +0.388 C 
ATOM     34  O   UNL A   1      -4.480 -29.974  27.051  0.00  0.00    -0.241 OA
ATOM     35  O   UNL A   1      -3.040 -28.735  25.973  0.00  0.00    -0.241 OA
ENDBRANCH  30  33
ENDBRANCH  22  27
ENDBRANCH   1  24
TORSDOF 6
ENDMDL
ENDMDL
