MODEL 847
MODEL 1
REMARK VINA RESULT:    -4.447      0.000      0.000
REMARK INTER + INTRA:          -4.447
REMARK INTER:                  -4.447
REMARK INTRA:                   0.000
REMARK UNBOUND:                 0.000
REMARK  Name = No_847-gen_results/8p0m/2024-11-26-14-13-15/
REMARK  0 active torsions:
REMARK  status: ('A' for Active; 'I' for Inactive)
REMARK                            x       y       z     vdW  Elec       q    Type
REMARK                         _______ _______ _______ _____ _____    ______ ____
ROOT
ATOM      1  C   UNL A   1     -24.024  -4.141  28.782  0.00  0.00    +0.011 A 
ATOM      2  C   UNL A   1     -24.241  -3.007  29.140  0.00  0.00    +0.058 A 
ATOM      3  C   UNL A   1     -25.400  -2.601  29.717  0.00  0.00    +0.011 A 
ATOM      4  C   UNL A   1     -26.418  -3.554  29.913  0.00  0.00    +0.001 A 
ATOM      5  C   UNL A   1     -24.982  -5.186  29.038  0.00  0.00    +0.001 A 
ATOM      6  C   UNL A   1     -26.176  -4.826  29.589  0.00  0.00    +0.000 A 
ATOM      7 CL   UNL A   1     -23.045  -1.754  28.953  0.00  0.00    -0.082 Cl
ENDROOT
TORSDOF 0
ENDMDL
ENDMDL
