REMARK  Name = No_848-gen_results/8p0m/2024-11-26-14-13-15/
REMARK  4 active torsions:
REMARK  status: ('A' for Active; 'I' for Inactive)
REMARK    1  A    between atoms: C_3  and  C_4
REMARK    2  A    between atoms: C_4  and  C_8
REMARK    3  A    between atoms: C_4  and  C_15
REMARK    4  A    between atoms: C_8  and  C_9
REMARK                            x       y       z     vdW  Elec       q    Type
REMARK                         _______ _______ _______ _____ _____    ______ ____
ROOT
ATOM      1  C   UNL A   1     -26.910   0.849  27.420  0.00  0.00    +0.027 C 
ENDROOT
BRANCH   1   4
ATOM      2  C   UNL A   1     -28.016  -0.814  28.878  0.00  0.00    -0.004 A 
ATOM      3  C   UNL A   1     -28.469  -0.785  29.829  0.00  0.00    -0.000 A 
ATOM      4  C   UNL A   1     -27.087   0.290  28.638  0.00  0.00    -0.022 A 
ATOM      5  C   UNL A   1     -27.886  -0.505  31.094  0.00  0.00    -0.000 A 
ATOM      6  C   UNL A   1     -26.929   0.593  31.074  0.00  0.00    -0.000 A 
ATOM      7  C   UNL A   1     -26.523   0.955  29.801  0.00  0.00    -0.004 A 
ENDBRANCH   1   4
BRANCH   1   8
ATOM      8  C   UNL A   1     -27.863   1.615  26.738  0.00  0.00    +0.005 C 
ATOM      9  C   UNL A   1     -28.254   2.843  27.216  0.00  0.00    +0.000 C 
ENDBRANCH   1   8
BRANCH   1  10
ATOM     10  C   UNL A   1     -25.721   0.506  26.863  0.00  0.00    +0.031 C 
BRANCH  10  11
ATOM     11  C   UNL A   1     -24.632   1.194  27.006  0.00  0.00    -0.022 A 
ATOM     12  C   UNL A   1     -24.357   2.292  26.547  0.00  0.00    -0.004 A 
ATOM     13  C   UNL A   1     -23.099   3.008  26.753  0.00  0.00    -0.000 A 
ATOM     14  C   UNL A   1     -23.499   0.700  27.913  0.00  0.00    -0.004 A 
ATOM     15  C   UNL A   1     -22.328   1.354  28.140  0.00  0.00    -0.000 A 
ATOM     16  C   UNL A   1     -22.173   2.594  27.496  0.00  0.00    -0.000 A 
ENDBRANCH  10  11
ENDBRANCH   1  10
TORSDOF 4
