MODEL 848
MODEL 1
REMARK VINA RESULT:    -7.178      0.000      0.000
REMARK INTER + INTRA:          -9.872
REMARK INTER:                  -8.857
REMARK INTRA:                  -1.016
REMARK UNBOUND:                -1.016
REMARK  Name = No_848-gen_results/8p0m/2024-11-26-14-13-15/
REMARK  4 active torsions:
REMARK  status: ('A' for Active; 'I' for Inactive)
REMARK    1  A    between atoms: C_3  and  C_4
REMARK    2  A    between atoms: C_4  and  C_8
REMARK    3  A    between atoms: C_4  and  C_15
REMARK    4  A    between atoms: C_8  and  C_9
REMARK                            x       y       z     vdW  Elec       q    Type
REMARK                         _______ _______ _______ _____ _____    ______ ____
ROOT
ATOM      1  C   UNL A   1     -23.225  -0.714  29.396  0.00  0.00    +0.027 C 
ENDROOT
BRANCH   1   4
ATOM      2  C   UNL A   1     -24.428   0.437  27.568  0.00  0.00    -0.004 A 
ATOM      3  C   UNL A   1     -24.164   0.792  26.612  0.00  0.00    -0.000 A 
ATOM      4  C   UNL A   1     -23.285   0.263  28.464  0.00  0.00    -0.022 A 
ATOM      5  C   UNL A   1     -23.250   1.819  26.255  0.00  0.00    -0.000 A 
ATOM      6  C   UNL A   1     -22.018   1.810  27.032  0.00  0.00    -0.000 A 
ATOM      7  C   UNL A   1     -22.082   1.023  28.169  0.00  0.00    -0.004 A 
ENDBRANCH   1   4
BRANCH   1   8
ATOM      8  C   UNL A   1     -22.986  -0.513  30.761  0.00  0.00    +0.005 C 
ATOM      9  C   UNL A   1     -23.827   0.269  31.516  0.00  0.00    +0.000 C 
ENDBRANCH   1   8
BRANCH   1  10
ATOM     10  C   UNL A   1     -23.324  -1.953  28.851  0.00  0.00    +0.031 C 
BRANCH  10  11
ATOM     11  C   UNL A   1     -24.272  -2.791  29.132  0.00  0.00    -0.022 A 
ATOM     12  C   UNL A   1     -25.392  -2.561  29.560  0.00  0.00    -0.004 A 
ATOM     13  C   UNL A   1     -26.412  -3.566  29.855  0.00  0.00    -0.000 A 
ATOM     14  C   UNL A   1     -24.107  -4.291  28.858  0.00  0.00    -0.004 A 
ATOM     15  C   UNL A   1     -25.045  -5.245  29.102  0.00  0.00    -0.000 A 
ATOM     16  C   UNL A   1     -26.268  -4.795  29.630  0.00  0.00    -0.000 A 
ENDBRANCH  10  11
ENDBRANCH   1  10
TORSDOF 4
ENDMDL
ENDMDL
