MODEL 849
MODEL 1
REMARK VINA RESULT:    -5.077      0.000      0.000
REMARK INTER + INTRA:          -5.077
REMARK INTER:                  -5.077
REMARK INTRA:                   0.000
REMARK UNBOUND:                 0.000
REMARK  Name = No_849-gen_results/8p0m/2024-11-26-14-13-15/
REMARK  0 active torsions:
REMARK  status: ('A' for Active; 'I' for Inactive)
REMARK                            x       y       z     vdW  Elec       q    Type
REMARK                         _______ _______ _______ _____ _____    ______ ____
ROOT
ATOM      1  C   UNL A   1     -10.114  -9.850  18.231  0.00  0.00    +0.072 A 
ATOM      2  C   UNL A   1      -9.094 -10.461  18.011  0.00  0.00    +0.143 A 
ATOM      3  C   UNL A   1      -8.067 -10.505  18.947  0.00  0.00    +0.030 A 
ATOM      4  C   UNL A   1      -8.166  -9.784  20.190  0.00  0.00    +0.006 A 
ATOM      5  C   UNL A   1      -9.369  -9.084  20.352  0.00  0.00    +0.042 A 
ATOM      6  C   UNL A   1     -10.302  -9.061  19.429  0.00  0.00    +0.198 A 
ATOM      7  F   UNL A   1      -8.847 -11.119  16.877  0.00  0.00    -0.204 F 
ATOM      8  O   UNL A   1     -11.435  -8.320  19.671  0.00  0.00    -0.286 OA
ENDROOT
TORSDOF 0
ENDMDL
ENDMDL
