MODEL 84
MODEL 1
REMARK VINA RESULT:    -5.249      0.000      0.000
REMARK INTER + INTRA:          -5.249
REMARK INTER:                  -5.249
REMARK INTRA:                   0.000
REMARK UNBOUND:                 0.000
REMARK  Name = No_84-gen_results/8p0m/2024-11-26-14-13-15/
REMARK  0 active torsions:
REMARK  status: ('A' for Active; 'I' for Inactive)
REMARK                            x       y       z     vdW  Elec       q    Type
REMARK                         _______ _______ _______ _____ _____    ______ ____
ROOT
ATOM      1  C   UNL A   1     -25.439  -2.489  30.125  0.00  0.00    +0.019 A 
ATOM      2  C   UNL A   1     -25.752  -1.484  30.177  0.00  0.00    +0.099 A 
ATOM      3  C   UNL A   1     -26.474  -3.465  29.933  0.00  0.00    +0.002 A 
ATOM      4  C   UNL A   1     -26.143  -4.874  29.638  0.00  0.00    +0.000 A 
ATOM      5  C   UNL A   1     -24.949  -5.168  28.954  0.00  0.00    +0.000 A 
ATOM      6  C   UNL A   1     -24.015  -4.134  28.738  0.00  0.00    +0.000 A 
ATOM      7  C   UNL A   1     -24.265  -2.880  29.157  0.00  0.00    +0.003 A 
ATOM      8  N   UNL A   1     -24.742  -0.440  30.379  0.00  0.00    -0.242 NA
ATOM      9  C   UNL A   1     -23.246  -1.873  29.030  0.00  0.00    +0.021 A 
ATOM     10  C   UNL A   1     -23.542  -0.611  29.699  0.00  0.00    +0.099 A 
ENDROOT
TORSDOF 0
ENDMDL
ENDMDL
