REMARK  Name = No_85-gen_results/8p0m/2024-11-26-14-13-15/
REMARK  3 active torsions:
REMARK  status: ('A' for Active; 'I' for Inactive)
REMARK    1  A    between atoms: C_3  and  C_4
REMARK    2  A    between atoms: C_4  and  C_5
REMARK    3  A    between atoms: C_5  and  C_6
REMARK                            x       y       z     vdW  Elec       q    Type
REMARK                         _______ _______ _______ _____ _____    ______ ____
ROOT
ATOM      1  C   UNL A   1     -26.439   0.833  26.614  0.00  0.00    +0.027 C 
ENDROOT
BRANCH   1   2
ATOM      2  C   UNL A   1     -25.500   1.429  27.346  0.00  0.00    -0.022 A 
ATOM      3  C   UNL A   1     -24.411   1.594  27.502  0.00  0.00    -0.004 A 
ATOM      4  C   UNL A   1     -23.750   2.260  28.584  0.00  0.00    -0.000 A 
ATOM      5  C   UNL A   1     -24.273   1.976  29.664  0.00  0.00    -0.000 A 
ATOM      6  C   UNL A   1     -25.630   1.748  29.892  0.00  0.00    -0.000 A 
ATOM      7  C   UNL A   1     -26.184   1.245  28.736  0.00  0.00    -0.004 A 
ENDBRANCH   1   2
BRANCH   1   8
ATOM      8  C   UNL A   1     -27.442   0.510  26.795  0.00  0.00    +0.013 C 
BRANCH   8  11
ATOM      9  C   UNL A   1     -28.016  -0.814  28.878  0.00  0.00    -0.022 C 
ATOM     10  C   UNL A   1     -28.469  -0.785  29.829  0.00  0.00    -0.005 C 
ATOM     11  C   UNL A   1     -28.196   0.348  28.055  0.00  0.00    +0.044 C 
ATOM     12  C   UNL A   1     -29.294  -0.291  30.307  0.00  0.00    -0.005 C 
ATOM     13  C   UNL A   1     -29.194   0.874  28.752  0.00  0.00    -0.022 C 
ENDBRANCH   8  11
ENDBRANCH   1   8
TORSDOF 3
