MODEL 850
MODEL 1
REMARK VINA RESULT:    -5.399      0.000      0.000
REMARK INTER + INTRA:          -5.943
REMARK INTER:                  -5.715
REMARK INTRA:                  -0.229
REMARK UNBOUND:                -0.229
REMARK  Name = No_850-gen_results/8p0m/2024-11-26-14-13-15/
REMARK  1 active torsions:
REMARK  status: ('A' for Active; 'I' for Inactive)
REMARK    1  A    between atoms: C_3  and  C_4
REMARK                            x       y       z     vdW  Elec       q    Type
REMARK                         _______ _______ _______ _____ _____    ______ ____
ROOT
ATOM      1  C   UNL A   1     -26.443  -3.535  29.894  0.00  0.00    -0.000 A 
ATOM      2  C   UNL A   1     -25.724  -2.621  29.563  0.00  0.00    -0.000 A 
ATOM      3  C   UNL A   1     -24.517  -2.785  28.965  0.00  0.00    -0.004 A 
ATOM      4  C   UNL A   1     -26.038  -4.923  29.602  0.00  0.00    -0.000 A 
ATOM      5  C   UNL A   1     -24.859  -5.172  29.044  0.00  0.00    -0.000 A 
ATOM      6  C   UNL A   1     -24.048  -4.106  28.682  0.00  0.00    -0.000 A 
ENDROOT
BRANCH   3   7
ATOM      7  C   UNL A   1     -23.625  -1.678  28.552  0.00  0.00    -0.026 C 
ATOM      8  C   UNL A   1     -22.677  -1.212  29.522  0.00  0.00    -0.030 C 
ATOM      9  C   UNL A   1     -21.812  -0.145  29.240  0.00  0.00    +0.030 C 
ATOM     10  C   UNL A   1     -24.219  -0.362  28.162  0.00  0.00    +0.031 C 
ENDBRANCH   3   7
TORSDOF 1
ENDMDL
ENDMDL
