REMARK  Name = No_851-gen_results/8p0m/2024-11-26-14-13-15/
REMARK  3 active torsions:
REMARK  status: ('A' for Active; 'I' for Inactive)
REMARK    1  A    between atoms: C_5  and  C_10
REMARK    2  A    between atoms: C_7  and  O_8
REMARK    3  A    between atoms: O_8  and  C_9
REMARK                            x       y       z     vdW  Elec       q    Type
REMARK                         _______ _______ _______ _____ _____    ______ ____
ROOT
ATOM      1  F   UNL A   1     -28.073  -1.254  28.532  0.00  0.00    -0.201 F 
ATOM      2  C   UNL A   1     -27.359  -0.379  28.722  0.00  0.00    +0.174 A 
ATOM      3  C   UNL A   1     -26.332  -0.644  29.452  0.00  0.00    +0.033 A 
ATOM      4  C   UNL A   1     -25.256   0.320  29.782  0.00  0.00    +0.009 A 
ATOM      5  C   UNL A   1     -25.424   1.627  29.203  0.00  0.00    +0.083 A 
ATOM      6  C   UNL A   1     -26.526   1.825  28.403  0.00  0.00    +0.046 A 
ATOM      7  C   UNL A   1     -27.451   0.860  28.136  0.00  0.00    +0.173 A 
ENDROOT
BRANCH   5   8
ATOM      8  C   UNL A   1     -24.400   2.610  29.554  0.00  0.00    +0.388 C 
ATOM      9  O   UNL A   1     -23.182   2.277  29.619  0.00  0.00    -0.241 OA
ATOM     10  O   UNL A   1     -24.780   3.833  29.721  0.00  0.00    -0.241 OA
ENDBRANCH   5   8
BRANCH   7  11
ATOM     11  O   UNL A   1     -28.470   1.146  27.348  0.00  0.00    -0.451 OA
BRANCH  11  12
ATOM     12  C   UNL A   1     -28.285   1.140  26.005  0.00  0.00    +0.145 A 
ATOM     13  C   UNL A   1     -29.246   0.503  25.259  0.00  0.00    +0.037 A 
ATOM     14  C   UNL A   1     -27.203   1.798  25.365  0.00  0.00    +0.037 A 
ATOM     15  C   UNL A   1     -29.056   0.397  23.834  0.00  0.00    +0.003 A 
ATOM     16  C   UNL A   1     -27.985   1.083  23.291  0.00  0.00    +0.000 A 
ATOM     17  C   UNL A   1     -26.998   1.723  24.089  0.00  0.00    +0.003 A 
ENDBRANCH  11  12
ENDBRANCH   7  11
TORSDOF 3
