MODEL 851
MODEL 1
REMARK VINA RESULT:    -6.643      0.000      0.000
REMARK INTER + INTRA:          -8.225
REMARK INTER:                  -7.808
REMARK INTRA:                  -0.417
REMARK UNBOUND:                -0.417
REMARK  Name = No_851-gen_results/8p0m/2024-11-26-14-13-15/
REMARK  3 active torsions:
REMARK  status: ('A' for Active; 'I' for Inactive)
REMARK    1  A    between atoms: C_5  and  C_10
REMARK    2  A    between atoms: C_7  and  O_8
REMARK    3  A    between atoms: O_8  and  C_9
REMARK                            x       y       z     vdW  Elec       q    Type
REMARK                         _______ _______ _______ _____ _____    ______ ____
ROOT
ATOM      1  F   UNL A   1     -22.176  -0.872  30.520  0.00  0.00    -0.201 F 
ATOM      2  C   UNL A   1     -22.666  -0.338  29.633  0.00  0.00    +0.174 A 
ATOM      3  C   UNL A   1     -21.875   0.358  28.893  0.00  0.00    +0.033 A 
ATOM      4  C   UNL A   1     -22.283   1.086  27.669  0.00  0.00    +0.009 A 
ATOM      5  C   UNL A   1     -23.676   0.956  27.331  0.00  0.00    +0.083 A 
ATOM      6  C   UNL A   1     -24.452   0.166  28.147  0.00  0.00    +0.046 A 
ATOM      7  C   UNL A   1     -23.974  -0.490  29.242  0.00  0.00    +0.173 A 
ENDROOT
BRANCH   5   8
ATOM      8  C   UNL A   1     -24.113   1.706  26.154  0.00  0.00    +0.388 C 
ATOM      9  O   UNL A   1     -25.280   2.190  26.095  0.00  0.00    -0.241 OA
ATOM     10  O   UNL A   1     -23.244   1.912  25.221  0.00  0.00    -0.241 OA
ENDBRANCH   5   8
BRANCH   7  11
ATOM     11  O   UNL A   1     -24.797  -1.233  29.958  0.00  0.00    -0.451 OA
BRANCH  11  12
ATOM     12  C   UNL A   1     -24.958  -2.539  29.631  0.00  0.00    +0.145 A 
ATOM     13  C   UNL A   1     -26.189  -3.088  29.894  0.00  0.00    +0.037 A 
ATOM     14  C   UNL A   1     -23.952  -3.311  28.994  0.00  0.00    +0.037 A 
ATOM     15  C   UNL A   1     -26.386  -4.493  29.640  0.00  0.00    +0.003 A 
ATOM     16  C   UNL A   1     -25.361  -5.166  29.002  0.00  0.00    +0.000 A 
ATOM     17  C   UNL A   1     -24.092  -4.576  28.754  0.00  0.00    +0.003 A 
ENDBRANCH  11  12
ENDBRANCH   7  11
TORSDOF 3
ENDMDL
ENDMDL
