REMARK  Name = No_852-gen_results/8p0m/2024-11-26-14-13-15/
REMARK  2 active torsions:
REMARK  status: ('A' for Active; 'I' for Inactive)
REMARK    1  A    between atoms: N_15  and  C_16
REMARK    2  A    between atoms: C_27  and  C_29
REMARK                            x       y       z     vdW  Elec       q    Type
REMARK                         _______ _______ _______ _____ _____    ______ ____
ROOT
ATOM      1  C   UNL A   1     -26.659   3.980  32.853  0.00  0.00    +0.106 C 
ATOM      2  C   UNL A   1     -26.950   3.679  34.153  0.00  0.00    -0.004 A 
ATOM      3  C   UNL A   1     -26.938   2.583  34.638  0.00  0.00    -0.003 A 
ATOM      4  C   UNL A   1     -27.242   2.231  36.017  0.00  0.00    -0.000 A 
ATOM      5  C   UNL A   1     -27.500   3.314  36.860  0.00  0.00    -0.000 A 
ATOM      6  C   UNL A   1     -27.464   4.612  36.407  0.00  0.00    -0.000 A 
ATOM      7  C   UNL A   1     -27.172   4.850  35.090  0.00  0.00    -0.003 A 
ATOM      8  C   UNL A   1     -27.107   6.221  34.576  0.00  0.00    -0.004 C 
ATOM      9  C   UNL A   1     -27.370   6.632  33.608  0.00  0.00    -0.022 C 
ATOM     10  C   UNL A   1     -28.319   6.054  32.711  0.00  0.00    +0.046 C 
ATOM     11  C   UNL A   1     -27.547   4.886  32.043  0.00  0.00    +0.034 C 
ENDROOT
BRANCH   1  26
ATOM     12  C   UNL A   1     -28.016  -0.814  28.878  0.00  0.00    -0.000 A 
ATOM     13  C   UNL A   1     -28.469  -0.785  29.829  0.00  0.00    +0.000 A 
ATOM     14  C   UNL A   1     -27.087   0.290  28.638  0.00  0.00    -0.003 A 
ATOM     15  C   UNL A   1     -26.252   0.411  27.422  0.00  0.00    +0.001 C 
ATOM     16  C   UNL A   1     -28.391   0.104  30.980  0.00  0.00    +0.004 A 
ATOM     17  C   UNL A   1     -27.533   1.167  30.787  0.00  0.00    +0.051 A 
ATOM     18  C   UNL A   1     -26.828   1.256  29.645  0.00  0.00    -0.005 A 
ATOM     19  C   UNL A   1     -25.138   0.675  27.231  0.00  0.00    +0.011 C 
ATOM     20  C   UNL A   1     -24.316   0.867  28.442  0.00  0.00    +0.054 C 
ATOM     21  C   UNL A   1     -24.495   1.511  29.556  0.00  0.00    -0.002 C 
ATOM     22  C   UNL A   1     -25.526   1.822  30.010  0.00  0.00    +0.122 C 
ATOM     23 CL   UNL A   1     -22.519   0.812  27.878  0.00  0.00    -0.083 Cl
ATOM     24  C   UNL A   1     -25.578   2.880  31.154  0.00  0.00    +0.240 C 
ATOM     25  O   UNL A   1     -24.836   3.728  31.272  0.00  0.00    -0.274 OA
ATOM     26  N   UNL A   1     -26.760   2.980  31.884  0.00  0.00    -0.224 N 
ATOM     27  C   UNL A   1     -27.810   2.167  31.789  0.00  0.00    +0.255 C 
ATOM     28  O   UNL A   1     -28.890   2.507  32.180  0.00  0.00    -0.270 OA
ENDBRANCH   1  26
BRANCH  10  29
ATOM     29  C   UNL A   1     -29.113   6.904  31.780  0.00  0.00    -0.018 A 
ATOM     30  C   UNL A   1     -30.029   6.477  31.167  0.00  0.00    +0.007 A 
ATOM     31  C   UNL A   1     -30.846   7.272  30.273  0.00  0.00    +0.057 A 
ATOM     32  C   UNL A   1     -30.527   8.637  30.207  0.00  0.00    +0.011 A 
ATOM     33  C   UNL A   1     -29.493   9.138  30.895  0.00  0.00    +0.001 A 
ATOM     34  C   UNL A   1     -28.747   8.336  31.738  0.00  0.00    -0.004 A 
ATOM     35 CL   UNL A   1     -32.127   6.600  29.429  0.00  0.00    -0.082 Cl
ENDBRANCH  10  29
TORSDOF 2
