MODEL 852
MODEL 1
REMARK VINA RESULT:    -9.942      0.000      0.000
REMARK INTER + INTRA:         -11.036
REMARK INTER:                 -11.104
REMARK INTRA:                   0.068
REMARK UNBOUND:                 0.068
REMARK  Name = No_852-gen_results/8p0m/2024-11-26-14-13-15/
REMARK  2 active torsions:
REMARK  status: ('A' for Active; 'I' for Inactive)
REMARK    1  A    between atoms: N_15  and  C_16
REMARK    2  A    between atoms: C_27  and  C_29
REMARK                            x       y       z     vdW  Elec       q    Type
REMARK                         _______ _______ _______ _____ _____    ______ ____
ROOT
ATOM      1  C   UNL A   1     -25.310   1.085  27.658  0.00  0.00    +0.106 C 
ATOM      2  C   UNL A   1     -24.136   1.445  27.060  0.00  0.00    -0.004 A 
ATOM      3  C   UNL A   1     -24.029   2.145  26.093  0.00  0.00    -0.003 A 
ATOM      4  C   UNL A   1     -22.795   2.546  25.434  0.00  0.00    -0.000 A 
ATOM      5  C   UNL A   1     -21.623   2.116  26.061  0.00  0.00    -0.000 A 
ATOM      6  C   UNL A   1     -21.649   1.370  27.216  0.00  0.00    -0.000 A 
ATOM      7  C   UNL A   1     -22.859   1.035  27.765  0.00  0.00    -0.003 A 
ATOM      8  C   UNL A   1     -22.925   0.257  29.005  0.00  0.00    -0.004 C 
ATOM      9  C   UNL A   1     -23.637  -0.488  29.342  0.00  0.00    -0.022 C 
ATOM     10  C   UNL A   1     -24.441  -1.292  28.477  0.00  0.00    +0.046 C 
ATOM     11  C   UNL A   1     -25.588  -0.345  28.036  0.00  0.00    +0.034 C 
ENDROOT
BRANCH   1  26
ATOM     12  C   UNL A   1     -30.226   0.754  23.614  0.00  0.00    -0.000 A 
ATOM     13  C   UNL A   1     -29.249   0.581  23.258  0.00  0.00    +0.000 A 
ATOM     14  C   UNL A   1     -30.280   1.086  25.037  0.00  0.00    -0.003 A 
ATOM     15  C   UNL A   1     -31.522   1.474  25.744  0.00  0.00    +0.001 C 
ATOM     16  C   UNL A   1     -27.919   0.592  23.853  0.00  0.00    +0.004 A 
ATOM     17  C   UNL A   1     -27.930   0.889  25.200  0.00  0.00    +0.051 A 
ATOM     18  C   UNL A   1     -29.092   1.192  25.807  0.00  0.00    -0.005 A 
ATOM     19  C   UNL A   1     -31.792   2.309  26.502  0.00  0.00    +0.011 C 
ATOM     20  C   UNL A   1     -30.709   3.267  26.801  0.00  0.00    +0.054 C 
ATOM     21  C   UNL A   1     -29.445   3.137  27.075  0.00  0.00    -0.002 C 
ATOM     22  C   UNL A   1     -28.777   2.217  26.807  0.00  0.00    +0.122 C 
ATOM     23 CL   UNL A   1     -31.521   4.739  27.652  0.00  0.00    -0.083 Cl
ATOM     24  C   UNL A   1     -27.388   2.045  27.494  0.00  0.00    +0.240 C 
ATOM     25  O   UNL A   1     -27.147   2.401  28.542  0.00  0.00    -0.274 OA
ATOM     26  N   UNL A   1     -26.495   1.142  26.921  0.00  0.00    -0.224 N 
ATOM     27  C   UNL A   1     -26.659   0.505  25.764  0.00  0.00    +0.255 C 
ATOM     28  O   UNL A   1     -26.036  -0.486  25.512  0.00  0.00    -0.270 OA
ENDBRANCH   1  26
BRANCH  10  29
ATOM     29  C   UNL A   1     -24.869  -2.661  28.879  0.00  0.00    -0.018 A 
ATOM     30  C   UNL A   1     -25.910  -2.867  29.399  0.00  0.00    +0.007 A 
ATOM     31  C   UNL A   1     -26.379  -4.183  29.781  0.00  0.00    +0.057 A 
ATOM     32  C   UNL A   1     -25.536  -5.253  29.441  0.00  0.00    +0.011 A 
ATOM     33  C   UNL A   1     -24.354  -5.039  28.850  0.00  0.00    +0.001 A 
ATOM     34  C   UNL A   1     -23.955  -3.762  28.503  0.00  0.00    -0.004 A 
ATOM     35 CL   UNL A   1     -27.864  -4.401  30.523  0.00  0.00    -0.082 Cl
ENDBRANCH  10  29
TORSDOF 2
ENDMDL
ENDMDL
