REMARK  Name = No_853-gen_results/8p0m/2024-11-26-14-13-15/
REMARK  0 active torsions:
REMARK  status: ('A' for Active; 'I' for Inactive)
REMARK                            x       y       z     vdW  Elec       q    Type
REMARK                         _______ _______ _______ _____ _____    ______ ____
ROOT
ATOM      1  C   UNL A   1     -28.016  -0.814  28.878  0.00  0.00    +0.125 C 
ATOM      2  C   UNL A   1     -27.064  -0.119  28.608  0.00  0.00    +0.030 C 
ATOM      3  C   UNL A   1     -26.972   0.714  27.506  0.00  0.00    +0.033 C 
ATOM      4  C   UNL A   1     -25.821   1.491  27.116  0.00  0.00    +0.005 C 
ATOM      5  C   UNL A   1     -24.656   1.424  27.918  0.00  0.00    +0.001 C 
ATOM      6  C   UNL A   1     -24.685   0.590  29.066  0.00  0.00    +0.005 C 
ATOM      7  C   UNL A   1     -25.810  -0.127  29.334  0.00  0.00    +0.033 C 
ATOM      8  O   UNL A   1     -27.954  -1.814  29.758  0.00  0.00    -0.232 OA
ENDROOT
TORSDOF 0
