MODEL 853
MODEL 1
REMARK VINA RESULT:    -4.643      0.000      0.000
REMARK INTER + INTRA:          -4.643
REMARK INTER:                  -4.643
REMARK INTRA:                   0.000
REMARK UNBOUND:                 0.000
REMARK  Name = No_853-gen_results/8p0m/2024-11-26-14-13-15/
REMARK  0 active torsions:
REMARK  status: ('A' for Active; 'I' for Inactive)
REMARK                            x       y       z     vdW  Elec       q    Type
REMARK                         _______ _______ _______ _____ _____    ______ ____
ROOT
ATOM      1  C   UNL A   1     -23.357  -1.916  28.938  0.00  0.00    +0.125 C 
ATOM      2  C   UNL A   1     -24.170  -2.782  29.165  0.00  0.00    +0.030 C 
ATOM      3  C   UNL A   1     -24.017  -4.122  28.852  0.00  0.00    +0.033 C 
ATOM      4  C   UNL A   1     -25.000  -5.160  29.037  0.00  0.00    +0.005 C 
ATOM      5  C   UNL A   1     -26.254  -4.813  29.595  0.00  0.00    +0.001 C 
ATOM      6  C   UNL A   1     -26.476  -3.454  29.942  0.00  0.00    +0.005 C 
ATOM      7  C   UNL A   1     -25.495  -2.543  29.701  0.00  0.00    +0.033 C 
ATOM      8  O   UNL A   1     -23.656  -0.617  28.972  0.00  0.00    -0.232 OA
ENDROOT
TORSDOF 0
ENDMDL
ENDMDL
