REMARK  Name = No_854-gen_results/8p0m/2024-11-26-14-13-15/
REMARK  4 active torsions:
REMARK  status: ('A' for Active; 'I' for Inactive)
REMARK    1  A    between atoms: C_4  and  C_9
REMARK    2  A    between atoms: C_9  and  C_10
REMARK    3  A    between atoms: C_11  and  C_12
REMARK    4  A    between atoms: C_12  and  C_13
REMARK                            x       y       z     vdW  Elec       q    Type
REMARK                         _______ _______ _______ _____ _____    ______ ____
ROOT
ATOM      1  C   UNL A   1     -24.653  -2.303  29.381  0.00  0.00    +0.026 C 
ENDROOT
BRANCH   1   5
ATOM      2  C   UNL A   1     -28.016  -0.814  28.878  0.00  0.00    +0.036 C 
ATOM      3  C   UNL A   1     -28.469  -0.785  29.829  0.00  0.00    +0.182 C 
ATOM      4  C   UNL A   1     -26.504  -0.778  28.877  0.00  0.00    +0.003 C 
ATOM      5  C   UNL A   1     -25.831  -1.681  29.685  0.00  0.00    +0.007 C 
ATOM      6  C   UNL A   1     -28.149  -1.885  30.903  0.00  0.00    +0.182 C 
ATOM      7  C   UNL A   1     -26.646  -1.956  31.033  0.00  0.00    +0.036 C 
ATOM      8  O   UNL A   1     -28.627  -1.731  32.186  0.00  0.00    -0.220 OA
ATOM      9  O   UNL A   1     -30.017  -0.927  29.877  0.00  0.00    -0.220 OA
ENDBRANCH   1   5
BRANCH   1  10
ATOM     10  C   UNL A   1     -23.472  -1.507  29.250  0.00  0.00    -0.030 C 
ATOM     11  C   UNL A   1     -23.675  -0.223  29.564  0.00  0.00    -0.026 C 
BRANCH  11  12
ATOM     12  C   UNL A   1     -23.298   0.858  28.718  0.00  0.00    +0.052 C 
BRANCH  12  13
ATOM     13  C   UNL A   1     -23.746   1.367  27.877  0.00  0.00    -0.018 A 
ATOM     14  C   UNL A   1     -23.051   2.371  26.946  0.00  0.00    -0.004 A 
ATOM     15  C   UNL A   1     -23.761   3.012  25.926  0.00  0.00    -0.000 A 
ATOM     16  C   UNL A   1     -25.139   2.863  25.855  0.00  0.00    -0.000 A 
ATOM     17  C   UNL A   1     -25.771   1.949  26.631  0.00  0.00    -0.000 A 
ATOM     18  C   UNL A   1     -25.049   1.293  27.663  0.00  0.00    -0.004 A 
ENDBRANCH  12  13
ENDBRANCH  11  12
ENDBRANCH   1  10
TORSDOF 4
