REMARK  Name = No_855-gen_results/8p0m/2024-11-26-14-13-15/
REMARK  1 active torsions:
REMARK  status: ('A' for Active; 'I' for Inactive)
REMARK    1  A    between atoms: C_2  and  C_7
REMARK                            x       y       z     vdW  Elec       q    Type
REMARK                         _______ _______ _______ _____ _____    ______ ____
ROOT
ATOM      1  C   UNL A   1     -28.016  -0.814  28.878  0.00  0.00    +0.002 A 
ATOM      2  C   UNL A   1     -28.469  -0.785  29.829  0.00  0.00    +0.018 A 
ATOM      3  C   UNL A   1     -26.546  -0.876  28.850  0.00  0.00    +0.000 A 
ATOM      4  C   UNL A   1     -25.804  -1.032  30.057  0.00  0.00    +0.000 A 
ATOM      5  C   UNL A   1     -27.944  -0.987  31.207  0.00  0.00    +0.002 A 
ATOM      6  C   UNL A   1     -26.582  -1.039  31.223  0.00  0.00    +0.000 A 
ENDROOT
BRANCH   2   7
ATOM      7  C   UNL A   1     -30.061  -0.737  29.902  0.00  0.00    +0.081 A 
ATOM      8  N   UNL A   1     -30.606  -0.035  29.009  0.00  0.00    -0.244 NA
ATOM      9  C   UNL A   1     -31.503   0.445  28.779  0.00  0.00    +0.099 A 
ATOM     10  C   UNL A   1     -32.506   0.548  29.768  0.00  0.00    +0.021 A 
ATOM     11  C   UNL A   1     -32.131  -0.222  30.922  0.00  0.00    +0.003 A 
ATOM     12  C   UNL A   1     -30.808  -0.747  31.170  0.00  0.00    +0.019 A 
ENDBRANCH   2   7
TORSDOF 1
