MODEL 855
MODEL 1
REMARK VINA RESULT:    -6.053      0.000      0.000
REMARK INTER + INTRA:          -6.692
REMARK INTER:                  -6.407
REMARK INTRA:                  -0.285
REMARK UNBOUND:                -0.285
REMARK  Name = No_855-gen_results/8p0m/2024-11-26-14-13-15/
REMARK  1 active torsions:
REMARK  status: ('A' for Active; 'I' for Inactive)
REMARK    1  A    between atoms: C_2  and  C_7
REMARK                            x       y       z     vdW  Elec       q    Type
REMARK                         _______ _______ _______ _____ _____    ______ ____
ROOT
ATOM      1  C   UNL A   1     -23.834  -3.456  28.786  0.00  0.00    +0.002 A 
ATOM      2  C   UNL A   1     -24.381  -2.644  29.175  0.00  0.00    +0.018 A 
ATOM      3  C   UNL A   1     -24.445  -4.788  28.922  0.00  0.00    +0.000 A 
ATOM      4  C   UNL A   1     -25.770  -4.928  29.429  0.00  0.00    +0.000 A 
ATOM      5  C   UNL A   1     -25.772  -2.512  29.686  0.00  0.00    +0.002 A 
ATOM      6  C   UNL A   1     -26.369  -3.728  29.837  0.00  0.00    +0.000 A 
ENDROOT
BRANCH   2   7
ATOM      7  C   UNL A   1     -23.761  -1.182  29.029  0.00  0.00    +0.081 A 
ATOM      8  N   UNL A   1     -24.302  -0.469  28.142  0.00  0.00    -0.244 NA
ATOM      9  C   UNL A   1     -24.139   0.386  27.567  0.00  0.00    +0.099 A 
ATOM     10  C   UNL A   1     -22.863   0.990  27.572  0.00  0.00    +0.021 A 
ATOM     11  C   UNL A   1     -22.030   0.360  28.560  0.00  0.00    +0.003 A 
ATOM     12  C   UNL A   1     -22.329  -0.894  29.212  0.00  0.00    +0.019 A 
ENDBRANCH   2   7
TORSDOF 1
ENDMDL
ENDMDL
