REMARK  Name = No_856-gen_results/8p0m/2024-11-26-14-13-15/
REMARK  5 active torsions:
REMARK  status: ('A' for Active; 'I' for Inactive)
REMARK    1  A    between atoms: C_3  and  O_13
REMARK    2  A    between atoms: C_5  and  C_8
REMARK    3  A    between atoms: C_8  and  N_9
REMARK    4  A    between atoms: N_9  and  C_10
REMARK    5  A    between atoms: O_13  and  C_14
REMARK                            x       y       z     vdW  Elec       q    Type
REMARK                         _______ _______ _______ _____ _____    ______ ____
ROOT
ATOM      1 CL   UNL A   1     -28.149  -0.820  28.908  0.00  0.00    -0.079 Cl
ATOM      2  C   UNL A   1     -26.912  -0.080  28.945  0.00  0.00    +0.092 A 
ATOM      3  C   UNL A   1     -26.738   1.044  29.253  0.00  0.00    +0.155 A 
ATOM      4  C   UNL A   1     -25.439   1.712  29.276  0.00  0.00    +0.035 A 
ATOM      5  C   UNL A   1     -24.281   0.989  28.854  0.00  0.00    -0.003 A 
ATOM      6  C   UNL A   1     -24.487  -0.304  28.496  0.00  0.00    -0.002 A 
ATOM      7  C   UNL A   1     -25.705  -0.867  28.524  0.00  0.00    +0.014 A 
ENDROOT
BRANCH   5   8
ATOM      8  C   UNL A   1     -22.962   1.632  28.795  0.00  0.00    +0.099 C 
BRANCH   8   9
ATOM      9  N   UNL A   1     -22.250   1.658  27.858  0.00  0.00    -0.268 NA
ATOM     10  C   UNL A   1     -20.808   1.485  27.926  0.00  0.00    +0.090 C 
BRANCH   9  11
ATOM     11  C   UNL A   1     -22.724   1.444  26.609  0.00  0.00    +0.072 C 
ATOM     12  C   UNL A   1     -22.677   2.724  25.782  0.00  0.00    +0.019 C 
ENDBRANCH   9  11
ENDBRANCH   8   9
ENDBRANCH   5   8
BRANCH   3  13
ATOM     13  O   UNL A   1     -27.745   1.822  29.730  0.00  0.00    -0.453 OA
BRANCH  13  14
ATOM     14  C   UNL A   1     -27.638   3.164  29.683  0.00  0.00    +0.145 A 
ATOM     15  C   UNL A   1     -27.363   3.974  30.579  0.00  0.00    +0.037 A 
ATOM     16  C   UNL A   1     -27.232   5.387  30.535  0.00  0.00    +0.003 A 
ATOM     17  C   UNL A   1     -27.488   5.984  29.292  0.00  0.00    +0.000 A 
ATOM     18  C   UNL A   1     -27.881   3.814  28.346  0.00  0.00    +0.037 A 
ATOM     19  C   UNL A   1     -27.777   5.175  28.235  0.00  0.00    +0.003 A 
ENDBRANCH  13  14
ENDBRANCH   3  13
TORSDOF 5
