MODEL 858
MODEL 1
REMARK VINA RESULT:    -8.335      0.000      0.000
REMARK INTER + INTRA:         -15.564
REMARK INTER:                 -12.233
REMARK INTRA:                  -3.331
REMARK UNBOUND:                -3.331
REMARK  Name = No_858-gen_results/8p0m/2024-11-26-14-13-15/
REMARK  8 active torsions:
REMARK  status: ('A' for Active; 'I' for Inactive)
REMARK    1  A    between atoms: C_2  and  C_32
REMARK    2  A    between atoms: C_3  and  C_7
REMARK    3  A    between atoms: C_8  and  C_17
REMARK    4  A    between atoms: C_9  and  C_10
REMARK    5  A    between atoms: C_14  and  C_24
REMARK    6  A    between atoms: C_17  and  C_18
REMARK    7  A    between atoms: C_19  and  C_20
REMARK    8  A    between atoms: C_20  and  C_23
REMARK                            x       y       z     vdW  Elec       q    Type
REMARK                         _______ _______ _______ _____ _____    ______ ____
ROOT
ATOM      1  C   UNL A   1     -24.159   0.163  27.565  0.00  0.00    -0.004 A 
ATOM      2  C   UNL A   1     -23.000   0.514  28.200  0.00  0.00    -0.018 A 
ATOM      3  C   UNL A   1     -24.554   0.725  26.373  0.00  0.00    -0.000 A 
ATOM      4  C   UNL A   1     -23.682   1.722  25.846  0.00  0.00    -0.000 A 
ATOM      5  C   UNL A   1     -22.300   1.691  27.792  0.00  0.00    -0.004 A 
ATOM      6  C   UNL A   1     -22.602   2.233  26.569  0.00  0.00    -0.000 A 
ENDROOT
BRANCH   1   9
ATOM      7  C   UNL A   1     -24.587  -2.252  28.309  0.00  0.00    +0.007 A 
ATOM      8  C   UNL A   1     -25.192  -2.914  28.862  0.00  0.00    +0.080 A 
ATOM      9  C   UNL A   1     -24.955  -0.888  28.285  0.00  0.00    -0.000 A 
ATOM     10  C   UNL A   1     -26.073  -0.421  28.946  0.00  0.00    -0.000 A 
ATOM     11  C   UNL A   1     -26.418  -2.678  29.650  0.00  0.00    +0.007 A 
ATOM     12  C   UNL A   1     -26.806  -1.384  29.652  0.00  0.00    +0.000 A 
BRANCH   8  13
ATOM     13  C   UNL A   1     -24.873  -4.497  28.970  0.00  0.00    +0.388 C 
ATOM     14  O   UNL A   1     -25.587  -5.225  29.458  0.00  0.00    -0.241 OA
ATOM     15  O   UNL A   1     -23.834  -4.875  28.236  0.00  0.00    -0.241 OA
ENDBRANCH   8  13
ENDBRANCH   1   9
BRANCH   3  16
ATOM     16  C   UNL A   1     -25.739   0.444  25.778  0.00  0.00    +0.000 A 
ATOM     17  C   UNL A   1     -25.731  -0.565  24.797  0.00  0.00    +0.000 A 
ATOM     18  C   UNL A   1     -26.954  -0.945  24.207  0.00  0.00    +0.000 A 
ATOM     19  C   UNL A   1     -28.128  -0.367  24.639  0.00  0.00    +0.004 A 
ATOM     20  C   UNL A   1     -28.152   0.571  25.634  0.00  0.00    +0.054 A 
ATOM     21  C   UNL A   1     -27.003   1.000  26.195  0.00  0.00    +0.004 A 
BRANCH  20  22
ATOM     22  C   UNL A   1     -29.497   1.182  25.982  0.00  0.00    +0.249 C 
ATOM     23  N   UNL A   1     -29.923   2.155  25.238  0.00  0.00    -0.276 N 
ATOM     24  C   UNL A   1     -30.850   3.069  25.615  0.00  0.00    +0.094 C 
ATOM     25  C   UNL A   1     -29.525   2.319  23.844  0.00  0.00    +0.094 C 
ATOM     26  C   UNL A   1     -30.496   2.210  22.919  0.00  0.00    +0.022 C 
ATOM     27  C   UNL A   1     -31.925   3.349  24.650  0.00  0.00    +0.022 C 
ATOM     28  C   UNL A   1     -31.537   3.428  23.225  0.00  0.00    +0.004 C 
ATOM     29  O   UNL A   1     -30.063   0.810  26.967  0.00  0.00    -0.270 OA
ENDBRANCH  20  22
ENDBRANCH   3  16
BRANCH   2  30
ATOM     30  C   UNL A   1     -22.342  -0.337  29.126  0.00  0.00    +0.052 C 
BRANCH  30  31
ATOM     31  C   UNL A   1     -22.383  -0.119  30.504  0.00  0.00    -0.026 C 
ATOM     32  C   UNL A   1     -22.705  -0.938  31.363  0.00  0.00    -0.030 C 
BRANCH  32  33
ATOM     33  C   UNL A   1     -23.694  -1.023  31.715  0.00  0.00    +0.026 C 
BRANCH  33  34
ATOM     34  C   UNL A   1     -24.466   0.205  32.150  0.00  0.00    +0.005 C 
ATOM     35  C   UNL A   1     -25.291  -0.267  33.009  0.00  0.00    +0.000 C 
ENDBRANCH  33  34
ENDBRANCH  32  33
ENDBRANCH  30  31
ENDBRANCH   2  30
TORSDOF 8
ENDMDL
ENDMDL
