REMARK  Name = No_859-gen_results/8p0m/2024-11-26-14-13-15/
REMARK  1 active torsions:
REMARK  status: ('A' for Active; 'I' for Inactive)
REMARK    1  A    between atoms: C_10  and  C_11
REMARK                            x       y       z     vdW  Elec       q    Type
REMARK                         _______ _______ _______ _____ _____    ______ ____
ROOT
ATOM      1  C   UNL A   1     -28.016  -0.814  28.878  0.00  0.00    +0.000 A 
ATOM      2  C   UNL A   1     -28.469  -0.785  29.829  0.00  0.00    +0.000 A 
ATOM      3  C   UNL A   1     -27.087   0.290  28.638  0.00  0.00    +0.000 A 
ATOM      4  C   UNL A   1     -26.252   0.411  27.422  0.00  0.00    +0.002 A 
ATOM      5  C   UNL A   1     -28.391   0.104  30.980  0.00  0.00    +0.000 A 
ATOM      6  C   UNL A   1     -27.533   1.167  30.787  0.00  0.00    +0.000 A 
ATOM      7  C   UNL A   1     -26.828   1.256  29.645  0.00  0.00    +0.007 A 
ATOM      8  C   UNL A   1     -25.644   1.665  27.222  0.00  0.00    +0.030 A 
ATOM      9  C   UNL A   1     -25.428   2.590  28.237  0.00  0.00    +0.144 A 
ATOM     10  C   UNL A   1     -26.108   2.467  29.421  0.00  0.00    +0.081 A 
ATOM     11  F   UNL A   1     -24.716   3.665  27.959  0.00  0.00    -0.204 F 
ENDROOT
BRANCH  10  12
ATOM     12  C   UNL A   1     -25.886   3.525  30.430  0.00  0.00    +0.251 C 
ATOM     13  O   UNL A   1     -25.111   3.292  31.339  0.00  0.00    -0.270 OA
ATOM     14  N   UNL A   1     -26.607   4.625  30.381  0.00  0.00    -0.276 N 
ATOM     15  C   UNL A   1     -26.444   5.686  31.409  0.00  0.00    +0.094 C 
ATOM     16  C   UNL A   1     -27.542   4.916  29.333  0.00  0.00    +0.094 C 
ATOM     17  C   UNL A   1     -27.013   6.562  31.412  0.00  0.00    +0.022 C 
ATOM     18  C   UNL A   1     -28.309   6.135  29.498  0.00  0.00    +0.022 C 
ATOM     19  C   UNL A   1     -28.009   7.000  30.504  0.00  0.00    +0.004 C 
ENDBRANCH  10  12
TORSDOF 1
