MODEL 859
MODEL 1
REMARK VINA RESULT:    -8.272      0.000      0.000
REMARK INTER + INTRA:          -8.960
REMARK INTER:                  -8.756
REMARK INTRA:                  -0.204
REMARK UNBOUND:                -0.204
REMARK  Name = No_859-gen_results/8p0m/2024-11-26-14-13-15/
REMARK  1 active torsions:
REMARK  status: ('A' for Active; 'I' for Inactive)
REMARK    1  A    between atoms: C_10  and  C_11
REMARK                            x       y       z     vdW  Elec       q    Type
REMARK                         _______ _______ _______ _____ _____    ______ ____
ROOT
ATOM      1  C   UNL A   1     -26.213  -4.579  29.648  0.00  0.00    +0.000 A 
ATOM      2  C   UNL A   1     -25.407  -5.029  29.138  0.00  0.00    +0.000 A 
ATOM      3  C   UNL A   1     -25.999  -3.164  29.948  0.00  0.00    +0.000 A 
ATOM      4  C   UNL A   1     -27.024  -2.290  30.562  0.00  0.00    +0.002 A 
ATOM      5  C   UNL A   1     -24.112  -4.573  28.653  0.00  0.00    +0.000 A 
ATOM      6  C   UNL A   1     -23.868  -3.243  28.929  0.00  0.00    +0.000 A 
ATOM      7  C   UNL A   1     -24.815  -2.501  29.529  0.00  0.00    +0.007 A 
ATOM      8  C   UNL A   1     -26.560  -1.052  31.045  0.00  0.00    +0.030 A 
ATOM      9  C   UNL A   1     -25.382  -0.449  30.619  0.00  0.00    +0.144 A 
ATOM     10  C   UNL A   1     -24.439  -1.194  29.960  0.00  0.00    +0.081 A 
ATOM     11  F   UNL A   1     -25.126   0.779  31.030  0.00  0.00    -0.204 F 
ENDROOT
BRANCH  10  12
ATOM     12  C   UNL A   1     -23.179  -0.509  29.600  0.00  0.00    +0.251 C 
ATOM     13  O   UNL A   1     -22.241  -0.600  30.369  0.00  0.00    -0.270 OA
ATOM     14  N   UNL A   1     -23.146   0.262  28.533  0.00  0.00    -0.276 N 
ATOM     15  C   UNL A   1     -21.910   1.004  28.172  0.00  0.00    +0.094 C 
ATOM     16  C   UNL A   1     -24.244   0.404  27.621  0.00  0.00    +0.094 C 
ATOM     17  C   UNL A   1     -21.855   1.640  27.344  0.00  0.00    +0.022 C 
ATOM     18  C   UNL A   1     -24.052   1.366  26.555  0.00  0.00    +0.022 C 
ATOM     19  C   UNL A   1     -22.836   1.947  26.369  0.00  0.00    +0.004 C 
ENDBRANCH  10  12
TORSDOF 1
ENDMDL
ENDMDL
