MODEL 85
MODEL 1
REMARK VINA RESULT:    -6.625      0.000      0.000
REMARK INTER + INTRA:          -8.294
REMARK INTER:                  -7.787
REMARK INTRA:                  -0.506
REMARK UNBOUND:                -0.506
REMARK  Name = No_85-gen_results/8p0m/2024-11-26-14-13-15/
REMARK  3 active torsions:
REMARK  status: ('A' for Active; 'I' for Inactive)
REMARK    1  A    between atoms: C_3  and  C_4
REMARK    2  A    between atoms: C_4  and  C_5
REMARK    3  A    between atoms: C_5  and  C_6
REMARK                            x       y       z     vdW  Elec       q    Type
REMARK                         _______ _______ _______ _____ _____    ______ ____
ROOT
ATOM      1  C   UNL A   1     -23.715  -0.626  29.000  0.00  0.00    +0.027 C 
ENDROOT
BRANCH   1   2
ATOM      2  C   UNL A   1     -23.725   0.320  28.062  0.00  0.00    -0.022 A 
ATOM      3  C   UNL A   1     -24.107   0.635  27.066  0.00  0.00    -0.004 A 
ATOM      4  C   UNL A   1     -23.739   1.777  26.284  0.00  0.00    -0.000 A 
ATOM      5  C   UNL A   1     -22.522   1.970  26.328  0.00  0.00    -0.000 A 
ATOM      6  C   UNL A   1     -21.688   1.750  27.424  0.00  0.00    -0.000 A 
ATOM      7  C   UNL A   1     -22.224   0.729  28.176  0.00  0.00    -0.004 A 
ENDBRANCH   1   2
BRANCH   1   8
ATOM      8  C   UNL A   1     -23.461  -1.664  29.019  0.00  0.00    +0.013 C 
BRANCH   8  11
ATOM      9  C   UNL A   1     -23.943  -4.116  28.597  0.00  0.00    -0.022 C 
ATOM     10  C   UNL A   1     -24.502  -4.956  28.900  0.00  0.00    -0.005 C 
ATOM     11  C   UNL A   1     -24.300  -2.865  29.204  0.00  0.00    +0.044 C 
ATOM     12  C   UNL A   1     -25.475  -5.166  29.302  0.00  0.00    -0.005 C 
ATOM     13  C   UNL A   1     -25.474  -3.258  29.679  0.00  0.00    -0.022 C 
ENDBRANCH   8  11
ENDBRANCH   1   8
TORSDOF 3
ENDMDL
ENDMDL
