REMARK  Name = No_860-gen_results/8p0m/2024-11-26-14-13-15/
REMARK  5 active torsions:
REMARK  status: ('A' for Active; 'I' for Inactive)
REMARK    1  A    between atoms: C_2  and  O_7
REMARK    2  A    between atoms: O_7  and  C_8
REMARK    3  A    between atoms: C_8  and  C_9
REMARK    4  A    between atoms: C_10  and  C_11
REMARK    5  A    between atoms: C_11  and  C_12
REMARK                            x       y       z     vdW  Elec       q    Type
REMARK                         _______ _______ _______ _____ _____    ______ ____
ROOT
ATOM      1  C   UNL A   1     -30.438   0.040  28.837  0.00  0.00    +0.232 C 
ENDROOT
BRANCH   1   2
ATOM      2  C   UNL A   1     -31.079   1.154  29.089  0.00  0.00    +0.016 C 
ATOM      3  C   UNL A   1     -31.350   1.546  30.290  0.00  0.00    -0.018 C 
BRANCH   3   4
ATOM      4  C   UNL A   1     -31.057   0.779  31.441  0.00  0.00    +0.129 C 
BRANCH   4   5
ATOM      5  C   UNL A   1     -31.184   1.248  32.811  0.00  0.00    +0.402 C 
ATOM      6  F   UNL A   1     -31.817   2.050  32.940  0.00  0.00    -0.170 F 
ATOM      7  F   UNL A   1     -29.889   1.554  33.254  0.00  0.00    -0.170 F 
ATOM      8  F   UNL A   1     -31.394   0.082  33.555  0.00  0.00    -0.170 F 
ENDBRANCH   4   5
ENDBRANCH   3   4
ENDBRANCH   1   2
BRANCH   1   9
ATOM      9  O   UNL A   1     -29.919  -0.644  29.733  0.00  0.00    -0.471 OA
BRANCH   9  11
ATOM     10  C   UNL A   1     -28.016  -0.814  28.878  0.00  0.00    +0.037 A 
ATOM     11  C   UNL A   1     -28.469  -0.785  29.829  0.00  0.00    +0.139 A 
ATOM     12  C   UNL A   1     -26.546  -0.876  28.850  0.00  0.00    +0.003 A 
ATOM     13  C   UNL A   1     -25.804  -1.032  30.057  0.00  0.00    +0.000 A 
ATOM     14  C   UNL A   1     -27.944  -0.987  31.207  0.00  0.00    +0.037 A 
ATOM     15  C   UNL A   1     -26.582  -1.039  31.223  0.00  0.00    +0.003 A 
ENDBRANCH   9  11
ENDBRANCH   1   9
TORSDOF 5
