MODEL 860
MODEL 1
REMARK VINA RESULT:    -5.982      0.000      0.000
REMARK INTER + INTRA:          -8.252
REMARK INTER:                  -7.731
REMARK INTRA:                  -0.521
REMARK UNBOUND:                -0.521
REMARK  Name = No_860-gen_results/8p0m/2024-11-26-14-13-15/
REMARK  5 active torsions:
REMARK  status: ('A' for Active; 'I' for Inactive)
REMARK    1  A    between atoms: C_2  and  O_7
REMARK    2  A    between atoms: O_7  and  C_8
REMARK    3  A    between atoms: C_8  and  C_9
REMARK    4  A    between atoms: C_10  and  C_11
REMARK    5  A    between atoms: C_11  and  C_12
REMARK                            x       y       z     vdW  Elec       q    Type
REMARK                         _______ _______ _______ _____ _____    ______ ____
ROOT
ATOM      1  C   UNL A   1     -23.136  -1.049  28.492  0.00  0.00    +0.232 C 
ENDROOT
BRANCH   1   2
ATOM      2  C   UNL A   1     -22.451   0.015  28.832  0.00  0.00    +0.016 C 
ATOM      3  C   UNL A   1     -22.682   1.182  28.329  0.00  0.00    -0.018 C 
BRANCH   3   4
ATOM      4  C   UNL A   1     -23.635   1.414  27.310  0.00  0.00    +0.129 C 
BRANCH   4   5
ATOM      5  C   UNL A   1     -23.344   2.004  26.014  0.00  0.00    +0.402 C 
ATOM      6  F   UNL A   1     -23.722   1.489  25.206  0.00  0.00    -0.170 F 
ATOM      7  F   UNL A   1     -21.949   2.120  25.928  0.00  0.00    -0.170 F 
ATOM      8  F   UNL A   1     -23.661   3.357  26.174  0.00  0.00    -0.170 F 
ENDBRANCH   4   5
ENDBRANCH   3   4
ENDBRANCH   1   2
BRANCH   1   9
ATOM      9  O   UNL A   1     -23.026  -2.129  29.094  0.00  0.00    -0.471 OA
BRANCH   9  11
ATOM     10  C   UNL A   1     -23.987  -3.976  28.879  0.00  0.00    +0.037 A 
ATOM     11  C   UNL A   1     -24.173  -3.014  29.269  0.00  0.00    +0.139 A 
ATOM     12  C   UNL A   1     -25.046  -4.980  29.068  0.00  0.00    +0.003 A 
ATOM     13  C   UNL A   1     -26.305  -4.610  29.626  0.00  0.00    +0.000 A 
ATOM     14  C   UNL A   1     -25.391  -2.367  29.829  0.00  0.00    +0.037 A 
ATOM     15  C   UNL A   1     -26.393  -3.270  30.028  0.00  0.00    +0.003 A 
ENDBRANCH   9  11
ENDBRANCH   1   9
TORSDOF 5
ENDMDL
ENDMDL
