REMARK  Name = No_861-gen_results/8p0m/2024-11-26-14-13-15/
REMARK  4 active torsions:
REMARK  status: ('A' for Active; 'I' for Inactive)
REMARK    1  A    between atoms: C_2  and  C_3
REMARK    2  A    between atoms: C_5  and  C_16
REMARK    3  A    between atoms: C_6  and  C_13
REMARK    4  A    between atoms: N_17  and  C_18
REMARK                            x       y       z     vdW  Elec       q    Type
REMARK                         _______ _______ _______ _____ _____    ______ ____
ROOT
ATOM      1  C   UNL A   1     -26.972   0.714  27.506  0.00  0.00    +0.000 A 
ATOM      2  C   UNL A   1     -28.105   0.774  26.642  0.00  0.00    +0.005 A 
ATOM      3  C   UNL A   1     -28.127   1.512  25.512  0.00  0.00    +0.055 A 
ATOM      4  C   UNL A   1     -26.939   2.263  25.106  0.00  0.00    +0.005 A 
ATOM      5  C   UNL A   1     -25.814   2.221  25.887  0.00  0.00    +0.000 A 
ATOM      6  C   UNL A   1     -25.810   1.478  27.040  0.00  0.00    +0.000 A 
ENDROOT
BRANCH   1   8
ATOM      7  C   UNL A   1     -28.016  -0.814  28.878  0.00  0.00    +0.007 A 
ATOM      8  C   UNL A   1     -27.064  -0.119  28.608  0.00  0.00    +0.000 A 
ATOM      9  C   UNL A   1     -27.959  -1.601  30.143  0.00  0.00    +0.080 A 
ATOM     10  C   UNL A   1     -26.750  -1.751  30.783  0.00  0.00    +0.007 A 
ATOM     11  C   UNL A   1     -25.626  -1.123  30.381  0.00  0.00    +0.000 A 
ATOM     12  C   UNL A   1     -25.724  -0.281  29.311  0.00  0.00    +0.000 A 
BRANCH   9  13
ATOM     13  C   UNL A   1     -29.145  -2.384  30.594  0.00  0.00    +0.388 C 
ATOM     14  O   UNL A   1     -29.044  -3.581  30.859  0.00  0.00    -0.241 OA
ATOM     15  O   UNL A   1     -30.290  -1.837  30.571  0.00  0.00    -0.241 OA
ENDBRANCH   9  13
ENDBRANCH   1   8
BRANCH   3  16
ATOM     16  C   UNL A   1     -29.282   1.610  24.642  0.00  0.00    +0.269 C 
ATOM     17  N   UNL A   1     -30.411   1.854  25.287  0.00  0.00    -0.175 NA
ATOM     18  O   UNL A   1     -29.232   1.472  23.486  0.00  0.00    -0.268 OA
BRANCH  17  19
ATOM     19  C   UNL A   1     -31.581   2.032  24.813  0.00  0.00    +0.074 A 
ATOM     20  C   UNL A   1     -32.673   2.292  25.536  0.00  0.00    +0.017 A 
ATOM     21  C   UNL A   1     -33.879   2.503  25.262  0.00  0.00    +0.001 A 
ATOM     22  C   UNL A   1     -34.154   2.523  23.802  0.00  0.00    +0.000 A 
ATOM     23  C   UNL A   1     -33.128   2.345  22.867  0.00  0.00    +0.001 A 
ATOM     24  C   UNL A   1     -31.817   2.142  23.365  0.00  0.00    +0.017 A 
ENDBRANCH  17  19
ENDBRANCH   3  16
TORSDOF 4
