MODEL 861
MODEL 1
REMARK VINA RESULT:    -7.661      0.000      0.000
REMARK INTER + INTRA:         -10.352
REMARK INTER:                  -9.453
REMARK INTRA:                  -0.899
REMARK UNBOUND:                -0.899
REMARK  Name = No_861-gen_results/8p0m/2024-11-26-14-13-15/
REMARK  4 active torsions:
REMARK  status: ('A' for Active; 'I' for Inactive)
REMARK    1  A    between atoms: C_2  and  C_3
REMARK    2  A    between atoms: C_5  and  C_16
REMARK    3  A    between atoms: C_6  and  C_13
REMARK    4  A    between atoms: N_17  and  C_18
REMARK                            x       y       z     vdW  Elec       q    Type
REMARK                         _______ _______ _______ _____ _____    ______ ____
ROOT
ATOM      1  C   UNL A   1     -23.787  -1.350  28.907  0.00  0.00    +0.000 A 
ATOM      2  C   UNL A   1     -24.419  -0.279  28.209  0.00  0.00    +0.005 A 
ATOM      3  C   UNL A   1     -23.775   0.857  27.869  0.00  0.00    +0.055 A 
ATOM      4  C   UNL A   1     -22.354   1.013  28.181  0.00  0.00    +0.005 A 
ATOM      5  C   UNL A   1     -21.691   0.005  28.830  0.00  0.00    +0.000 A 
ATOM      6  C   UNL A   1     -22.361  -1.139  29.182  0.00  0.00    +0.000 A 
ENDROOT
BRANCH   1   8
ATOM      7  C   UNL A   1     -25.717  -2.477  29.463  0.00  0.00    +0.007 A 
ATOM      8  C   UNL A   1     -24.549  -2.479  29.152  0.00  0.00    +0.000 A 
ATOM      9  C   UNL A   1     -26.358  -3.793  29.747  0.00  0.00    +0.080 A 
ATOM     10  C   UNL A   1     -25.715  -4.947  29.361  0.00  0.00    +0.007 A 
ATOM     11  C   UNL A   1     -24.473  -4.952  28.835  0.00  0.00    +0.000 A 
ATOM     12  C   UNL A   1     -23.833  -3.751  28.722  0.00  0.00    +0.000 A 
BRANCH   9  13
ATOM     13  C   UNL A   1     -27.760  -3.852  30.251  0.00  0.00    +0.388 C 
ATOM     14  O   UNL A   1     -28.486  -2.859  30.207  0.00  0.00    -0.241 OA
ATOM     15  O   UNL A   1     -28.157  -4.898  30.850  0.00  0.00    -0.241 OA
ENDBRANCH   9  13
ENDBRANCH   1   8
BRANCH   3  16
ATOM     16  C   UNL A   1     -24.413   1.967  27.190  0.00  0.00    +0.269 C 
ATOM     17  N   UNL A   1     -24.822   2.923  28.007  0.00  0.00    -0.175 NA
ATOM     18  O   UNL A   1     -24.568   2.013  26.036  0.00  0.00    -0.268 OA
BRANCH  17  19
ATOM     19  C   UNL A   1     -25.379   4.034  27.723  0.00  0.00    +0.074 A 
ATOM     20  C   UNL A   1     -24.739   5.135  27.320  0.00  0.00    +0.017 A 
ATOM     21  C   UNL A   1     -25.100   6.291  26.992  0.00  0.00    +0.001 A 
ATOM     22  C   UNL A   1     -26.575   6.469  27.000  0.00  0.00    +0.000 A 
ATOM     23  C   UNL A   1     -27.433   5.412  27.323  0.00  0.00    +0.001 A 
ATOM     24  C   UNL A   1     -26.842   4.165  27.646  0.00  0.00    +0.017 A 
ENDBRANCH  17  19
ENDBRANCH   3  16
TORSDOF 4
ENDMDL
ENDMDL
