MODEL 863
MODEL 1
REMARK VINA RESULT:    -5.969      0.000      0.000
REMARK INTER + INTRA:          -8.212
REMARK INTER:                  -7.365
REMARK INTRA:                  -0.847
REMARK UNBOUND:                -0.847
REMARK  Name = No_863-gen_results/8p0m/2024-11-26-14-13-15/
REMARK  4 active torsions:
REMARK  status: ('A' for Active; 'I' for Inactive)
REMARK    1  A    between atoms: C_2  and  C_7
REMARK    2  A    between atoms: C_4  and  O_12
REMARK    3  A    between atoms: O_12  and  C_13
REMARK    4  A    between atoms: C_14  and  C_16
REMARK                            x       y       z     vdW  Elec       q    Type
REMARK                         _______ _______ _______ _____ _____    ______ ____
ROOT
ATOM      1  C   UNL A   1     -22.645   2.114  27.027  0.00  0.00    +0.018 A 
ATOM      2  C   UNL A   1     -23.690   2.205  26.919  0.00  0.00    +0.072 A 
ATOM      3  C   UNL A   1     -22.161   0.949  27.785  0.00  0.00    +0.092 A 
ATOM      4  C   UNL A   1     -23.067  -0.063  28.217  0.00  0.00    +0.155 A 
ATOM      5  C   UNL A   1     -24.822   1.285  27.214  0.00  0.00    +0.007 A 
ATOM      6  C   UNL A   1     -24.413   0.197  27.926  0.00  0.00    +0.038 A 
ATOM      7 CL   UNL A   1     -20.519   0.644  28.239  0.00  0.00    -0.079 Cl
ENDROOT
BRANCH   2   8
ATOM      8  C   UNL A   1     -24.254   3.443  26.088  0.00  0.00    +0.419 C 
ATOM      9  F   UNL A   1     -24.369   4.521  26.835  0.00  0.00    -0.166 F 
ATOM     10  F   UNL A   1     -25.425   3.117  25.521  0.00  0.00    -0.166 F 
ATOM     11  F   UNL A   1     -23.396   3.649  25.122  0.00  0.00    -0.166 F 
ENDBRANCH   2   8
BRANCH   4  12
ATOM     12  O   UNL A   1     -22.911  -1.199  28.868  0.00  0.00    -0.457 OA
BRANCH  12  13
ATOM     13  C   UNL A   1     -23.374  -1.406  30.114  0.00  0.00    +0.124 C 
ATOM     14  C   UNL A   1     -24.216  -2.603  30.295  0.00  0.00    +0.078 C 
ATOM     15  C   UNL A   1     -23.008  -0.572  31.167  0.00  0.00    +0.072 C 
BRANCH  14  16
ATOM     16  C   UNL A   1     -24.564  -3.338  29.214  0.00  0.00    +0.344 C 
ATOM     17  F   UNL A   1     -25.470  -3.231  28.543  0.00  0.00    -0.193 F 
ATOM     18  F   UNL A   1     -23.707  -4.282  28.853  0.00  0.00    -0.193 F 
ENDBRANCH  14  16
ENDBRANCH  12  13
ENDBRANCH   4  12
TORSDOF 4
ENDMDL
ENDMDL
