REMARK  Name = No_864-gen_results/8p0m/2024-11-26-14-13-15/
REMARK  3 active torsions:
REMARK  status: ('A' for Active; 'I' for Inactive)
REMARK    1  A    between atoms: C_5  and  O_10
REMARK    2  A    between atoms: O_10  and  C_11
REMARK    3  A    between atoms: C_12  and  C_13
REMARK                            x       y       z     vdW  Elec       q    Type
REMARK                         _______ _______ _______ _____ _____    ______ ____
ROOT
ATOM      1  C   UNL A   1     -28.016  -0.814  28.878  0.00  0.00    +0.045 A 
ATOM      2  C   UNL A   1     -28.469  -0.785  29.829  0.00  0.00    +0.094 A 
ATOM      3  C   UNL A   1     -26.546  -0.876  28.850  0.00  0.00    +0.147 A 
ATOM      4  C   UNL A   1     -25.804  -1.032  30.057  0.00  0.00    +0.065 A 
ATOM      5  C   UNL A   1     -27.944  -0.987  31.207  0.00  0.00    +0.157 A 
ATOM      6  C   UNL A   1     -26.582  -1.039  31.223  0.00  0.00    +0.047 A 
ATOM      7 CL   UNL A   1     -30.281  -0.723  29.883  0.00  0.00    -0.079 Cl
ATOM      8 BR   UNL A   1     -23.963  -1.145  30.060  0.00  0.00    -0.047 Br
ATOM      9  F   UNL A   1     -25.794  -0.866  27.723  0.00  0.00    -0.204 F 
ENDROOT
BRANCH   5  10
ATOM     10  O   UNL A   1     -28.668  -0.973  32.358  0.00  0.00    -0.450 OA
BRANCH  10  11
ATOM     11  C   UNL A   1     -29.663  -0.200  32.537  0.00  0.00    +0.179 C 
ATOM     12  C   UNL A   1     -30.700  -0.262  33.036  0.00  0.00    +0.041 C 
BRANCH  12  13
ATOM     13  C   UNL A   1     -30.979  -1.582  33.703  0.00  0.00    +0.003 A 
ATOM     14  C   UNL A   1     -30.063  -2.295  34.149  0.00  0.00    +0.000 A 
ATOM     15  C   UNL A   1     -29.951  -3.230  34.560  0.00  0.00    +0.000 A 
ATOM     16  C   UNL A   1     -31.047  -4.025  34.670  0.00  0.00    +0.000 A 
ATOM     17  C   UNL A   1     -32.291  -3.449  34.331  0.00  0.00    +0.000 A 
ATOM     18  C   UNL A   1     -32.225  -2.219  33.850  0.00  0.00    +0.000 A 
ENDBRANCH  12  13
ENDBRANCH  10  11
ENDBRANCH   5  10
TORSDOF 3
