MODEL 864
MODEL 1
REMARK VINA RESULT:    -6.498      0.000      0.000
REMARK INTER + INTRA:          -8.226
REMARK INTER:                  -7.638
REMARK INTRA:                  -0.588
REMARK UNBOUND:                -0.588
REMARK  Name = No_864-gen_results/8p0m/2024-11-26-14-13-15/
REMARK  3 active torsions:
REMARK  status: ('A' for Active; 'I' for Inactive)
REMARK    1  A    between atoms: C_5  and  O_10
REMARK    2  A    between atoms: O_10  and  C_11
REMARK    3  A    between atoms: C_12  and  C_13
REMARK                            x       y       z     vdW  Elec       q    Type
REMARK                         _______ _______ _______ _____ _____    ______ ____
ROOT
ATOM      1  C   UNL A   1     -25.801   2.160  26.446  0.00  0.00    +0.045 A 
ATOM      2  C   UNL A   1     -26.198   1.404  27.064  0.00  0.00    +0.094 A 
ATOM      3  C   UNL A   1     -24.346   2.366  26.507  0.00  0.00    +0.147 A 
ATOM      4  C   UNL A   1     -23.520   1.482  27.261  0.00  0.00    +0.065 A 
ATOM      5  C   UNL A   1     -25.568   0.330  27.879  0.00  0.00    +0.157 A 
ATOM      6  C   UNL A   1     -24.218   0.493  27.968  0.00  0.00    +0.047 A 
ATOM      7 CL   UNL A   1     -27.989   1.127  26.990  0.00  0.00    -0.079 Cl
ATOM      8 BR   UNL A   1     -21.689   1.688  27.337  0.00  0.00    -0.047 Br
ATOM      9  F   UNL A   1     -23.671   3.324  25.826  0.00  0.00    -0.204 F 
ENDROOT
BRANCH   5  10
ATOM     10  O   UNL A   1     -26.218  -0.626  28.597  0.00  0.00    -0.450 OA
BRANCH  10  11
ATOM     11  C   UNL A   1     -26.020  -0.807  29.841  0.00  0.00    +0.179 C 
ATOM     12  C   UNL A   1     -25.687  -1.672  30.524  0.00  0.00    +0.041 C 
BRANCH  12  13
ATOM     13  C   UNL A   1     -25.344  -2.937  29.785  0.00  0.00    +0.003 A 
ATOM     14  C   UNL A   1     -26.084  -3.936  29.820  0.00  0.00    +0.000 A 
ATOM     15  C   UNL A   1     -26.070  -4.912  29.498  0.00  0.00    +0.000 A 
ATOM     16  C   UNL A   1     -24.958  -5.369  28.865  0.00  0.00    +0.000 A 
ATOM     17  C   UNL A   1     -23.952  -4.422  28.577  0.00  0.00    +0.000 A 
ATOM     18  C   UNL A   1     -24.175  -3.208  29.050  0.00  0.00    +0.000 A 
ENDBRANCH  12  13
ENDBRANCH  10  11
ENDBRANCH   5  10
TORSDOF 3
ENDMDL
ENDMDL
