REMARK  Name = No_865-gen_results/8p0m/2024-11-26-14-13-15/
REMARK  1 active torsions:
REMARK  status: ('A' for Active; 'I' for Inactive)
REMARK    1  A    between atoms: C_10  and  C_11
REMARK                            x       y       z     vdW  Elec       q    Type
REMARK                         _______ _______ _______ _____ _____    ______ ____
ROOT
ATOM      1  C   UNL A   1     -28.016  -0.814  28.878  0.00  0.00    +0.000 A 
ATOM      2  C   UNL A   1     -28.469  -0.785  29.829  0.00  0.00    +0.000 A 
ATOM      3  C   UNL A   1     -27.136   0.236  28.535  0.00  0.00    +0.000 A 
ATOM      4  C   UNL A   1     -26.335   0.290  27.284  0.00  0.00    +0.000 A 
ATOM      5  C   UNL A   1     -28.369   0.196  30.924  0.00  0.00    +0.000 A 
ATOM      6  C   UNL A   1     -27.516   1.266  30.654  0.00  0.00    +0.000 A 
ATOM      7  C   UNL A   1     -26.841   1.294  29.476  0.00  0.00    +0.006 A 
ATOM      8  C   UNL A   1     -25.677   1.520  26.977  0.00  0.00    +0.000 A 
ATOM      9  C   UNL A   1     -25.375   2.448  27.925  0.00  0.00    +0.007 A 
ATOM     10  C   UNL A   1     -26.083   2.426  29.142  0.00  0.00    +0.080 A 
ENDROOT
BRANCH  10  11
ATOM     11  C   UNL A   1     -25.825   3.575  30.076  0.00  0.00    +0.388 C 
ATOM     12  O   UNL A   1     -25.166   3.370  31.068  0.00  0.00    -0.241 OA
ATOM     13  O   UNL A   1     -25.935   4.838  29.642  0.00  0.00    -0.241 OA
ENDBRANCH  10  11
TORSDOF 1
