MODEL 865
MODEL 1
REMARK VINA RESULT:    -5.962      0.000      0.000
REMARK INTER + INTRA:          -6.425
REMARK INTER:                  -6.310
REMARK INTRA:                  -0.115
REMARK UNBOUND:                -0.115
REMARK  Name = No_865-gen_results/8p0m/2024-11-26-14-13-15/
REMARK  1 active torsions:
REMARK  status: ('A' for Active; 'I' for Inactive)
REMARK    1  A    between atoms: C_10  and  C_11
REMARK                            x       y       z     vdW  Elec       q    Type
REMARK                         _______ _______ _______ _____ _____    ______ ____
ROOT
ATOM      1  C   UNL A   1     -26.158  -4.610  29.679  0.00  0.00    +0.000 A 
ATOM      2  C   UNL A   1     -25.437  -5.192  29.177  0.00  0.00    +0.000 A 
ATOM      3  C   UNL A   1     -25.898  -3.230  29.834  0.00  0.00    +0.000 A 
ATOM      4  C   UNL A   1     -26.854  -2.253  30.418  0.00  0.00    +0.000 A 
ATOM      5  C   UNL A   1     -24.137  -4.832  28.585  0.00  0.00    +0.000 A 
ATOM      6  C   UNL A   1     -23.812  -3.481  28.702  0.00  0.00    +0.000 A 
ATOM      7  C   UNL A   1     -24.699  -2.635  29.286  0.00  0.00    +0.006 A 
ATOM      8  C   UNL A   1     -26.358  -0.948  30.719  0.00  0.00    +0.000 A 
ATOM      9  C   UNL A   1     -25.255  -0.425  30.120  0.00  0.00    +0.007 A 
ATOM     10  C   UNL A   1     -24.329  -1.303  29.524  0.00  0.00    +0.080 A 
ENDROOT
BRANCH  10  11
ATOM     11  C   UNL A   1     -23.053  -0.681  29.031  0.00  0.00    +0.388 C 
ATOM     12  O   UNL A   1     -23.105   0.046  28.067  0.00  0.00    -0.241 OA
ATOM     13  O   UNL A   1     -21.993  -0.574  29.845  0.00  0.00    -0.241 OA
ENDBRANCH  10  11
TORSDOF 1
ENDMDL
ENDMDL
