REMARK  Name = No_866-gen_results/8p0m/2024-11-26-14-13-15/
REMARK  1 active torsions:
REMARK  status: ('A' for Active; 'I' for Inactive)
REMARK    1  A    between atoms: C_2  and  C_5
REMARK                            x       y       z     vdW  Elec       q    Type
REMARK                         _______ _______ _______ _____ _____    ______ ____
ROOT
ATOM      1  F   UNL A   1     -28.073  -1.254  28.532  0.00  0.00    -0.163 F 
ATOM      2  C   UNL A   1     -27.359  -0.379  28.722  0.00  0.00    +0.488 C 
ATOM      3  F   UNL A   1     -26.976  -0.093  27.662  0.00  0.00    -0.163 F 
ATOM      4  F   UNL A   1     -26.318  -0.809  29.497  0.00  0.00    -0.163 F 
ENDROOT
BRANCH   2   5
ATOM      5  C   UNL A   1     -27.959   0.783  29.456  0.00  0.00    +0.488 C 
ATOM      6  F   UNL A   1     -27.211   1.140  30.340  0.00  0.00    -0.163 F 
ATOM      7  F   UNL A   1     -28.083   1.777  28.689  0.00  0.00    -0.163 F 
ATOM      8  F   UNL A   1     -29.109   0.351  30.000  0.00  0.00    -0.163 F 
ENDBRANCH   2   5
TORSDOF 1
