MODEL 866
MODEL 1
REMARK VINA RESULT:    -4.855      0.000      0.000
REMARK INTER + INTRA:          -5.139
REMARK INTER:                  -5.139
REMARK INTRA:                   0.000
REMARK UNBOUND:                 0.000
REMARK  Name = No_866-gen_results/8p0m/2024-11-26-14-13-15/
REMARK  1 active torsions:
REMARK  status: ('A' for Active; 'I' for Inactive)
REMARK    1  A    between atoms: C_2  and  C_5
REMARK                            x       y       z     vdW  Elec       q    Type
REMARK                         _______ _______ _______ _____ _____    ______ ____
ROOT
ATOM      1  F   UNL A   1      -8.486  -9.091  17.717  0.00  0.00    -0.163 F 
ATOM      2  C   UNL A   1      -8.912  -9.737  18.561  0.00  0.00    +0.488 C 
ATOM      3  F   UNL A   1      -8.554 -10.812  18.300  0.00  0.00    -0.163 F 
ATOM      4  F   UNL A   1     -10.277  -9.676  18.528  0.00  0.00    -0.163 F 
ENDROOT
BRANCH   2   5
ATOM      5  C   UNL A   1      -8.519  -9.314  19.945  0.00  0.00    +0.488 C 
ATOM      6  F   UNL A   1      -7.744 -10.118  20.415  0.00  0.00    -0.163 F 
ATOM      7  F   UNL A   1      -7.898  -8.216  19.915  0.00  0.00    -0.163 F 
ATOM      8  F   UNL A   1      -9.641  -9.300  20.684  0.00  0.00    -0.163 F 
ENDBRANCH   2   5
TORSDOF 1
ENDMDL
ENDMDL
