REMARK  Name = No_867-gen_results/8p0m/2024-11-26-14-13-15/
REMARK  2 active torsions:
REMARK  status: ('A' for Active; 'I' for Inactive)
REMARK    1  A    between atoms: C_14  and  C_15
REMARK    2  A    between atoms: C_14  and  C_16
REMARK                            x       y       z     vdW  Elec       q    Type
REMARK                         _______ _______ _______ _____ _____    ______ ____
ROOT
ATOM      1  O   UNL A   1     -28.123  -1.335  28.487  0.00  0.00    -0.475 OA
ATOM      2  C   UNL A   1     -27.064  -0.824  28.869  0.00  0.00    +0.135 A 
ATOM      3  C   UNL A   1     -26.050  -0.936  28.758  0.00  0.00    +0.037 A 
ATOM      4  C   UNL A   1     -24.863  -0.167  29.126  0.00  0.00    +0.004 A 
ATOM      5  C   UNL A   1     -25.192   0.981  29.874  0.00  0.00    -0.000 A 
ATOM      6  C   UNL A   1     -26.506   1.213  30.113  0.00  0.00    -0.001 A 
ATOM      7  C   UNL A   1     -27.486   0.455  29.730  0.00  0.00    +0.022 A 
ATOM      8  C   UNL A   1     -23.460  -0.395  28.915  0.00  0.00    +0.011 A 
ATOM      9  C   UNL A   1     -22.547   0.646  28.723  0.00  0.00    +0.058 A 
ATOM     10  C   UNL A   1     -23.039   1.908  29.273  0.00  0.00    +0.011 A 
ATOM     11  C   UNL A   1     -24.190   2.041  29.953  0.00  0.00    +0.001 A 
ATOM     12 CL   UNL A   1     -20.978   0.476  28.309  0.00  0.00    -0.082 Cl
ATOM     13  C   UNL A   1     -29.338  -0.622  28.459  0.00  0.00    +0.217 C 
ATOM     14  C   UNL A   1     -28.999   0.482  29.386  0.00  0.00    +0.096 C 
ENDROOT
BRANCH  14  15
ATOM     15  C   UNL A   1     -29.409   1.893  28.905  0.00  0.00    -0.012 A 
ATOM     16  C   UNL A   1     -29.016   2.446  28.022  0.00  0.00    -0.004 A 
ATOM     17  C   UNL A   1     -29.401   3.672  27.568  0.00  0.00    -0.000 A 
ATOM     18  C   UNL A   1     -30.546   2.430  29.652  0.00  0.00    -0.004 A 
ATOM     19  C   UNL A   1     -31.030   3.673  29.263  0.00  0.00    -0.000 A 
ATOM     20  C   UNL A   1     -30.420   4.315  28.194  0.00  0.00    -0.000 A 
ENDBRANCH  14  15
BRANCH  14  21
ATOM     21  C   UNL A   1     -29.590   0.187  30.843  0.00  0.00    -0.034 C 
ATOM     22  C   UNL A   1     -28.986  -0.697  31.504  0.00  0.00    -0.008 C 
ATOM     23  C   UNL A   1     -30.853   0.759  31.129  0.00  0.00    +0.027 C 
ENDBRANCH  14  21
TORSDOF 2
