MODEL 867
MODEL 1
REMARK VINA RESULT:    -7.822      0.000      0.000
REMARK INTER + INTRA:          -9.191
REMARK INTER:                  -8.737
REMARK INTRA:                  -0.454
REMARK UNBOUND:                -0.454
REMARK  Name = No_867-gen_results/8p0m/2024-11-26-14-13-15/
REMARK  2 active torsions:
REMARK  status: ('A' for Active; 'I' for Inactive)
REMARK    1  A    between atoms: C_14  and  C_15
REMARK    2  A    between atoms: C_14  and  C_16
REMARK                            x       y       z     vdW  Elec       q    Type
REMARK                         _______ _______ _______ _____ _____    ______ ____
ROOT
ATOM      1  O   UNL A   1     -26.304   0.738  29.767  0.00  0.00    -0.475 OA
ATOM      2  C   UNL A   1     -25.902   0.560  30.923  0.00  0.00    +0.135 A 
ATOM      3  C   UNL A   1     -26.144   0.808  31.888  0.00  0.00    +0.037 A 
ATOM      4  C   UNL A   1     -25.694   0.407  33.219  0.00  0.00    +0.004 A 
ATOM      5  C   UNL A   1     -24.616  -0.499  33.158  0.00  0.00    -0.000 A 
ATOM      6  C   UNL A   1     -24.185  -0.872  31.928  0.00  0.00    -0.001 A 
ATOM      7  C   UNL A   1     -24.668  -0.450  30.801  0.00  0.00    +0.022 A 
ATOM      8  C   UNL A   1     -26.105   0.801  34.539  0.00  0.00    +0.011 A 
ATOM      9  C   UNL A   1     -26.081  -0.074  35.629  0.00  0.00    +0.058 A 
ATOM     10  C   UNL A   1     -25.141  -1.174  35.422  0.00  0.00    +0.011 A 
ATOM     11  C   UNL A   1     -24.337  -1.293  34.352  0.00  0.00    +0.001 A 
ATOM     12 CL   UNL A   1     -26.686   0.233  37.113  0.00  0.00    -0.082 Cl
ATOM     13  C   UNL A   1     -25.999  -0.150  28.717  0.00  0.00    +0.217 C 
ATOM     14  C   UNL A   1     -24.832  -0.843  29.309  0.00  0.00    +0.096 C 
ENDROOT
BRANCH  14  15
ATOM     15  C   UNL A   1     -24.839  -2.382  29.164  0.00  0.00    -0.012 A 
ATOM     16  C   UNL A   1     -24.005  -3.031  28.810  0.00  0.00    -0.004 A 
ATOM     17  C   UNL A   1     -23.990  -4.390  28.717  0.00  0.00    -0.000 A 
ATOM     18  C   UNL A   1     -26.051  -2.990  29.712  0.00  0.00    -0.004 A 
ATOM     19  C   UNL A   1     -26.134  -4.377  29.680  0.00  0.00    -0.000 A 
ATOM     20  C   UNL A   1     -25.069  -5.092  29.148  0.00  0.00    -0.000 A 
ENDBRANCH  14  15
BRANCH  14  21
ATOM     21  C   UNL A   1     -23.470  -0.227  28.739  0.00  0.00    -0.034 C 
ATOM     22  C   UNL A   1     -22.499  -0.227  29.539  0.00  0.00    -0.008 C 
ATOM     23  C   UNL A   1     -23.568   0.468  27.510  0.00  0.00    +0.027 C 
ENDBRANCH  14  21
TORSDOF 2
ENDMDL
ENDMDL
