REMARK  Name = No_869-gen_results/8p0m/2024-11-26-14-13-15/
REMARK  1 active torsions:
REMARK  status: ('A' for Active; 'I' for Inactive)
REMARK    1  A    between atoms: C_2  and  C_5
REMARK                            x       y       z     vdW  Elec       q    Type
REMARK                         _______ _______ _______ _____ _____    ______ ____
ROOT
ATOM      1  C   UNL A   1     -28.016  -0.814  28.878  0.00  0.00    +0.007 A 
ATOM      2  C   UNL A   1     -28.469  -0.785  29.829  0.00  0.00    +0.080 A 
ATOM      3  C   UNL A   1     -28.182   0.428  28.113  0.00  0.00    +0.000 A 
ATOM      4  C   UNL A   1     -28.984   1.415  28.515  0.00  0.00    +0.000 A 
ATOM      5  C   UNL A   1     -29.561   1.293  29.742  0.00  0.00    +0.000 A 
ATOM      6  C   UNL A   1     -29.320   0.165  30.445  0.00  0.00    +0.007 A 
ENDROOT
BRANCH   2   7
ATOM      7  C   UNL A   1     -28.337  -2.048  30.787  0.00  0.00    +0.388 C 
ATOM      8  O   UNL A   1     -27.351  -2.115  31.366  0.00  0.00    -0.241 OA
ATOM      9  O   UNL A   1     -29.269  -2.970  30.709  0.00  0.00    -0.241 OA
ENDBRANCH   2   7
TORSDOF 1
