MODEL 869
MODEL 1
REMARK VINA RESULT:    -5.082      0.000      0.000
REMARK INTER + INTRA:          -5.425
REMARK INTER:                  -5.379
REMARK INTRA:                  -0.046
REMARK UNBOUND:                -0.046
REMARK  Name = No_869-gen_results/8p0m/2024-11-26-14-13-15/
REMARK  1 active torsions:
REMARK  status: ('A' for Active; 'I' for Inactive)
REMARK    1  A    between atoms: C_2  and  C_5
REMARK                            x       y       z     vdW  Elec       q    Type
REMARK                         _______ _______ _______ _____ _____    ______ ____
ROOT
ATOM      1  C   UNL A   1     -28.738 -10.675  32.771  0.00  0.00    +0.007 A 
ATOM      2  C   UNL A   1     -28.224 -11.463  32.297  0.00  0.00    +0.080 A 
ATOM      3  C   UNL A   1     -29.745 -10.036  31.915  0.00  0.00    +0.000 A 
ATOM      4  C   UNL A   1     -29.857 -10.308  30.615  0.00  0.00    +0.000 A 
ATOM      5  C   UNL A   1     -29.081 -11.309  30.115  0.00  0.00    +0.000 A 
ATOM      6  C   UNL A   1     -28.221 -11.923  30.958  0.00  0.00    +0.007 A 
ENDROOT
BRANCH   2   7
ATOM      7  C   UNL A   1     -27.129 -12.276  33.117  0.00  0.00    +0.388 C 
ATOM      8  O   UNL A   1     -26.365 -12.839  32.477  0.00  0.00    -0.241 OA
ATOM      9  O   UNL A   1     -27.290 -12.369  34.417  0.00  0.00    -0.241 OA
ENDBRANCH   2   7
TORSDOF 1
ENDMDL
ENDMDL
