MODEL 86
MODEL 1
REMARK VINA RESULT:    -5.012      0.000      0.000
REMARK INTER + INTRA:          -5.382
REMARK INTER:                  -5.305
REMARK INTRA:                  -0.077
REMARK UNBOUND:                -0.077
REMARK  Name = No_86-gen_results/8p0m/2024-11-26-14-13-15/
REMARK  1 active torsions:
REMARK  status: ('A' for Active; 'I' for Inactive)
REMARK    1  A    between atoms: C_3  and  C_4
REMARK                            x       y       z     vdW  Elec       q    Type
REMARK                         _______ _______ _______ _____ _____    ______ ____
ROOT
ATOM      1  C   UNL A   1     -25.767  -2.478  29.756  0.00  0.00    -0.000 A 
ATOM      2  C   UNL A   1     -26.413  -3.299  29.896  0.00  0.00    -0.000 A 
ATOM      3  C   UNL A   1     -24.478  -2.734  29.238  0.00  0.00    -0.000 A 
ATOM      4  C   UNL A   1     -26.220  -4.740  29.655  0.00  0.00    -0.000 A 
ATOM      5  C   UNL A   1     -24.965  -5.069  29.143  0.00  0.00    -0.000 A 
ATOM      6  C   UNL A   1     -24.077  -4.076  28.876  0.00  0.00    -0.000 A 
ENDROOT
BRANCH   3   7
ATOM      7  C   UNL A   1     -23.489  -1.684  28.880  0.00  0.00    -0.005 C 
ATOM      8  C   UNL A   1     -22.797  -0.995  29.455  0.00  0.00    -0.026 C 
ATOM      9  C   UNL A   1     -23.077  -1.011  30.969  0.00  0.00    +0.031 C 
ENDBRANCH   3   7
TORSDOF 1
ENDMDL
ENDMDL
