REMARK  Name = No_87-gen_results/8p0m/2024-11-26-14-13-15/
REMARK  2 active torsions:
REMARK  status: ('A' for Active; 'I' for Inactive)
REMARK    1  A    between atoms: C_4  and  C_8
REMARK    2  A    between atoms: C_9  and  N_14
REMARK                            x       y       z     vdW  Elec       q    Type
REMARK                         _______ _______ _______ _____ _____    ______ ____
ROOT
ATOM      1  C   UNL A   1     -24.631   1.050  27.154  0.00  0.00    +0.014 A 
ATOM      2  C   UNL A   1     -24.426   1.334  26.076  0.00  0.00    +0.062 A 
ATOM      3  C   UNL A   1     -23.206   0.985  27.875  0.00  0.00    -0.001 A 
ATOM      4  C   UNL A   1     -22.089   1.477  27.311  0.00  0.00    -0.000 A 
ATOM      5  C   UNL A   1     -23.287   1.843  25.357  0.00  0.00    +0.017 A 
ATOM      6  C   UNL A   1     -22.116   1.911  26.041  0.00  0.00    +0.002 A 
ENDROOT
BRANCH   1  10
ATOM      7  O   UNL A   1     -28.123  -1.335  28.487  0.00  0.00    -0.251 OA
ATOM      8  C   UNL A   1     -27.481  -0.404  28.709  0.00  0.00    +0.325 C 
ATOM      9  N   UNL A   1     -26.460  -0.110  28.005  0.00  0.00    -0.185 NA
ATOM     10  C   UNL A   1     -25.810   0.660  28.079  0.00  0.00    +0.125 C 
ATOM     11  C   UNL A   1     -25.803   1.617  29.134  0.00  0.00    +0.083 C 
ATOM     12  N   UNL A   1     -27.779   0.272  29.947  0.00  0.00    -0.235 N 
ATOM     13  C   UNL A   1     -26.885   1.360  30.100  0.00  0.00    +0.243 C 
ATOM     14  F   UNL A   1     -27.101   2.133  31.180  0.00  0.00    -0.215 F 
ATOM     15  C   UNL A   1     -28.844  -0.008  30.760  0.00  0.00    +0.119 C 
ENDBRANCH   1  10
BRANCH   2  16
ATOM     16  N   UNL A   1     -25.600   1.286  25.228  0.00  0.00    -0.304 N 
ATOM     17  C   UNL A   1     -26.041   0.188  24.525  0.00  0.00    +0.080 A 
ATOM     18  C   UNL A   1     -27.370   0.178  24.151  0.00  0.00    +0.021 A 
ATOM     19  C   UNL A   1     -27.943   1.467  24.350  0.00  0.00    +0.021 A 
ATOM     20  C   UNL A   1     -26.727   2.188  25.291  0.00  0.00    +0.080 A 
ENDBRANCH   2  16
TORSDOF 2
