REMARK  Name = No_871-gen_results/8p0m/2024-11-26-14-13-15/
REMARK  8 active torsions:
REMARK  status: ('A' for Active; 'I' for Inactive)
REMARK    1  A    between atoms: C_2  and  C_13
REMARK    2  A    between atoms: C_4  and  C_6
REMARK    3  A    between atoms: C_13  and  O_15
REMARK    4  A    between atoms: O_15  and  C_16
REMARK    5  A    between atoms: C_16  and  C_25
REMARK    6  A    between atoms: C_17  and  C_18
REMARK    7  A    between atoms: C_18  and  C_19
REMARK    8  A    between atoms: C_23  and  C_33
REMARK                            x       y       z     vdW  Elec       q    Type
REMARK                         _______ _______ _______ _____ _____    ______ ____
ROOT
ATOM      1  C   UNL A   1     -31.837   0.293  28.730  0.00  0.00    +0.198 C 
ATOM      2  C   UNL A   1     -32.769   0.921  29.237  0.00  0.00    +0.021 C 
ENDROOT
BRANCH   1   3
ATOM      3  C   UNL A   1     -31.973  -0.444  27.489  0.00  0.00    +0.283 C 
ATOM      4  N   UNL A   1     -31.461   0.023  26.369  0.00  0.00    -0.274 N 
ATOM      5  C   UNL A   1     -31.224   1.169  26.037  0.00  0.00    +0.094 C 
ATOM      6  C   UNL A   1     -30.551   1.476  24.779  0.00  0.00    +0.022 C 
ATOM      7  C   UNL A   1     -30.938  -0.953  25.370  0.00  0.00    +0.094 C 
ATOM      8  C   UNL A   1     -30.347  -0.755  24.205  0.00  0.00    +0.022 C 
ATOM      9  C   UNL A   1     -30.113   0.548  23.912  0.00  0.00    +0.004 C 
ATOM     10  O   UNL A   1     -32.712  -1.485  27.534  0.00  0.00    -0.267 OA
ENDBRANCH   1   3
BRANCH   1  11
ATOM     11  O   UNL A   1     -30.591   0.238  29.215  0.00  0.00    -0.417 OA
BRANCH  11  12
ATOM     12  C   UNL A   1     -30.087  -0.765  29.851  0.00  0.00    +0.346 C 
ATOM     13  O   UNL A   1     -30.767  -1.575  30.303  0.00  0.00    -0.244 OA
BRANCH  12  15
ATOM     14  C   UNL A   1     -28.016  -0.814  28.878  0.00  0.00    +0.006 A 
ATOM     15  C   UNL A   1     -28.469  -0.785  29.829  0.00  0.00    +0.076 A 
ATOM     16  C   UNL A   1     -26.504  -0.778  28.877  0.00  0.00    +0.000 A 
ATOM     17  C   UNL A   1     -25.810  -0.853  30.103  0.00  0.00    +0.000 A 
ATOM     18  C   UNL A   1     -27.991  -0.892  31.226  0.00  0.00    +0.006 A 
ATOM     19  C   UNL A   1     -26.575  -0.890  31.266  0.00  0.00    +0.000 A 
BRANCH  17  20
ATOM     20  C   UNL A   1     -24.398  -0.836  30.177  0.00  0.00    +0.000 A 
ATOM     21  C   UNL A   1     -23.771  -0.918  31.096  0.00  0.00    +0.000 A 
ATOM     22  C   UNL A   1     -23.656  -0.714  28.886  0.00  0.00    +0.000 A 
ATOM     23  C   UNL A   1     -22.252  -0.575  28.940  0.00  0.00    +0.000 A 
ATOM     24  C   UNL A   1     -22.295  -0.772  31.321  0.00  0.00    +0.000 A 
ATOM     25  C   UNL A   1     -21.608  -0.591  30.114  0.00  0.00    +0.000 A 
ENDBRANCH  17  20
ENDBRANCH  12  15
ENDBRANCH  11  12
ENDBRANCH   1  11
BRANCH   2  26
ATOM     26  C   UNL A   1     -32.373   1.913  30.177  0.00  0.00    +0.056 C 
BRANCH  26  27
ATOM     27  C   UNL A   1     -31.285   2.571  30.112  0.00  0.00    -0.018 A 
ATOM     28  C   UNL A   1     -30.746   3.282  31.266  0.00  0.00    -0.004 A 
ATOM     29  C   UNL A   1     -29.480   3.993  31.216  0.00  0.00    -0.000 A 
ATOM     30  C   UNL A   1     -28.755   3.920  29.973  0.00  0.00    -0.000 A 
ATOM     31  C   UNL A   1     -29.254   3.231  28.928  0.00  0.00    -0.001 A 
ATOM     32  C   UNL A   1     -30.400   2.583  29.035  0.00  0.00    -0.004 A 
BRANCH  31  33
ATOM     33  C   UNL A   1     -28.421   3.271  27.708  0.00  0.00    -0.005 C 
ATOM     34  C   UNL A   1     -27.140   3.090  27.765  0.00  0.00    -0.026 C 
ATOM     35  C   UNL A   1     -26.485   3.749  28.930  0.00  0.00    +0.031 C 
ENDBRANCH  31  33
ENDBRANCH  26  27
ENDBRANCH   2  26
TORSDOF 8
