MODEL 871
MODEL 1
REMARK VINA RESULT:    -7.104      0.000      0.000
REMARK INTER + INTRA:         -14.872
REMARK INTER:                 -10.426
REMARK INTRA:                  -4.446
REMARK UNBOUND:                -4.446
REMARK  Name = No_871-gen_results/8p0m/2024-11-26-14-13-15/
REMARK  8 active torsions:
REMARK  status: ('A' for Active; 'I' for Inactive)
REMARK    1  A    between atoms: C_2  and  C_13
REMARK    2  A    between atoms: C_4  and  C_6
REMARK    3  A    between atoms: C_13  and  O_15
REMARK    4  A    between atoms: O_15  and  C_16
REMARK    5  A    between atoms: C_16  and  C_25
REMARK    6  A    between atoms: C_17  and  C_18
REMARK    7  A    between atoms: C_18  and  C_19
REMARK    8  A    between atoms: C_23  and  C_33
REMARK                            x       y       z     vdW  Elec       q    Type
REMARK                         _______ _______ _______ _____ _____    ______ ____
ROOT
ATOM      1  C   UNL A   1     -23.679   1.113  30.017  0.00  0.00    +0.198 C 
ATOM      2  C   UNL A   1     -24.574   1.510  30.766  0.00  0.00    +0.021 C 
ENDROOT
BRANCH   1   3
ATOM      3  C   UNL A   1     -23.187  -0.251  30.040  0.00  0.00    +0.283 C 
ATOM      4  N   UNL A   1     -24.013  -1.267  29.899  0.00  0.00    -0.274 N 
ATOM      5  C   UNL A   1     -25.200  -1.350  30.153  0.00  0.00    +0.094 C 
ATOM      6  C   UNL A   1     -25.969  -2.545  29.824  0.00  0.00    +0.022 C 
ATOM      7  C   UNL A   1     -23.520  -2.486  29.194  0.00  0.00    +0.094 C 
ATOM      8  C   UNL A   1     -24.143  -3.610  28.887  0.00  0.00    +0.022 C 
ATOM      9  C   UNL A   1     -25.462  -3.620  29.197  0.00  0.00    +0.004 C 
ATOM     10  O   UNL A   1     -21.950  -0.395  30.325  0.00  0.00    -0.267 OA
ENDBRANCH   1   3
BRANCH   1  11
ATOM     11  O   UNL A   1     -23.080   1.849  29.074  0.00  0.00    -0.417 OA
BRANCH  11  12
ATOM     12  C   UNL A   1     -22.829   1.452  27.872  0.00  0.00    +0.346 C 
ATOM     13  O   UNL A   1     -21.756   1.185  27.555  0.00  0.00    -0.244 OA
BRANCH  12  15
ATOM     14  C   UNL A   1     -24.462   0.295  26.763  0.00  0.00    +0.006 A 
ATOM     15  C   UNL A   1     -24.159   1.283  26.966  0.00  0.00    +0.076 A 
ATOM     16  C   UNL A   1     -25.736   0.158  25.959  0.00  0.00    +0.000 A 
ATOM     17  C   UNL A   1     -26.343   1.314  25.424  0.00  0.00    +0.000 A 
ATOM     18  C   UNL A   1     -24.578   2.628  26.510  0.00  0.00    +0.006 A 
ATOM     19  C   UNL A   1     -25.756   2.540  25.728  0.00  0.00    +0.000 A 
BRANCH  17  20
ATOM     20  C   UNL A   1     -27.528   1.261  24.654  0.00  0.00    +0.000 A 
ATOM     21  C   UNL A   1     -28.021   2.105  24.118  0.00  0.00    +0.000 A 
ATOM     22  C   UNL A   1     -28.189  -0.073  24.525  0.00  0.00    +0.000 A 
ATOM     23  C   UNL A   1     -29.435  -0.132  23.864  0.00  0.00    +0.000 A 
ATOM     24  C   UNL A   1     -29.334   2.209  23.399  0.00  0.00    +0.000 A 
ATOM     25  C   UNL A   1     -29.983   0.970  23.337  0.00  0.00    +0.000 A 
ENDBRANCH  17  20
ENDBRANCH  12  15
ENDBRANCH  11  12
ENDBRANCH   1  11
BRANCH   2  26
ATOM     26  C   UNL A   1     -25.224   2.699  30.333  0.00  0.00    +0.056 C 
BRANCH  26  27
ATOM     27  C   UNL A   1     -26.301   2.724  29.654  0.00  0.00    -0.018 A 
ATOM     28  C   UNL A   1     -26.830   3.963  29.094  0.00  0.00    -0.004 A 
ATOM     29  C   UNL A   1     -28.029   3.993  28.275  0.00  0.00    -0.000 A 
ATOM     30  C   UNL A   1     -28.648   2.721  28.002  0.00  0.00    -0.000 A 
ATOM     31  C   UNL A   1     -28.126   1.584  28.501  0.00  0.00    -0.001 A 
ATOM     32  C   UNL A   1     -27.020   1.611  29.221  0.00  0.00    -0.004 A 
BRANCH  31  33
ATOM     33  C   UNL A   1     -28.884   0.359  28.168  0.00  0.00    -0.005 C 
ATOM     34  C   UNL A   1     -30.006   0.086  28.755  0.00  0.00    -0.026 C 
ATOM     35  C   UNL A   1     -30.019   0.392  30.213  0.00  0.00    +0.031 C 
ENDBRANCH  31  33
ENDBRANCH  26  27
ENDBRANCH   2  26
TORSDOF 8
ENDMDL
ENDMDL
