REMARK  Name = No_872-gen_results/8p0m/2024-11-26-14-13-15/
REMARK  9 active torsions:
REMARK  status: ('A' for Active; 'I' for Inactive)
REMARK    1  A    between atoms: C_10  and  C_13
REMARK    2  A    between atoms: C_13  and  O_15
REMARK    3  A    between atoms: O_15  and  C_20
REMARK    4  A    between atoms: C_20  and  C_21
REMARK    5  A    between atoms: C_21  and  O_22
REMARK    6  A    between atoms: O_22  and  C_23
REMARK    7  A    between atoms: C_25  and  C_26
REMARK    8  A    between atoms: C_25  and  C_32
REMARK    9  A    between atoms: C_33  and  C_34
REMARK                            x       y       z     vdW  Elec       q    Type
REMARK                         _______ _______ _______ _____ _____    ______ ____
ROOT
ATOM      1  C   UNL A   1     -29.081  -2.697  30.251  0.00  0.00    +0.342 C 
ATOM      2  O   UNL A   1     -29.339  -2.789  31.503  0.00  0.00    -0.245 OA
ENDROOT
BRANCH   1  12
ATOM      3  C   UNL A   1     -28.016  -0.814  28.878  0.00  0.00    +0.064 A 
ATOM      4  C   UNL A   1     -27.064  -0.119  28.608  0.00  0.00    +0.015 A 
ATOM      5  C   UNL A   1     -25.765  -0.390  29.036  0.00  0.00    +0.035 A 
ATOM      6  C   UNL A   1     -24.552   0.406  28.765  0.00  0.00    +0.003 A 
ATOM      7  C   UNL A   1     -24.696   1.448  27.799  0.00  0.00    +0.011 A 
ATOM      8  C   UNL A   1     -23.582   2.216  27.463  0.00  0.00    +0.058 A 
ATOM      9  C   UNL A   1     -22.329   1.843  27.966  0.00  0.00    +0.011 A 
ATOM     10  C   UNL A   1     -22.181   0.828  28.881  0.00  0.00    +0.000 A 
ATOM     11  C   UNL A   1     -23.319   0.077  29.247  0.00  0.00    +0.021 A 
ATOM     12  C   UNL A   1     -27.906  -1.877  29.867  0.00  0.00    +0.089 A 
ATOM     13  C   UNL A   1     -26.665  -2.332  30.289  0.00  0.00    +0.044 A 
ATOM     14  C   UNL A   1     -25.548  -1.561  29.918  0.00  0.00    +0.139 A 
ATOM     15 CL   UNL A   1     -23.734   3.448  26.280  0.00  0.00    -0.082 Cl
ATOM     16  O   UNL A   1     -24.377  -1.846  30.409  0.00  0.00    -0.471 OA
ATOM     17  C   UNL A   1     -23.257  -1.075  30.065  0.00  0.00    +0.232 C 
ATOM     18 CL   UNL A   1     -29.608  -0.379  28.374  0.00  0.00    -0.082 Cl
ENDBRANCH   1  12
BRANCH   1  19
ATOM     19  O   UNL A   1     -29.497  -3.677  29.549  0.00  0.00    -0.442 OA
BRANCH  19  20
ATOM     20  C   UNL A   1     -30.487  -4.512  30.156  0.00  0.00    +0.252 C 
BRANCH  20  21
ATOM     21  C   UNL A   1     -31.242  -5.210  29.311  0.00  0.00    +0.210 C 
ATOM     22  C   UNL A   1     -30.737  -6.261  28.418  0.00  0.00    +0.051 C 
BRANCH  21  23
ATOM     23  O   UNL A   1     -32.236  -4.866  29.201  0.00  0.00    -0.472 OA
BRANCH  23  24
ATOM     24  C   UNL A   1     -32.456  -3.607  29.140  0.00  0.00    +0.172 C 
ATOM     25  C   UNL A   1     -33.218  -2.971  28.369  0.00  0.00    +0.037 C 
BRANCH  25  26
ATOM     26  C   UNL A   1     -33.338  -1.563  28.286  0.00  0.00    +0.003 A 
ATOM     27  C   UNL A   1     -33.645  -0.860  27.145  0.00  0.00    +0.000 A 
ATOM     28  C   UNL A   1     -33.635   0.557  27.081  0.00  0.00    +0.000 A 
ATOM     29  C   UNL A   1     -33.358   1.276  28.248  0.00  0.00    +0.000 A 
ATOM     30  C   UNL A   1     -33.098   0.604  29.443  0.00  0.00    +0.000 A 
ATOM     31  C   UNL A   1     -33.023  -0.817  29.445  0.00  0.00    +0.000 A 
ENDBRANCH  25  26
BRANCH  25  32
ATOM     32  C   UNL A   1     -34.629  -3.569  28.463  0.00  0.00    +0.003 C 
ATOM     33  C   UNL A   1     -35.332  -3.639  27.698  0.00  0.00    +0.000 C 
BRANCH  33  34
ATOM     34  C   UNL A   1     -36.680  -4.231  27.824  0.00  0.00    +0.000 C 
ATOM     35  C   UNL A   1     -36.963  -4.767  29.035  0.00  0.00    +0.000 C 
ENDBRANCH  33  34
ENDBRANCH  25  32
ENDBRANCH  23  24
ENDBRANCH  21  23
ENDBRANCH  20  21
ENDBRANCH  19  20
ENDBRANCH   1  19
TORSDOF 9
