REMARK  Name = No_873-gen_results/8p0m/2024-11-26-14-13-15/
REMARK  5 active torsions:
REMARK  status: ('A' for Active; 'I' for Inactive)
REMARK    1  A    between atoms: C_2  and  N_7
REMARK    2  A    between atoms: C_3  and  C_17
REMARK    3  A    between atoms: C_11  and  C_13
REMARK    4  A    between atoms: C_17  and  C_18
REMARK    5  A    between atoms: C_22  and  C_24
REMARK                            x       y       z     vdW  Elec       q    Type
REMARK                         _______ _______ _______ _____ _____    ______ ____
ROOT
ATOM      1  C   UNL A   1     -28.016  -0.814  28.878  0.00  0.00    +0.011 A 
ATOM      2  C   UNL A   1     -28.469  -0.785  29.829  0.00  0.00    +0.048 A 
ATOM      3  C   UNL A   1     -26.504  -0.778  28.877  0.00  0.00    -0.006 A 
ATOM      4  C   UNL A   1     -25.810  -0.853  30.103  0.00  0.00    +0.054 A 
ATOM      5  C   UNL A   1     -27.991  -0.892  31.226  0.00  0.00    +0.015 A 
ATOM      6  C   UNL A   1     -26.604  -0.868  31.265  0.00  0.00    +0.012 A 
ATOM      7 CL   UNL A   1     -24.143  -0.974  30.291  0.00  0.00    -0.083 Cl
ENDROOT
BRANCH   2   8
ATOM      8  N   UNL A   1     -29.977  -0.829  29.850  0.00  0.00    -0.307 N 
ATOM      9  C   UNL A   1     -30.739   0.162  30.242  0.00  0.00    +0.091 C 
ATOM     10  C   UNL A   1     -31.521   0.707  29.911  0.00  0.00    +0.022 C 
ATOM     11  C   UNL A   1     -32.165   0.399  28.578  0.00  0.00    +0.015 C 
ATOM     12  C   UNL A   1     -31.701  -0.834  28.092  0.00  0.00    +0.123 C 
ATOM     13  C   UNL A   1     -30.550  -1.429  28.713  0.00  0.00    +0.102 C 
BRANCH  12  14
ATOM     14  C   UNL A   1     -32.243  -1.401  26.862  0.00  0.00    +0.366 C 
ATOM     15  O   UNL A   1     -32.496  -2.526  26.729  0.00  0.00    -0.246 OA
ATOM     16  O   UNL A   1     -32.401  -0.617  25.785  0.00  0.00    -0.246 OA
ENDBRANCH  12  14
ENDBRANCH   2   8
BRANCH   3  17
ATOM     17  C   UNL A   1     -25.635  -0.703  27.641  0.00  0.00    +0.053 C 
BRANCH  17  18
ATOM     18  C   UNL A   1     -25.258   0.626  27.213  0.00  0.00    -0.018 A 
ATOM     19  C   UNL A   1     -23.987   0.970  27.600  0.00  0.00    -0.004 A 
ATOM     20  C   UNL A   1     -23.373   2.171  27.049  0.00  0.00    -0.000 A 
ATOM     21  C   UNL A   1     -24.114   2.877  26.128  0.00  0.00    -0.000 A 
ATOM     22  C   UNL A   1     -25.907   1.266  26.191  0.00  0.00    -0.002 A 
ATOM     23  C   UNL A   1     -25.420   2.298  25.780  0.00  0.00    -0.000 A 
BRANCH  22  24
ATOM     24  C   UNL A   1     -27.130   0.774  25.656  0.00  0.00    +0.027 A 
ATOM     25  C   UNL A   1     -28.329   1.329  26.261  0.00  0.00    +0.140 A 
ATOM     26  C   UNL A   1     -29.587   0.925  25.734  0.00  0.00    +0.030 A 
ATOM     27  C   UNL A   1     -29.611   0.086  24.615  0.00  0.00    +0.002 A 
ATOM     28  C   UNL A   1     -27.202  -0.033  24.575  0.00  0.00    +0.002 A 
ATOM     29  C   UNL A   1     -28.452  -0.389  24.087  0.00  0.00    +0.000 A 
ATOM     30  F   UNL A   1     -28.273   2.122  27.272  0.00  0.00    -0.204 F 
ENDBRANCH  22  24
ENDBRANCH  17  18
ENDBRANCH   3  17
TORSDOF 5
