REMARK  Name = No_874-gen_results/8p0m/2024-11-26-14-13-15/
REMARK  3 active torsions:
REMARK  status: ('A' for Active; 'I' for Inactive)
REMARK    1  A    between atoms: C_2  and  C_11
REMARK    2  A    between atoms: C_3  and  C_7
REMARK    3  A    between atoms: C_6  and  C_14
REMARK                            x       y       z     vdW  Elec       q    Type
REMARK                         _______ _______ _______ _____ _____    ______ ____
ROOT
ATOM      1  C   UNL A   1     -28.016  -0.814  28.878  0.00  0.00    +0.010 A 
ATOM      2  C   UNL A   1     -28.469  -0.785  29.829  0.00  0.00    +0.080 A 
ATOM      3  C   UNL A   1     -27.136   0.236  28.535  0.00  0.00    +0.072 A 
ATOM      4  C   UNL A   1     -26.875   1.282  29.398  0.00  0.00    +0.008 A 
ATOM      5  C   UNL A   1     -28.361   0.199  30.924  0.00  0.00    +0.010 A 
ATOM      6  C   UNL A   1     -27.528   1.223  30.636  0.00  0.00    +0.072 A 
ENDROOT
BRANCH   3   7
ATOM      7  C   UNL A   1     -26.388   0.291  27.233  0.00  0.00    +0.419 C 
ATOM      8  F   UNL A   1     -25.779  -0.523  27.034  0.00  0.00    -0.166 F 
ATOM      9  F   UNL A   1     -27.410   0.497  26.241  0.00  0.00    -0.166 F 
ATOM     10  F   UNL A   1     -25.663   1.501  26.997  0.00  0.00    -0.166 F 
ENDBRANCH   3   7
BRANCH   6  11
ATOM     11  C   UNL A   1     -27.303   2.330  31.612  0.00  0.00    +0.419 C 
ATOM     12  F   UNL A   1     -27.820   2.371  32.682  0.00  0.00    -0.166 F 
ATOM     13  F   UNL A   1     -25.921   2.273  31.855  0.00  0.00    -0.166 F 
ATOM     14  F   UNL A   1     -27.474   3.507  30.941  0.00  0.00    -0.166 F 
ENDBRANCH   6  11
BRANCH   2  15
ATOM     15  C   UNL A   1     -29.302  -2.110  30.166  0.00  0.00    +0.388 C 
ATOM     16  O   UNL A   1     -28.872  -3.231  30.350  0.00  0.00    -0.241 OA
ATOM     17  O   UNL A   1     -30.506  -1.910  30.516  0.00  0.00    -0.241 OA
ENDBRANCH   2  15
TORSDOF 3
