MODEL 874
MODEL 1
REMARK VINA RESULT:    -6.062      0.000      0.000
REMARK INTER + INTRA:          -7.675
REMARK INTER:                  -7.125
REMARK INTRA:                  -0.550
REMARK UNBOUND:                -0.550
REMARK  Name = No_874-gen_results/8p0m/2024-11-26-14-13-15/
REMARK  3 active torsions:
REMARK  status: ('A' for Active; 'I' for Inactive)
REMARK    1  A    between atoms: C_2  and  C_11
REMARK    2  A    between atoms: C_3  and  C_7
REMARK    3  A    between atoms: C_6  and  C_14
REMARK                            x       y       z     vdW  Elec       q    Type
REMARK                         _______ _______ _______ _____ _____    ______ ____
ROOT
ATOM      1  C   UNL A   1     -28.338 -11.887  31.254  0.00  0.00    +0.010 A 
ATOM      2  C   UNL A   1     -28.292 -11.499  32.233  0.00  0.00    +0.080 A 
ATOM      3  C   UNL A   1     -29.171 -11.228  30.323  0.00  0.00    +0.072 A 
ATOM      4  C   UNL A   1     -29.918 -10.119  30.667  0.00  0.00    +0.008 A 
ATOM      5  C   UNL A   1     -28.974 -10.345  32.851  0.00  0.00    +0.010 A 
ATOM      6  C   UNL A   1     -29.783  -9.686  31.993  0.00  0.00    +0.072 A 
ENDROOT
BRANCH   3   7
ATOM      7  C   UNL A   1     -29.290 -11.647  28.885  0.00  0.00    +0.419 C 
ATOM      8  F   UNL A   1     -28.396 -11.853  28.405  0.00  0.00    -0.166 F 
ATOM      9  F   UNL A   1     -30.196 -12.765  28.912  0.00  0.00    -0.166 F 
ATOM     10  F   UNL A   1     -30.088 -10.790  28.064  0.00  0.00    -0.166 F 
ENDBRANCH   3   7
BRANCH   6  11
ATOM     11  C   UNL A   1     -30.574  -8.500  32.437  0.00  0.00    +0.419 C 
ATOM     12  F   UNL A   1     -30.627  -8.139  33.569  0.00  0.00    -0.166 F 
ATOM     13  F   UNL A   1     -29.998  -7.438  31.722  0.00  0.00    -0.166 F 
ATOM     14  F   UNL A   1     -31.825  -8.621  31.903  0.00  0.00    -0.166 F 
ENDBRANCH   6  11
BRANCH   2  15
ATOM     15  C   UNL A   1     -27.189 -12.221  33.141  0.00  0.00    +0.388 C 
ATOM     16  O   UNL A   1     -27.174 -12.324  34.351  0.00  0.00    -0.241 OA
ATOM     17  O   UNL A   1     -26.382 -12.969  32.508  0.00  0.00    -0.241 OA
ENDBRANCH   2  15
TORSDOF 3
ENDMDL
ENDMDL
