MODEL 875
MODEL 1
REMARK VINA RESULT:    -4.347      0.000      0.000
REMARK INTER + INTRA:          -4.347
REMARK INTER:                  -4.347
REMARK INTRA:                   0.000
REMARK UNBOUND:                 0.000
REMARK  Name = No_875-gen_results/8p0m/2024-11-26-14-13-15/
REMARK  0 active torsions:
REMARK  status: ('A' for Active; 'I' for Inactive)
REMARK                            x       y       z     vdW  Elec       q    Type
REMARK                         _______ _______ _______ _____ _____    ______ ____
ROOT
ATOM      1  C   UNL A   1     -25.242  -2.599  29.474  0.00  0.00    +0.007 A 
ATOM      2  C   UNL A   1     -25.963  -3.297  29.795  0.00  0.00    +0.035 A 
ATOM      3  C   UNL A   1     -24.008  -3.191  28.829  0.00  0.00    +0.001 A 
ATOM      4  C   UNL A   1     -23.960  -4.577  28.571  0.00  0.00    +0.000 A 
ATOM      5  C   UNL A   1     -26.170  -4.753  29.622  0.00  0.00    +0.007 A 
ATOM      6  C   UNL A   1     -25.057  -5.331  29.026  0.00  0.00    +0.001 A 
ATOM      7 BR   UNL A   1     -27.596  -2.524  30.640  0.00  0.00    -0.049 Br
ENDROOT
TORSDOF 0
ENDMDL
ENDMDL
