REMARK  Name = No_876-gen_results/8p0m/2024-11-26-14-13-15/
REMARK  8 active torsions:
REMARK  status: ('A' for Active; 'I' for Inactive)
REMARK    1  A    between atoms: C_2  and  C_11
REMARK    2  A    between atoms: C_4  and  C_6
REMARK    3  A    between atoms: N_12  and  C_13
REMARK    4  A    between atoms: N_12  and  C_20
REMARK    5  A    between atoms: C_20  and  C_21
REMARK    6  A    between atoms: C_21  and  C_22
REMARK    7  A    between atoms: C_22  and  C_23
REMARK    8  A    between atoms: C_27  and  C_29
REMARK                            x       y       z     vdW  Elec       q    Type
REMARK                         _______ _______ _______ _____ _____    ______ ____
ROOT
ATOM      1  C   UNL A   1     -30.075  -0.681  29.879  0.00  0.00    +0.253 C 
ATOM      2  N   UNL A   1     -30.853  -1.437  30.344  0.00  0.00    -0.255 N 
ATOM      3  O   UNL A   1     -30.447   0.360  29.133  0.00  0.00    -0.270 OA
ENDROOT
BRANCH   1   5
ATOM      4  C   UNL A   1     -28.016  -0.814  28.878  0.00  0.00    +0.004 A 
ATOM      5  C   UNL A   1     -28.469  -0.785  29.829  0.00  0.00    +0.054 A 
ATOM      6  C   UNL A   1     -26.546  -0.876  28.850  0.00  0.00    +0.002 A 
ATOM      7  C   UNL A   1     -25.804  -1.032  30.057  0.00  0.00    +0.053 A 
ATOM      8  C   UNL A   1     -27.944  -0.987  31.207  0.00  0.00    +0.004 A 
ATOM      9  C   UNL A   1     -26.561  -1.075  31.227  0.00  0.00    +0.002 A 
BRANCH   7  10
ATOM     10  C   UNL A   1     -24.401  -1.097  30.096  0.00  0.00    +0.350 C 
ATOM     11 CL   UNL A   1     -23.774  -1.914  31.056  0.00  0.00    -0.042 Cl
ATOM     12  F   UNL A   1     -23.866   0.205  30.225  0.00  0.00    -0.182 F 
ATOM     13  F   UNL A   1     -23.878  -1.323  28.760  0.00  0.00    -0.182 F 
ENDBRANCH   7  10
ENDBRANCH   1   5
BRANCH   2  14
ATOM     14  C   UNL A   1     -30.526  -2.352  31.141  0.00  0.00    +0.054 A 
ATOM     15  C   UNL A   1     -30.471  -3.613  30.804  0.00  0.00    +0.015 A 
ATOM     16  C   UNL A   1     -29.774  -4.641  31.518  0.00  0.00    +0.001 A 
ATOM     17  C   UNL A   1     -29.453  -4.412  32.838  0.00  0.00    +0.000 A 
ATOM     18  C   UNL A   1     -29.643  -3.171  33.385  0.00  0.00    +0.001 A 
ATOM     19  C   UNL A   1     -30.065  -2.142  32.518  0.00  0.00    +0.015 A 
ENDBRANCH   2  14
BRANCH   2  20
ATOM     20  C   UNL A   1     -32.154  -1.681  29.770  0.00  0.00    +0.099 C 
BRANCH  20  21
ATOM     21  C   UNL A   1     -32.941  -0.635  29.519  0.00  0.00    +0.027 C 
BRANCH  21  22
ATOM     22  C   UNL A   1     -33.360   0.079  30.335  0.00  0.00    +0.028 C 
BRANCH  22  23
ATOM     23  C   UNL A   1     -33.609  -0.344  31.682  0.00  0.00    -0.022 A 
ATOM     24  C   UNL A   1     -34.072   0.526  32.761  0.00  0.00    -0.004 A 
ATOM     25  C   UNL A   1     -34.171   0.086  34.087  0.00  0.00    -0.000 A 
ATOM     26  C   UNL A   1     -33.846  -1.262  34.361  0.00  0.00    -0.000 A 
ATOM     27  C   UNL A   1     -33.395  -2.098  33.356  0.00  0.00    -0.000 A 
ATOM     28  C   UNL A   1     -33.200  -1.616  32.080  0.00  0.00    -0.004 A 
BRANCH  27  29
ATOM     29  C   UNL A   1     -33.033  -3.486  33.723  0.00  0.00    -0.000 A 
ATOM     30  C   UNL A   1     -32.751  -3.653  35.022  0.00  0.00    -0.000 A 
ATOM     31  C   UNL A   1     -32.447  -5.040  35.435  0.00  0.00    -0.000 A 
ATOM     32  C   UNL A   1     -32.521  -6.019  34.512  0.00  0.00    +0.000 A 
ATOM     33  C   UNL A   1     -33.160  -4.551  32.934  0.00  0.00    -0.000 A 
ATOM     34  C   UNL A   1     -32.913  -5.803  33.286  0.00  0.00    -0.000 A 
ENDBRANCH  27  29
ENDBRANCH  22  23
ENDBRANCH  21  22
ENDBRANCH  20  21
ENDBRANCH   2  20
TORSDOF 8
