MODEL 876
MODEL 1
REMARK VINA RESULT:    -8.051      0.000      0.000
REMARK INTER + INTRA:         -14.806
REMARK INTER:                 -11.816
REMARK INTRA:                  -2.990
REMARK UNBOUND:                -2.990
REMARK  Name = No_876-gen_results/8p0m/2024-11-26-14-13-15/
REMARK  8 active torsions:
REMARK  status: ('A' for Active; 'I' for Inactive)
REMARK    1  A    between atoms: C_2  and  C_11
REMARK    2  A    between atoms: C_4  and  C_6
REMARK    3  A    between atoms: N_12  and  C_13
REMARK    4  A    between atoms: N_12  and  C_20
REMARK    5  A    between atoms: C_20  and  C_21
REMARK    6  A    between atoms: C_21  and  C_22
REMARK    7  A    between atoms: C_22  and  C_23
REMARK    8  A    between atoms: C_27  and  C_29
REMARK                            x       y       z     vdW  Elec       q    Type
REMARK                         _______ _______ _______ _____ _____    ______ ____
ROOT
ATOM      1  C   UNL A   1     -25.930   1.037  25.164  0.00  0.00    +0.253 C 
ATOM      2  N   UNL A   1     -25.578   1.477  26.202  0.00  0.00    -0.255 N 
ATOM      3  O   UNL A   1     -25.075   0.750  24.182  0.00  0.00    -0.270 OA
ENDROOT
BRANCH   1   5
ATOM      4  C   UNL A   1     -27.767  -0.116  24.420  0.00  0.00    +0.004 A 
ATOM      5  C   UNL A   1     -27.426   0.866  24.593  0.00  0.00    +0.054 A 
ATOM      6  C   UNL A   1     -29.147  -0.257  23.929  0.00  0.00    +0.002 A 
ATOM      7  C   UNL A   1     -29.912   0.894  23.578  0.00  0.00    +0.053 A 
ATOM      8  C   UNL A   1     -27.985   2.205  24.265  0.00  0.00    +0.004 A 
ATOM      9  C   UNL A   1     -29.279   2.120  23.775  0.00  0.00    +0.002 A 
BRANCH   7  10
ATOM     10  C   UNL A   1     -31.234   0.825  23.105  0.00  0.00    +0.350 C 
ATOM     11 CL   UNL A   1     -31.866  -0.428  23.002  0.00  0.00    -0.042 Cl
ATOM     12  F   UNL A   1     -31.322   1.455  21.842  0.00  0.00    -0.182 F 
ATOM     13  F   UNL A   1     -32.059   1.799  23.797  0.00  0.00    -0.182 F 
ENDBRANCH   7  10
ENDBRANCH   1   5
BRANCH   2  14
ATOM     14  C   UNL A   1     -26.357   1.644  27.174  0.00  0.00    +0.054 A 
ATOM     15  C   UNL A   1     -26.779   2.817  27.563  0.00  0.00    +0.015 A 
ATOM     16  C   UNL A   1     -27.919   3.063  28.395  0.00  0.00    +0.001 A 
ATOM     17  C   UNL A   1     -28.399   2.025  29.164  0.00  0.00    +0.000 A 
ATOM     18  C   UNL A   1     -27.902   0.760  28.995  0.00  0.00    +0.001 A 
ATOM     19  C   UNL A   1     -26.983   0.563  27.944  0.00  0.00    +0.015 A 
ENDBRANCH   2  14
BRANCH   2  20
ATOM     20  C   UNL A   1     -24.367   2.243  26.362  0.00  0.00    +0.099 C 
BRANCH  20  21
ATOM     21  C   UNL A   1     -23.215   1.586  26.494  0.00  0.00    +0.027 C 
BRANCH  21  22
ATOM     22  C   UNL A   1     -22.670   1.418  27.506  0.00  0.00    +0.028 C 
BRANCH  22  23
ATOM     23  C   UNL A   1     -23.293   0.772  28.625  0.00  0.00    -0.022 A 
ATOM     24  C   UNL A   1     -23.472   1.372  29.945  0.00  0.00    -0.004 A 
ATOM     25  C   UNL A   1     -23.968   0.647  31.036  0.00  0.00    -0.000 A 
ATOM     26  C   UNL A   1     -24.341  -0.699  30.819  0.00  0.00    -0.000 A 
ATOM     27  C   UNL A   1     -24.168  -1.289  29.580  0.00  0.00    -0.000 A 
ATOM     28  C   UNL A   1     -23.576  -0.591  28.549  0.00  0.00    -0.004 A 
BRANCH  27  29
ATOM     29  C   UNL A   1     -24.540  -2.715  29.436  0.00  0.00    -0.000 A 
ATOM     30  C   UNL A   1     -25.778  -3.002  29.858  0.00  0.00    -0.000 A 
ATOM     31  C   UNL A   1     -26.206  -4.405  29.670  0.00  0.00    -0.000 A 
ATOM     32  C   UNL A   1     -25.363  -5.261  29.060  0.00  0.00    +0.000 A 
ATOM     33  C   UNL A   1     -23.842  -3.631  28.768  0.00  0.00    -0.000 A 
ATOM     34  C   UNL A   1     -24.213  -4.886  28.569  0.00  0.00    -0.000 A 
ENDBRANCH  27  29
ENDBRANCH  22  23
ENDBRANCH  21  22
ENDBRANCH  20  21
ENDBRANCH   2  20
TORSDOF 8
ENDMDL
ENDMDL
