REMARK  Name = No_877-gen_results/8p0m/2024-11-26-14-13-15/
REMARK  5 active torsions:
REMARK  status: ('A' for Active; 'I' for Inactive)
REMARK    1  A    between atoms: C_2  and  C_21
REMARK    2  A    between atoms: N_14  and  C_15
REMARK    3  A    between atoms: C_18  and  C_24
REMARK    4  A    between atoms: N_25  and  C_26
REMARK    5  A    between atoms: C_26  and  C_29
REMARK                            x       y       z     vdW  Elec       q    Type
REMARK                         _______ _______ _______ _____ _____    ______ ____
ROOT
ATOM      1  C   UNL A   1     -28.016  -0.814  28.878  0.00  0.00    +0.021 A 
ATOM      2  C   UNL A   1     -28.469  -0.785  29.829  0.00  0.00    +0.081 A 
ATOM      3  C   UNL A   1     -26.546  -0.876  28.850  0.00  0.00    +0.052 A 
ATOM      4  C   UNL A   1     -25.804  -1.032  30.057  0.00  0.00    -0.004 A 
ATOM      5  C   UNL A   1     -24.370  -1.100  30.072  0.00  0.00    +0.055 C 
ATOM      6  C   UNL A   1     -27.990  -1.005  31.209  0.00  0.00    +0.006 A 
ATOM      7  C   UNL A   1     -26.562  -1.137  31.260  0.00  0.00    -0.003 A 
ATOM      8  C   UNL A   1     -23.634  -0.783  29.067  0.00  0.00    -0.004 A 
ATOM      9  C   UNL A   1     -22.176  -0.678  29.166  0.00  0.00    -0.003 A 
ATOM     10  C   UNL A   1     -21.440  -0.130  28.121  0.00  0.00    -0.000 A 
ATOM     11  C   UNL A   1     -22.101   0.876  27.308  0.00  0.00    +0.001 A 
ATOM     12  C   UNL A   1     -23.547   0.996  27.364  0.00  0.00    +0.015 A 
ATOM     13  C   UNL A   1     -24.263   0.302  28.249  0.00  0.00    +0.052 A 
ATOM     14  N   UNL A   1     -25.733  -0.293  27.860  0.00  0.00    -0.266 N 
ENDROOT
BRANCH  14  15
ATOM     15  C   UNL A   1     -26.206   0.130  26.596  0.00  0.00    +0.056 A 
ATOM     16  C   UNL A   1     -25.437  -0.062  25.531  0.00  0.00    +0.015 A 
ATOM     17  C   UNL A   1     -27.391   0.779  26.524  0.00  0.00    +0.020 A 
ATOM     18  C   UNL A   1     -27.875   1.191  25.324  0.00  0.00    +0.055 A 
ATOM     19  C   UNL A   1     -25.948   0.249  24.248  0.00  0.00    +0.001 A 
ATOM     20  C   UNL A   1     -27.144   0.871  24.172  0.00  0.00    +0.005 A 
BRANCH  18  21
ATOM     21  C   UNL A   1     -29.225   1.776  25.090  0.00  0.00    +0.249 C 
ATOM     22  N   UNL A   1     -29.457   2.854  25.582  0.00  0.00    -0.270 N 
ATOM     23  C   UNL A   1     -28.412   3.661  26.268  0.00  0.00    +0.116 C 
ATOM     24  O   UNL A   1     -29.983   1.201  24.338  0.00  0.00    -0.270 OA
BRANCH  22  25
ATOM     25  C   UNL A   1     -30.580   3.603  25.422  0.00  0.00    +0.120 C 
BRANCH  25  26
ATOM     26  C   UNL A   1     -31.493   3.524  24.794  0.00  0.00    -0.002 A 
ATOM     27  C   UNL A   1     -32.686   4.320  24.709  0.00  0.00    -0.003 A 
ATOM     28  C   UNL A   1     -33.733   4.151  23.774  0.00  0.00    -0.000 A 
ATOM     29  C   UNL A   1     -33.647   2.975  22.956  0.00  0.00    -0.000 A 
ATOM     30  C   UNL A   1     -32.576   2.130  22.971  0.00  0.00    -0.000 A 
ATOM     31  C   UNL A   1     -31.491   2.418  23.787  0.00  0.00    -0.003 A 
ENDBRANCH  25  26
ENDBRANCH  22  25
ENDBRANCH  18  21
ENDBRANCH  14  15
BRANCH   2  32
ATOM     32  C   UNL A   1     -30.098  -0.804  29.904  0.00  0.00    +0.388 C 
ATOM     33  O   UNL A   1     -30.739  -1.643  30.246  0.00  0.00    -0.241 OA
ATOM     34  O   UNL A   1     -30.628   0.323  29.409  0.00  0.00    -0.241 OA
ENDBRANCH   2  32
TORSDOF 5
