MODEL 877
MODEL 1
REMARK VINA RESULT:    -7.843      0.000      0.000
REMARK INTER + INTRA:         -11.267
REMARK INTER:                 -10.135
REMARK INTRA:                  -1.132
REMARK UNBOUND:                -1.132
REMARK  Name = No_877-gen_results/8p0m/2024-11-26-14-13-15/
REMARK  5 active torsions:
REMARK  status: ('A' for Active; 'I' for Inactive)
REMARK    1  A    between atoms: C_2  and  C_21
REMARK    2  A    between atoms: N_14  and  C_15
REMARK    3  A    between atoms: C_18  and  C_24
REMARK    4  A    between atoms: N_25  and  C_26
REMARK    5  A    between atoms: C_26  and  C_29
REMARK                            x       y       z     vdW  Elec       q    Type
REMARK                         _______ _______ _______ _____ _____    ______ ____
ROOT
ATOM      1  C   UNL A   1     -23.370 -15.469   5.002  0.00  0.00    +0.021 A 
ATOM      2  C   UNL A   1     -23.354 -14.491   5.395  0.00  0.00    +0.081 A 
ATOM      3  C   UNL A   1     -24.453 -16.349   5.469  0.00  0.00    +0.052 A 
ATOM      4  C   UNL A   1     -25.495 -15.839   6.298  0.00  0.00    -0.004 A 
ATOM      5  C   UNL A   1     -26.570 -16.664   6.771  0.00  0.00    +0.055 C 
ATOM      6  C   UNL A   1     -24.305 -13.677   6.179  0.00  0.00    +0.006 A 
ATOM      7  C   UNL A   1     -25.427 -14.452   6.623  0.00  0.00    -0.003 A 
ATOM      8  C   UNL A   1     -26.562 -17.947   6.708  0.00  0.00    -0.004 A 
ATOM      9  C   UNL A   1     -27.579 -18.771   7.366  0.00  0.00    -0.003 A 
ATOM     10  C   UNL A   1     -27.416 -20.150   7.452  0.00  0.00    -0.000 A 
ATOM     11  C   UNL A   1     -26.053 -20.649   7.507  0.00  0.00    +0.001 A 
ATOM     12  C   UNL A   1     -24.962 -19.779   7.108  0.00  0.00    +0.015 A 
ATOM     13  C   UNL A   1     -25.172 -18.492   6.830  0.00  0.00    +0.052 A 
ATOM     14  N   UNL A   1     -24.344 -17.742   5.640  0.00  0.00    -0.266 N 
ENDROOT
BRANCH  14  15
ATOM     15  C   UNL A   1     -23.314 -18.530   5.075  0.00  0.00    +0.056 A 
ATOM     16  C   UNL A   1     -23.545 -19.151   3.924  0.00  0.00    +0.015 A 
ATOM     17  C   UNL A   1     -22.156 -18.682   5.758  0.00  0.00    +0.020 A 
ATOM     18  C   UNL A   1     -21.146 -19.426   5.239  0.00  0.00    +0.055 A 
ATOM     19  C   UNL A   1     -22.485 -19.844   3.292  0.00  0.00    +0.001 A 
ATOM     20  C   UNL A   1     -21.319 -19.973   3.960  0.00  0.00    +0.005 A 
BRANCH  18  21
ATOM     21  C   UNL A   1     -19.777 -19.549   5.813  0.00  0.00    +0.249 C 
ATOM     22  N   UNL A   1     -19.559 -20.491   6.536  0.00  0.00    -0.270 N 
ATOM     23  C   UNL A   1     -20.547 -21.585   6.743  0.00  0.00    +0.116 C 
ATOM     24  O   UNL A   1     -18.924 -18.767   5.449  0.00  0.00    -0.270 OA
BRANCH  22  25
ATOM     25  C   UNL A   1     -18.368 -20.841   7.090  0.00  0.00    +0.120 C 
BRANCH  25  26
ATOM     26  C   UNL A   1     -17.575 -21.578   6.843  0.00  0.00    -0.002 A 
ATOM     27  C   UNL A   1     -17.101 -22.116   5.598  0.00  0.00    -0.003 A 
ATOM     28  C   UNL A   1     -15.997 -22.984   5.434  0.00  0.00    -0.000 A 
ATOM     29  C   UNL A   1     -15.419 -23.484   6.648  0.00  0.00    -0.000 A 
ATOM     30  C   UNL A   1     -15.806 -23.067   7.888  0.00  0.00    -0.000 A 
ATOM     31  C   UNL A   1     -16.784 -22.090   8.005  0.00  0.00    -0.003 A 
ENDBRANCH  25  26
ENDBRANCH  22  25
ENDBRANCH  18  21
ENDBRANCH  14  15
BRANCH   2  32
ATOM     32  C   UNL A   1     -22.222 -13.459   4.837  0.00  0.00    +0.388 C 
ATOM     33  O   UNL A   1     -21.997 -12.444   5.225  0.00  0.00    -0.241 OA
ATOM     34  O   UNL A   1     -21.605 -13.943   3.750  0.00  0.00    -0.241 OA
ENDBRANCH   2  32
TORSDOF 5
ENDMDL
ENDMDL
