MODEL 878
MODEL 1
REMARK VINA RESULT:    -3.497      0.000      0.000
REMARK INTER + INTRA:          -3.767
REMARK INTER:                  -3.701
REMARK INTRA:                  -0.066
REMARK UNBOUND:                -0.066
REMARK  Name = No_878-gen_results/8p0m/2024-11-26-14-13-15/
REMARK  1 active torsions:
REMARK  status: ('A' for Active; 'I' for Inactive)
REMARK    1  A    between atoms: C_3  and  C_4
REMARK                            x       y       z     vdW  Elec       q    Type
REMARK                         _______ _______ _______ _____ _____    ______ ____
ROOT
ATOM      1 CL   UNL A   1      -9.258 -10.448  17.608  0.00  0.00    -0.081 Cl
ATOM      2  C   UNL A   1      -9.991  -9.768  18.309  0.00  0.00    +0.068 C 
ATOM      3  C   UNL A   1      -9.471  -9.296  19.477  0.00  0.00    +0.012 C 
ENDROOT
BRANCH   3   4
ATOM      4  C   UNL A   1      -8.125  -9.539  19.925  0.00  0.00    +0.001 C 
ATOM      5  C   UNL A   1      -7.285  -8.353  19.814  0.00  0.00    +0.000 C 
ENDBRANCH   3   4
TORSDOF 1
ENDMDL
ENDMDL
