REMARK  Name = No_879-gen_results/8p0m/2024-11-26-14-13-15/
REMARK  3 active torsions:
REMARK  status: ('A' for Active; 'I' for Inactive)
REMARK    1  A    between atoms: C_6  and  C_12
REMARK    2  A    between atoms: C_17  and  C_20
REMARK    3  A    between atoms: C_24  and  C_25
REMARK                            x       y       z     vdW  Elec       q    Type
REMARK                         _______ _______ _______ _____ _____    ______ ____
ROOT
ATOM      1  C   UNL A   1     -24.937   2.582  27.791  0.00  0.00    +0.249 C 
ATOM      2  O   UNL A   1     -24.575   2.865  26.661  0.00  0.00    -0.270 OA
ATOM      3  N   UNL A   1     -25.597   3.583  28.518  0.00  0.00    -0.276 N 
ATOM      4  C   UNL A   1     -26.105   4.765  27.837  0.00  0.00    +0.094 C 
ATOM      5  C   UNL A   1     -25.941   3.509  29.937  0.00  0.00    +0.100 C 
ATOM      6  C   UNL A   1     -26.690   4.309  30.448  0.00  0.00    +0.060 C 
ATOM      7  C   UNL A   1     -26.951   5.649  28.546  0.00  0.00    +0.022 C 
ATOM      8  C   UNL A   1     -27.180   5.475  29.871  0.00  0.00    +0.009 C 
ENDROOT
BRANCH   1  14
ATOM      9  O   UNL A   1     -28.123  -1.335  28.487  0.00  0.00    -0.250 OA
ATOM     10  C   UNL A   1     -27.064  -0.824  28.869  0.00  0.00    +0.322 C 
ATOM     11  C   UNL A   1     -26.402  -0.062  28.622  0.00  0.00    +0.136 C 
ATOM     12  O   UNL A   1     -26.301  -1.848  29.756  0.00  0.00    -0.443 OA
ATOM     13  C   UNL A   1     -25.104   0.369  28.978  0.00  0.00    -0.007 A 
ATOM     14  C   UNL A   1     -24.344   1.498  28.596  0.00  0.00    +0.050 A 
ATOM     15  C   UNL A   1     -22.990   1.718  28.998  0.00  0.00    +0.004 A 
ATOM     16  C   UNL A   1     -22.383   0.628  29.653  0.00  0.00    -0.000 A 
ATOM     17  C   UNL A   1     -23.025  -0.540  30.027  0.00  0.00    -0.001 A 
ATOM     18  C   UNL A   1     -24.326  -0.668  29.635  0.00  0.00    +0.018 A 
ATOM     19  C   UNL A   1     -25.113  -1.823  30.057  0.00  0.00    +0.235 C 
ENDBRANCH   1  14
BRANCH   6  20
ATOM     20  C   UNL A   1     -27.017   4.134  31.958  0.00  0.00    +0.067 A 
ATOM     21  N   UNL A   1     -28.003   3.474  32.308  0.00  0.00    -0.248 NA
ATOM     22  C   UNL A   1     -28.327   3.008  33.354  0.00  0.00    +0.099 A 
ATOM     23  C   UNL A   1     -27.558   3.445  34.525  0.00  0.00    +0.021 A 
ATOM     24  C   UNL A   1     -26.010   4.556  32.903  0.00  0.00    +0.093 A 
ATOM     25  C   UNL A   1     -26.363   4.213  34.311  0.00  0.00    +0.009 A 
BRANCH  24  26
ATOM     26  C   UNL A   1     -24.796   5.301  32.665  0.00  0.00    +0.389 C 
ATOM     27  O   UNL A   1     -24.505   6.343  33.192  0.00  0.00    -0.240 OA
ATOM     28  O   UNL A   1     -23.733   4.596  32.194  0.00  0.00    -0.240 OA
ENDBRANCH  24  26
ENDBRANCH   6  20
TORSDOF 3
