MODEL 879
MODEL 1
REMARK VINA RESULT:    -8.587      0.000      0.000
REMARK INTER + INTRA:         -10.933
REMARK INTER:                 -10.093
REMARK INTRA:                  -0.839
REMARK UNBOUND:                -0.839
REMARK  Name = No_879-gen_results/8p0m/2024-11-26-14-13-15/
REMARK  3 active torsions:
REMARK  status: ('A' for Active; 'I' for Inactive)
REMARK    1  A    between atoms: C_6  and  C_12
REMARK    2  A    between atoms: C_17  and  C_20
REMARK    3  A    between atoms: C_24  and  C_25
REMARK                            x       y       z     vdW  Elec       q    Type
REMARK                         _______ _______ _______ _____ _____    ______ ____
ROOT
ATOM      1  C   UNL A   1     -23.051  -0.717  29.603  0.00  0.00    +0.249 C 
ATOM      2  O   UNL A   1     -22.097  -0.709  30.364  0.00  0.00    -0.270 OA
ATOM      3  N   UNL A   1     -23.030   0.204  28.546  0.00  0.00    -0.276 N 
ATOM      4  C   UNL A   1     -21.793   0.889  28.199  0.00  0.00    +0.094 C 
ATOM      5  C   UNL A   1     -24.146   0.481  27.644  0.00  0.00    +0.100 C 
ATOM      6  C   UNL A   1     -23.997   1.126  26.632  0.00  0.00    +0.060 C 
ATOM      7  C   UNL A   1     -21.743   1.641  27.003  0.00  0.00    +0.022 C 
ATOM      8  C   UNL A   1     -22.860   1.834  26.259  0.00  0.00    +0.009 C 
ENDROOT
BRANCH   1  14
ATOM      9  O   UNL A   1     -23.658  -5.594  28.251  0.00  0.00    -0.250 OA
ATOM     10  C   UNL A   1     -24.252  -4.576  28.626  0.00  0.00    +0.322 C 
ATOM     11  C   UNL A   1     -24.062  -3.619  28.984  0.00  0.00    +0.136 C 
ATOM     12  O   UNL A   1     -25.701  -4.960  29.036  0.00  0.00    -0.443 OA
ATOM     13  C   UNL A   1     -24.773  -2.552  29.579  0.00  0.00    -0.007 A 
ATOM     14  C   UNL A   1     -24.380  -1.248  29.957  0.00  0.00    +0.050 A 
ATOM     15  C   UNL A   1     -25.233  -0.327  30.640  0.00  0.00    +0.004 A 
ATOM     16  C   UNL A   1     -26.451  -0.873  31.094  0.00  0.00    -0.000 A 
ATOM     17  C   UNL A   1     -26.905  -2.152  30.821  0.00  0.00    -0.001 A 
ATOM     18  C   UNL A   1     -26.049  -2.966  30.138  0.00  0.00    +0.018 A 
ATOM     19  C   UNL A   1     -26.472  -4.301  29.725  0.00  0.00    +0.235 C 
ENDBRANCH   1  14
BRANCH   6  20
ATOM     20  C   UNL A   1     -25.238   1.346  25.722  0.00  0.00    +0.067 A 
ATOM     21  N   UNL A   1     -25.649   0.430  24.999  0.00  0.00    -0.248 NA
ATOM     22  C   UNL A   1     -26.673   0.267  24.414  0.00  0.00    +0.099 A 
ATOM     23  C   UNL A   1     -27.563   1.430  24.328  0.00  0.00    +0.021 A 
ATOM     24  C   UNL A   1     -26.009   2.548  25.939  0.00  0.00    +0.093 A 
ATOM     25  C   UNL A   1     -27.252   2.590  25.117  0.00  0.00    +0.009 A 
BRANCH  24  26
ATOM     26  C   UNL A   1     -25.695   3.692  26.763  0.00  0.00    +0.389 C 
ATOM     27  O   UNL A   1     -25.783   3.730  27.963  0.00  0.00    -0.240 OA
ATOM     28  O   UNL A   1     -24.834   4.603  26.236  0.00  0.00    -0.240 OA
ENDBRANCH  24  26
ENDBRANCH   6  20
TORSDOF 3
ENDMDL
ENDMDL
