REMARK  Name = No_880-gen_results/8p0m/2024-11-26-14-13-15/
REMARK  5 active torsions:
REMARK  status: ('A' for Active; 'I' for Inactive)
REMARK    1  A    between atoms: C_1  and  C_2
REMARK    2  A    between atoms: C_1  and  N_8
REMARK    3  A    between atoms: C_3  and  C_18
REMARK    4  A    between atoms: C_5  and  C_9
REMARK    5  A    between atoms: C_7  and  C_21
REMARK                            x       y       z     vdW  Elec       q    Type
REMARK                         _______ _______ _______ _____ _____    ______ ____
ROOT
ATOM      1  C   UNL A   1     -27.064  -0.119  28.608  0.00  0.00    -0.006 A 
ATOM      2  C   UNL A   1     -25.765  -0.390  29.036  0.00  0.00    -0.007 A 
ATOM      3  C   UNL A   1     -24.552   0.406  28.765  0.00  0.00    +0.003 A 
ATOM      4  C   UNL A   1     -24.696   1.448  27.799  0.00  0.00    +0.071 A 
ATOM      5  C   UNL A   1     -25.976   1.725  27.308  0.00  0.00    +0.004 A 
ATOM      6  C   UNL A   1     -27.072   1.013  27.654  0.00  0.00    -0.003 A 
ENDROOT
BRANCH   6   7
ATOM      7  C   UNL A   1     -28.356   1.448  27.078  0.00  0.00    -0.000 A 
ATOM      8  C   UNL A   1     -28.441   2.013  25.945  0.00  0.00    -0.000 A 
ATOM      9  C   UNL A   1     -29.658   2.224  25.329  0.00  0.00    -0.000 A 
ATOM     10  C   UNL A   1     -30.831   1.853  25.945  0.00  0.00    -0.000 A 
ATOM     11  C   UNL A   1     -30.743   1.194  27.171  0.00  0.00    -0.000 A 
ATOM     12  C   UNL A   1     -29.520   0.934  27.748  0.00  0.00    -0.000 A 
ENDBRANCH   6   7
BRANCH   4  13
ATOM     13  C   UNL A   1     -23.494   2.168  27.476  0.00  0.00    +0.419 C 
ATOM     14  F   UNL A   1     -22.471   1.796  27.140  0.00  0.00    -0.166 F 
ATOM     15  F   UNL A   1     -23.255   3.171  28.451  0.00  0.00    -0.166 F 
ATOM     16  F   UNL A   1     -23.845   3.154  26.447  0.00  0.00    -0.166 F 
ENDBRANCH   4  13
BRANCH   2  17
ATOM     17  C   UNL A   1     -25.481  -1.458  30.054  0.00  0.00    -0.022 C 
ATOM     18  C   UNL A   1     -24.395  -2.253  29.887  0.00  0.00    -0.005 C 
ATOM     19  C   UNL A   1     -25.500  -1.042  31.526  0.00  0.00    +0.031 C 
ENDBRANCH   2  17
BRANCH   1  20
ATOM     20  C   UNL A   1     -28.016  -0.814  28.878  0.00  0.00    +0.099 C 
BRANCH  20  21
ATOM     21  N   UNL A   1     -28.625  -0.580  30.097  0.00  0.00    -0.269 NA
ATOM     22  C   UNL A   1     -29.639  -1.328  30.647  0.00  0.00    +0.072 C 
ATOM     23  C   UNL A   1     -30.122  -1.009  31.939  0.00  0.00    +0.017 C 
ATOM     24  C   UNL A   1     -28.194   0.450  31.024  0.00  0.00    +0.072 C 
ATOM     25  C   UNL A   1     -28.637   0.737  32.212  0.00  0.00    +0.017 C 
ATOM     26  C   UNL A   1     -29.644  -0.007  32.732  0.00  0.00    +0.003 C 
ENDBRANCH  20  21
ENDBRANCH   1  20
TORSDOF 5
