MODEL 880
MODEL 1
REMARK VINA RESULT:    -7.204      0.000      0.000
REMARK INTER + INTRA:         -10.635
REMARK INTER:                  -9.310
REMARK INTRA:                  -1.325
REMARK UNBOUND:                -1.325
REMARK  Name = No_880-gen_results/8p0m/2024-11-26-14-13-15/
REMARK  5 active torsions:
REMARK  status: ('A' for Active; 'I' for Inactive)
REMARK    1  A    between atoms: C_1  and  C_2
REMARK    2  A    between atoms: C_1  and  N_8
REMARK    3  A    between atoms: C_3  and  C_18
REMARK    4  A    between atoms: C_5  and  C_9
REMARK    5  A    between atoms: C_7  and  C_21
REMARK                            x       y       z     vdW  Elec       q    Type
REMARK                         _______ _______ _______ _____ _____    ______ ____
ROOT
ATOM      1  C   UNL A   1     -23.971  -0.674  29.055  0.00  0.00    -0.006 A 
ATOM      2  C   UNL A   1     -23.316   0.090  28.089  0.00  0.00    -0.007 A 
ATOM      3  C   UNL A   1     -23.842   0.508  26.775  0.00  0.00    +0.003 A 
ATOM      4  C   UNL A   1     -25.069  -0.103  26.374  0.00  0.00    +0.071 A 
ATOM      5  C   UNL A   1     -25.738  -0.915  27.296  0.00  0.00    +0.004 A 
ATOM      6  C   UNL A   1     -25.248  -1.200  28.524  0.00  0.00    -0.003 A 
ENDROOT
BRANCH   6   7
ATOM      7  C   UNL A   1     -26.086  -2.044  29.394  0.00  0.00    -0.000 A 
ATOM      8  C   UNL A   1     -27.105  -1.597  30.003  0.00  0.00    -0.000 A 
ATOM      9  C   UNL A   1     -27.994  -2.437  30.642  0.00  0.00    -0.000 A 
ATOM     10  C   UNL A   1     -27.784  -3.797  30.664  0.00  0.00    -0.000 A 
ATOM     11  C   UNL A   1     -26.690  -4.299  29.961  0.00  0.00    -0.000 A 
ATOM     12  C   UNL A   1     -25.843  -3.456  29.276  0.00  0.00    -0.000 A 
ENDBRANCH   6   7
BRANCH   4  13
ATOM     13  C   UNL A   1     -25.536   0.242  25.059  0.00  0.00    +0.419 C 
ATOM     14  F   UNL A   1     -26.364  -0.210  24.421  0.00  0.00    -0.166 F 
ATOM     15  F   UNL A   1     -24.432   0.451  24.193  0.00  0.00    -0.166 F 
ATOM     16  F   UNL A   1     -25.876   1.670  25.084  0.00  0.00    -0.166 F 
ENDBRANCH   4  13
BRANCH   2  17
ATOM     17  C   UNL A   1     -22.021   0.790  28.388  0.00  0.00    -0.022 C 
ATOM     18  C   UNL A   1     -20.897   0.050  28.556  0.00  0.00    -0.005 C 
ATOM     19  C   UNL A   1     -21.641   1.969  27.490  0.00  0.00    +0.031 C 
ENDBRANCH   2  17
BRANCH   1  20
ATOM     20  C   UNL A   1     -23.479  -0.971  30.119  0.00  0.00    +0.099 C 
BRANCH  20  21
ATOM     21  N   UNL A   1     -24.037  -0.386  31.241  0.00  0.00    -0.269 NA
ATOM     22  C   UNL A   1     -24.463   0.917  31.342  0.00  0.00    +0.072 C 
ATOM     23  C   UNL A   1     -25.078   1.361  32.538  0.00  0.00    +0.017 C 
ATOM     24  C   UNL A   1     -24.347  -1.117  32.456  0.00  0.00    +0.072 C 
ATOM     25  C   UNL A   1     -24.917  -0.707  33.550  0.00  0.00    +0.017 C 
ATOM     26  C   UNL A   1     -25.320   0.584  33.633  0.00  0.00    +0.003 C 
ENDBRANCH  20  21
ENDBRANCH   1  20
TORSDOF 5
ENDMDL
ENDMDL
