REMARK  Name = No_881-gen_results/8p0m/2024-11-26-14-13-15/
REMARK  7 active torsions:
REMARK  status: ('A' for Active; 'I' for Inactive)
REMARK    1  A    between atoms: C_3  and  C_7
REMARK    2  A    between atoms: C_7  and  P_8
REMARK    3  A    between atoms: C_7  and  N_13
REMARK    4  A    between atoms: P_8  and  O_11
REMARK    5  A    between atoms: O_11  and  C_12
REMARK    6  A    between atoms: C_12  and  C_14
REMARK    7  A    between atoms: N_13  and  C_16
REMARK                            x       y       z     vdW  Elec       q    Type
REMARK                         _______ _______ _______ _____ _____    ______ ____
ROOT
ATOM      1  C   UNL A   1     -27.448   0.380  26.712  0.00  0.00    +0.201 C 
ENDROOT
BRANCH   1   4
ATOM      2  C   UNL A   1     -28.016  -0.814  28.878  0.00  0.00    -0.002 A 
ATOM      3  C   UNL A   1     -28.469  -0.785  29.829  0.00  0.00    -0.000 A 
ATOM      4  C   UNL A   1     -28.196   0.348  28.055  0.00  0.00    +0.005 A 
ATOM      5  C   UNL A   1     -29.019   1.350  28.378  0.00  0.00    -0.002 A 
ATOM      6  C   UNL A   1     -29.411   0.180  30.378  0.00  0.00    -0.000 A 
ATOM      7  C   UNL A   1     -29.606   1.250  29.619  0.00  0.00    -0.000 A 
ENDBRANCH   1   4
BRANCH   1   8
ATOM      8  P   UNL A   1     -25.737   0.413  26.760  0.00  0.00    +0.389 P 
ATOM      9  O   UNL A   1     -25.231   0.508  25.438  0.00  0.00    -0.254 OA
ATOM     10  O   UNL A   1     -25.297  -0.915  27.410  0.00  0.00    -0.138 OA
BRANCH   8  11
ATOM     11  O   UNL A   1     -25.298   1.629  27.579  0.00  0.00    -0.289 OA
BRANCH  11  12
ATOM     12  C   UNL A   1     -24.631   1.790  28.445  0.00  0.00    +0.187 C 
BRANCH  12  13
ATOM     13  C   UNL A   1     -23.247   1.682  28.501  0.00  0.00    +0.214 C 
ATOM     14  O   UNL A   1     -22.668   0.898  29.428  0.00  0.00    -0.218 OA
ENDBRANCH  12  13
ENDBRANCH  11  12
ENDBRANCH   8  11
ENDBRANCH   1   8
BRANCH   1  15
ATOM     15  N   UNL A   1     -28.028   0.312  25.564  0.00  0.00    -0.203 NA
BRANCH  15  16
ATOM     16  C   UNL A   1     -29.195   0.927  25.144  0.00  0.00    +0.090 C 
ATOM     17  C   UNL A   1     -29.706   1.910  25.935  0.00  0.00    +0.020 C 
ENDBRANCH  15  16
ENDBRANCH   1  15
TORSDOF 7
