MODEL 881
MODEL 1
REMARK VINA RESULT:    -5.610      0.000      0.000
REMARK INTER + INTRA:          -8.587
REMARK INTER:                  -7.905
REMARK INTRA:                  -0.681
REMARK UNBOUND:                -0.681
REMARK  Name = No_881-gen_results/8p0m/2024-11-26-14-13-15/
REMARK  7 active torsions:
REMARK  status: ('A' for Active; 'I' for Inactive)
REMARK    1  A    between atoms: C_3  and  C_7
REMARK    2  A    between atoms: C_7  and  P_8
REMARK    3  A    between atoms: C_7  and  N_13
REMARK    4  A    between atoms: P_8  and  O_11
REMARK    5  A    between atoms: O_11  and  C_12
REMARK    6  A    between atoms: C_12  and  C_14
REMARK    7  A    between atoms: N_13  and  C_16
REMARK                            x       y       z     vdW  Elec       q    Type
REMARK                         _______ _______ _______ _____ _____    ______ ____
ROOT
ATOM      1  C   UNL A   1     -24.251  -1.156  28.909  0.00  0.00    +0.201 C 
ENDROOT
BRANCH   1   4
ATOM      2  C   UNL A   1     -25.917  -2.874  29.753  0.00  0.00    -0.002 A 
ATOM      3  C   UNL A   1     -26.238  -3.877  29.780  0.00  0.00    -0.000 A 
ATOM      4  C   UNL A   1     -24.682  -2.623  29.065  0.00  0.00    +0.005 A 
ATOM      5  C   UNL A   1     -23.884  -3.598  28.621  0.00  0.00    -0.002 A 
ATOM      6  C   UNL A   1     -25.533  -5.088  29.384  0.00  0.00    -0.000 A 
ATOM      7  C   UNL A   1     -24.379  -4.874  28.767  0.00  0.00    -0.000 A 
ENDBRANCH   1   4
BRANCH   1   8
ATOM      8  P   UNL A   1     -22.830  -0.658  29.724  0.00  0.00    +0.389 P 
ATOM      9  O   UNL A   1     -22.804   0.758  29.802  0.00  0.00    -0.254 OA
ATOM     10  O   UNL A   1     -21.645  -1.172  28.880  0.00  0.00    -0.138 OA
BRANCH   8  11
ATOM     11  O   UNL A   1     -22.840  -1.262  31.130  0.00  0.00    -0.289 OA
BRANCH  11  12
ATOM     12  C   UNL A   1     -23.179  -0.921  32.126  0.00  0.00    +0.187 C 
BRANCH  12  13
ATOM     13  C   UNL A   1     -24.478  -0.815  32.606  0.00  0.00    +0.214 C 
ATOM     14  O   UNL A   1     -24.986   0.392  32.915  0.00  0.00    -0.218 OA
ENDBRANCH  12  13
ENDBRANCH  11  12
ENDBRANCH   8  11
ENDBRANCH   1   8
BRANCH   1  15
ATOM     15  N   UNL A   1     -24.852  -0.306  28.151  0.00  0.00    -0.203 NA
BRANCH  15  16
ATOM     16  C   UNL A   1     -24.935  -0.283  26.769  0.00  0.00    +0.090 C 
ATOM     17  C   UNL A   1     -24.620   0.882  26.141  0.00  0.00    +0.020 C 
ENDBRANCH  15  16
ENDBRANCH   1  15
TORSDOF 7
ENDMDL
ENDMDL
