MODEL 882
MODEL 1
REMARK VINA RESULT:    -6.221      0.000      0.000
REMARK INTER + INTRA:          -7.003
REMARK INTER:                  -6.584
REMARK INTRA:                  -0.419
REMARK UNBOUND:                -0.419
REMARK  Name = No_882-gen_results/8p0m/2024-11-26-14-13-15/
REMARK  1 active torsions:
REMARK  status: ('A' for Active; 'I' for Inactive)
REMARK    1  A    between atoms: C_2  and  N_7
REMARK                            x       y       z     vdW  Elec       q    Type
REMARK                         _______ _______ _______ _____ _____    ______ ____
ROOT
ATOM      1  N   UNL A   1     -23.816  -1.281  28.854  0.00  0.00    -0.282 N 
ATOM      2  C   UNL A   1     -22.793  -1.017  29.550  0.00  0.00    +0.093 C 
ATOM      3  C   UNL A   1     -21.950  -0.043  29.002  0.00  0.00    +0.022 C 
ATOM      4  C   UNL A   1     -24.193  -0.413  27.820  0.00  0.00    +0.237 C 
ATOM      5  F   UNL A   1     -25.304  -0.777  27.160  0.00  0.00    -0.215 F 
ATOM      6  C   UNL A   1     -23.483   0.647  27.561  0.00  0.00    +0.057 C 
ATOM      7  C   UNL A   1     -22.352   0.923  28.162  0.00  0.00    +0.006 C 
ENDROOT
BRANCH   1   9
ATOM      8  C   UNL A   1     -23.924  -3.464  28.622  0.00  0.00    +0.015 A 
ATOM      9  C   UNL A   1     -24.416  -2.639  29.056  0.00  0.00    +0.050 A 
ATOM     10  C   UNL A   1     -24.544  -4.782  28.826  0.00  0.00    +0.001 A 
ATOM     11  C   UNL A   1     -25.817  -4.895  29.459  0.00  0.00    +0.000 A 
ATOM     12  C   UNL A   1     -25.749  -2.478  29.699  0.00  0.00    +0.015 A 
ATOM     13  C   UNL A   1     -26.351  -3.681  29.915  0.00  0.00    +0.001 A 
ENDBRANCH   1   9
TORSDOF 1
ENDMDL
ENDMDL
