REMARK  Name = No_883-gen_results/8p0m/2024-11-26-14-13-15/
REMARK  3 active torsions:
REMARK  status: ('A' for Active; 'I' for Inactive)
REMARK    1  A    between atoms: C_3  and  C_7
REMARK    2  A    between atoms: C_6  and  C_13
REMARK    3  A    between atoms: N_14  and  C_15
REMARK                            x       y       z     vdW  Elec       q    Type
REMARK                         _______ _______ _______ _____ _____    ______ ____
ROOT
ATOM      1  C   UNL A   1     -28.016  -0.814  28.878  0.00  0.00    +0.005 A 
ATOM      2  C   UNL A   1     -27.064  -0.119  28.608  0.00  0.00    +0.000 A 
ATOM      3  C   UNL A   1     -25.765  -0.390  29.036  0.00  0.00    +0.000 A 
ATOM      4  C   UNL A   1     -25.530  -1.530  29.901  0.00  0.00    +0.000 A 
ATOM      5  C   UNL A   1     -26.658  -2.292  30.203  0.00  0.00    +0.005 A 
ATOM      6  C   UNL A   1     -27.855  -1.956  29.763  0.00  0.00    +0.055 A 
ENDROOT
BRANCH   3   7
ATOM      7  C   UNL A   1     -24.544   0.413  28.738  0.00  0.00    +0.000 A 
ATOM      8  C   UNL A   1     -24.473   1.206  27.711  0.00  0.00    +0.000 A 
ATOM      9  C   UNL A   1     -23.278   1.842  27.366  0.00  0.00    +0.000 A 
ATOM     10  C   UNL A   1     -22.093   1.664  28.034  0.00  0.00    +0.000 A 
ATOM     11  C   UNL A   1     -23.204   0.060  29.261  0.00  0.00    +0.000 A 
ATOM     12  C   UNL A   1     -22.048   0.711  28.969  0.00  0.00    +0.000 A 
ENDBRANCH   3   7
BRANCH   6  13
ATOM     13  C   UNL A   1     -29.014  -2.790  30.184  0.00  0.00    +0.269 C 
ATOM     14  N   UNL A   1     -28.872  -4.088  30.494  0.00  0.00    -0.175 NA
ATOM     15  O   UNL A   1     -30.045  -2.173  30.586  0.00  0.00    -0.268 OA
BRANCH  14  16
ATOM     16  C   UNL A   1     -29.903  -4.980  30.327  0.00  0.00    +0.074 A 
ATOM     17  C   UNL A   1     -30.727  -4.870  29.261  0.00  0.00    +0.017 A 
ATOM     18  C   UNL A   1     -31.048  -5.928  28.520  0.00  0.00    +0.001 A 
ATOM     19  C   UNL A   1     -31.580  -7.052  29.211  0.00  0.00    +0.000 A 
ATOM     20  C   UNL A   1     -30.998  -7.224  30.544  0.00  0.00    +0.001 A 
ATOM     21  C   UNL A   1     -30.001  -6.234  31.073  0.00  0.00    +0.017 A 
ENDBRANCH  14  16
ENDBRANCH   6  13
TORSDOF 3
