MODEL 883
MODEL 1
REMARK VINA RESULT:    -7.084      0.000      0.000
REMARK INTER + INTRA:          -9.029
REMARK INTER:                  -8.326
REMARK INTRA:                  -0.702
REMARK UNBOUND:                -0.702
REMARK  Name = No_883-gen_results/8p0m/2024-11-26-14-13-15/
REMARK  3 active torsions:
REMARK  status: ('A' for Active; 'I' for Inactive)
REMARK    1  A    between atoms: C_3  and  C_7
REMARK    2  A    between atoms: C_6  and  C_13
REMARK    3  A    between atoms: N_14  and  C_15
REMARK                            x       y       z     vdW  Elec       q    Type
REMARK                         _______ _______ _______ _____ _____    ______ ____
ROOT
ATOM      1  C   UNL A   1     -27.947   1.860  24.265  0.00  0.00    +0.005 A 
ATOM      2  C   UNL A   1     -28.978   2.155  23.707  0.00  0.00    +0.000 A 
ATOM      3  C   UNL A   1     -29.920   1.219  23.284  0.00  0.00    +0.000 A 
ATOM      4  C   UNL A   1     -29.642  -0.194  23.461  0.00  0.00    +0.000 A 
ATOM      5  C   UNL A   1     -28.433  -0.488  24.091  0.00  0.00    +0.005 A 
ATOM      6  C   UNL A   1     -27.593   0.462  24.450  0.00  0.00    +0.055 A 
ENDROOT
BRANCH   3   7
ATOM      7  C   UNL A   1     -31.213   1.505  22.598  0.00  0.00    +0.000 A 
ATOM      8  C   UNL A   1     -32.167   0.625  22.528  0.00  0.00    +0.000 A 
ATOM      9  C   UNL A   1     -33.314   0.856  21.764  0.00  0.00    +0.000 A 
ATOM     10  C   UNL A   1     -33.517   1.982  21.006  0.00  0.00    +0.000 A 
ATOM     11  C   UNL A   1     -31.363   2.569  21.578  0.00  0.00    +0.000 A 
ATOM     12  C   UNL A   1     -32.494   2.830  20.872  0.00  0.00    +0.000 A 
ENDBRANCH   3   7
BRANCH   6  13
ATOM     13  C   UNL A   1     -26.297   0.056  25.061  0.00  0.00    +0.269 C 
ATOM     14  N   UNL A   1     -25.896   0.540  26.246  0.00  0.00    -0.175 NA
ATOM     15  O   UNL A   1     -25.768  -1.007  24.621  0.00  0.00    -0.268 OA
BRANCH  14  16
ATOM     16  C   UNL A   1     -24.563   0.657  26.556  0.00  0.00    +0.074 A 
ATOM     17  C   UNL A   1     -23.763   1.454  25.813  0.00  0.00    +0.017 A 
ATOM     18  C   UNL A   1     -22.921   2.315  26.381  0.00  0.00    +0.001 A 
ATOM     19  C   UNL A   1     -22.022   1.784  27.347  0.00  0.00    +0.000 A 
ATOM     20  C   UNL A   1     -22.609   0.691  28.126  0.00  0.00    +0.001 A 
ATOM     21  C   UNL A   1     -23.996   0.202  27.826  0.00  0.00    +0.017 A 
ENDBRANCH  14  16
ENDBRANCH   6  13
TORSDOF 3
ENDMDL
ENDMDL
