REMARK  Name = No_884-gen_results/8p0m/2024-11-26-14-13-15/
REMARK  0 active torsions:
REMARK  status: ('A' for Active; 'I' for Inactive)
REMARK                            x       y       z     vdW  Elec       q    Type
REMARK                         _______ _______ _______ _____ _____    ______ ____
ROOT
ATOM      1  O   UNL A   1     -28.123  -1.335  28.487  0.00  0.00    -0.270 OA
ATOM      2  C   UNL A   1     -27.481  -0.404  28.709  0.00  0.00    +0.252 C 
ATOM      3  C   UNL A   1     -26.380  -0.087  27.939  0.00  0.00    +0.046 A 
ATOM      4  N   UNL A   1     -27.666   0.447  29.899  0.00  0.00    -0.254 N 
ATOM      5  C   UNL A   1     -25.177  -0.439  28.395  0.00  0.00    -0.014 A 
ATOM      6  C   UNL A   1     -26.526   0.604  26.687  0.00  0.00    -0.018 A 
ATOM      7  C   UNL A   1     -23.937   0.037  27.652  0.00  0.00    -0.004 A 
ATOM      8  C   UNL A   1     -25.382   0.970  25.943  0.00  0.00    -0.004 A 
ATOM      9  C   UNL A   1     -24.103   0.725  26.441  0.00  0.00    -0.001 A 
ATOM     10  C   UNL A   1     -28.759   0.110  30.785  0.00  0.00    +0.120 C 
ATOM     11  C   UNL A   1     -26.849   1.521  30.193  0.00  0.00    +0.051 A 
ATOM     12  C   UNL A   1     -27.173   2.542  30.360  0.00  0.00    +0.015 A 
ATOM     13  C   UNL A   1     -26.250   3.528  30.771  0.00  0.00    +0.001 A 
ATOM     14  C   UNL A   1     -24.862   3.218  30.712  0.00  0.00    -0.000 A 
ATOM     15  C   UNL A   1     -24.485   1.960  30.451  0.00  0.00    -0.003 A 
ATOM     16  C   UNL A   1     -25.451   1.078  30.244  0.00  0.00    -0.004 A 
ATOM     17  C   UNL A   1     -25.002   0.192  29.970  0.00  0.00    +0.054 C 
ATOM     18  C   UNL A   1     -27.837   0.857  26.154  0.00  0.00    +0.031 C 
ENDROOT
TORSDOF 0
