MODEL 884
MODEL 1
REMARK VINA RESULT:    -6.667      0.000      0.000
REMARK INTER + INTRA:          -6.667
REMARK INTER:                  -6.667
REMARK INTRA:                   0.000
REMARK UNBOUND:                 0.000
REMARK  Name = No_884-gen_results/8p0m/2024-11-26-14-13-15/
REMARK  0 active torsions:
REMARK  status: ('A' for Active; 'I' for Inactive)
REMARK                            x       y       z     vdW  Elec       q    Type
REMARK                         _______ _______ _______ _____ _____    ______ ____
ROOT
ATOM      1  O   UNL A   1     -24.627   2.479  30.393  0.00  0.00    -0.270 OA
ATOM      2  C   UNL A   1     -24.513   1.892  29.407  0.00  0.00    +0.252 C 
ATOM      3  C   UNL A   1     -23.286   1.415  28.991  0.00  0.00    +0.046 A 
ATOM      4  N   UNL A   1     -25.604   1.722  28.431  0.00  0.00    -0.254 N 
ATOM      5  C   UNL A   1     -22.611   2.130  28.090  0.00  0.00    -0.014 A 
ATOM      6  C   UNL A   1     -22.756   0.183  29.509  0.00  0.00    -0.018 A 
ATOM      7  C   UNL A   1     -21.337   1.551  27.492  0.00  0.00    -0.004 A 
ATOM      8  C   UNL A   1     -21.526  -0.317  29.026  0.00  0.00    -0.004 A 
ATOM      9  C   UNL A   1     -20.847   0.339  28.001  0.00  0.00    -0.001 A 
ATOM     10  C   UNL A   1     -26.894   2.275  28.782  0.00  0.00    +0.120 C 
ATOM     11  C   UNL A   1     -25.440   1.076  27.221  0.00  0.00    +0.051 A 
ATOM     12  C   UNL A   1     -26.022   0.234  26.863  0.00  0.00    +0.015 A 
ATOM     13  C   UNL A   1     -25.834  -0.263  25.555  0.00  0.00    +0.001 A 
ATOM     14  C   UNL A   1     -24.704   0.192  24.818  0.00  0.00    -0.000 A 
ATOM     15  C   UNL A   1     -23.969   1.199  25.306  0.00  0.00    -0.003 A 
ATOM     16  C   UNL A   1     -24.343   1.700  26.473  0.00  0.00    -0.004 A 
ATOM     17  C   UNL A   1     -23.632   2.394  26.749  0.00  0.00    +0.054 C 
ATOM     18  C   UNL A   1     -23.439  -0.502  30.573  0.00  0.00    +0.031 C 
ENDROOT
TORSDOF 0
ENDMDL
ENDMDL
