MODEL 886
MODEL 1
REMARK VINA RESULT:    -5.157      0.000      0.000
REMARK INTER + INTRA:          -5.510
REMARK INTER:                  -5.458
REMARK INTRA:                  -0.052
REMARK UNBOUND:                -0.052
REMARK  Name = No_886-gen_results/8p0m/2024-11-26-14-13-15/
REMARK  1 active torsions:
REMARK  status: ('A' for Active; 'I' for Inactive)
REMARK    1  A    between atoms: C_2  and  C_7
REMARK                            x       y       z     vdW  Elec       q    Type
REMARK                         _______ _______ _______ _____ _____    ______ ____
ROOT
ATOM      1  C   UNL A   1      -7.988 -10.640  18.760  0.00  0.00    +0.006 A 
ATOM      2  C   UNL A   1      -8.236  -9.998  19.558  0.00  0.00    +0.068 A 
ATOM      3  C   UNL A   1      -9.112 -10.938  17.792  0.00  0.00    +0.000 A 
ATOM      4  C   UNL A   1     -10.337 -10.252  17.924  0.00  0.00    +0.000 A 
ATOM      5  C   UNL A   1      -9.396  -9.144  19.900  0.00  0.00    +0.006 A 
ATOM      6  C   UNL A   1     -10.448  -9.386  19.028  0.00  0.00    +0.000 A 
ENDROOT
BRANCH   2   7
ATOM      7  C   UNL A   1      -7.058  -9.654  20.594  0.00  0.00    +0.333 C 
ATOM      8  O   UNL A   1      -6.864 -10.451  21.345  0.00  0.00    -0.254 OA
ATOM      9  F   UNL A   1      -6.366  -8.534  20.527  0.00  0.00    -0.159 F 
ENDBRANCH   2   7
TORSDOF 1
ENDMDL
ENDMDL
