MODEL 887
MODEL 1
REMARK VINA RESULT:    -6.715      0.000      0.000
REMARK INTER + INTRA:          -7.422
REMARK INTER:                  -7.107
REMARK INTRA:                  -0.315
REMARK UNBOUND:                -0.315
REMARK  Name = No_887-gen_results/8p0m/2024-11-26-14-13-15/
REMARK  1 active torsions:
REMARK  status: ('A' for Active; 'I' for Inactive)
REMARK    1  A    between atoms: C_3  and  C_7
REMARK                            x       y       z     vdW  Elec       q    Type
REMARK                         _______ _______ _______ _____ _____    ______ ____
ROOT
ATOM      1  C   UNL A   1     -21.682  -0.046  28.947  0.00  0.00    +0.000 A 
ATOM      2  C   UNL A   1     -22.266  -1.052  29.279  0.00  0.00    +0.000 A 
ATOM      3  C   UNL A   1     -23.542  -1.387  28.828  0.00  0.00    +0.000 A 
ATOM      4  C   UNL A   1     -24.249  -0.466  27.959  0.00  0.00    +0.000 A 
ATOM      5  C   UNL A   1     -23.508   0.690  27.621  0.00  0.00    +0.000 A 
ATOM      6  C   UNL A   1     -22.313   0.922  28.101  0.00  0.00    +0.000 A 
ENDROOT
BRANCH   3   7
ATOM      7  C   UNL A   1     -24.314  -2.607  29.183  0.00  0.00    +0.000 A 
ATOM      8  C   UNL A   1     -25.583  -2.601  29.518  0.00  0.00    +0.000 A 
ATOM      9  C   UNL A   1     -26.285  -3.800  29.807  0.00  0.00    +0.000 A 
ATOM     10  C   UNL A   1     -25.698  -5.030  29.382  0.00  0.00    +0.000 A 
ATOM     11  C   UNL A   1     -24.003  -3.963  28.701  0.00  0.00    +0.000 A 
ATOM     12  C   UNL A   1     -24.563  -5.060  28.904  0.00  0.00    +0.000 A 
ENDBRANCH   3   7
TORSDOF 1
ENDMDL
ENDMDL
