REMARK  Name = No_888-gen_results/8p0m/2024-11-26-14-13-15/
REMARK  2 active torsions:
REMARK  status: ('A' for Active; 'I' for Inactive)
REMARK    1  A    between atoms: C_2  and  C_7
REMARK    2  A    between atoms: C_12  and  C_13
REMARK                            x       y       z     vdW  Elec       q    Type
REMARK                         _______ _______ _______ _____ _____    ______ ____
ROOT
ATOM      1  C   UNL A   1     -30.074  -0.836  29.861  0.00  0.00    +0.249 C 
ATOM      2  N   UNL A   1     -30.645  -0.184  28.960  0.00  0.00    -0.276 N 
ATOM      3  C   UNL A   1     -31.743  -0.560  28.330  0.00  0.00    +0.094 C 
ATOM      4  C   UNL A   1     -32.161  -0.485  27.421  0.00  0.00    +0.022 C 
ATOM      5  C   UNL A   1     -31.413   0.359  26.424  0.00  0.00    +0.008 C 
ATOM      6  C   UNL A   1     -30.286   0.980  26.886  0.00  0.00    +0.042 C 
ATOM      7  C   UNL A   1     -29.828   0.586  28.123  0.00  0.00    +0.098 C 
ATOM      8  O   UNL A   1     -30.592  -1.124  30.962  0.00  0.00    -0.270 OA
ENDROOT
BRANCH   1  10
ATOM      9  C   UNL A   1     -28.016  -0.814  28.878  0.00  0.00    +0.004 A 
ATOM     10  C   UNL A   1     -28.469  -0.785  29.829  0.00  0.00    +0.054 A 
ATOM     11  C   UNL A   1     -26.504  -0.778  28.877  0.00  0.00    +0.000 A 
ATOM     12  C   UNL A   1     -25.810  -0.853  30.103  0.00  0.00    +0.000 A 
ATOM     13  C   UNL A   1     -27.991  -0.892  31.226  0.00  0.00    +0.004 A 
ATOM     14  C   UNL A   1     -26.604  -0.868  31.265  0.00  0.00    +0.000 A 
ENDBRANCH   1  10
BRANCH   6  15
ATOM     15  C   UNL A   1     -29.453   1.862  26.144  0.00  0.00    -0.021 A 
ATOM     16  C   UNL A   1     -29.170   1.760  24.967  0.00  0.00    -0.004 A 
ATOM     17  C   UNL A   1     -28.202   1.581  24.493  0.00  0.00    -0.000 A 
ATOM     18  C   UNL A   1     -26.910   1.956  25.280  0.00  0.00    -0.000 A 
ATOM     19  C   UNL A   1     -27.067   2.567  26.421  0.00  0.00    -0.000 A 
ATOM     20  C   UNL A   1     -28.383   2.262  27.101  0.00  0.00    -0.004 A 
ENDBRANCH   6  15
TORSDOF 2
