MODEL 888
MODEL 1
REMARK VINA RESULT:    -7.422      0.000      0.000
REMARK INTER + INTRA:          -8.527
REMARK INTER:                  -8.290
REMARK INTRA:                  -0.238
REMARK UNBOUND:                -0.238
REMARK  Name = No_888-gen_results/8p0m/2024-11-26-14-13-15/
REMARK  2 active torsions:
REMARK  status: ('A' for Active; 'I' for Inactive)
REMARK    1  A    between atoms: C_2  and  C_7
REMARK    2  A    between atoms: C_12  and  C_13
REMARK                            x       y       z     vdW  Elec       q    Type
REMARK                         _______ _______ _______ _____ _____    ______ ____
ROOT
ATOM      1  C   UNL A   1     -23.797   2.204  26.008  0.00  0.00    +0.249 C 
ATOM      2  N   UNL A   1     -23.210   1.818  27.042  0.00  0.00    -0.276 N 
ATOM      3  C   UNL A   1     -21.905   1.870  27.239  0.00  0.00    +0.094 C 
ATOM      4  C   UNL A   1     -21.186   1.349  27.707  0.00  0.00    +0.022 C 
ATOM      5  C   UNL A   1     -21.654   0.173  28.521  0.00  0.00    +0.008 C 
ATOM      6  C   UNL A   1     -23.006  -0.015  28.586  0.00  0.00    +0.042 C 
ATOM      7  C   UNL A   1     -23.775   0.732  27.721  0.00  0.00    +0.098 C 
ATOM      8  O   UNL A   1     -23.793   3.383  25.591  0.00  0.00    -0.270 OA
ENDROOT
BRANCH   1  10
ATOM      9  C   UNL A   1     -24.812   0.370  25.111  0.00  0.00    +0.004 A 
ATOM     10  C   UNL A   1     -25.042   1.299  25.552  0.00  0.00    +0.054 A 
ATOM     11  C   UNL A   1     -26.003  -0.457  24.678  0.00  0.00    +0.000 A 
ATOM     12  C   UNL A   1     -27.296   0.102  24.752  0.00  0.00    +0.000 A 
ATOM     13  C   UNL A   1     -26.269   2.112  25.712  0.00  0.00    +0.004 A 
ATOM     14  C   UNL A   1     -27.384   1.387  25.319  0.00  0.00    +0.000 A 
ENDBRANCH   1  10
BRANCH   6  15
ATOM     15  C   UNL A   1     -23.676  -1.023  29.333  0.00  0.00    -0.021 A 
ATOM     16  C   UNL A   1     -23.390  -2.204  29.360  0.00  0.00    -0.004 A 
ATOM     17  C   UNL A   1     -23.962  -3.070  29.018  0.00  0.00    -0.000 A 
ATOM     18  C   UNL A   1     -25.511  -2.939  28.907  0.00  0.00    -0.000 A 
ATOM     19  C   UNL A   1     -26.045  -1.831  29.337  0.00  0.00    -0.000 A 
ATOM     20  C   UNL A   1     -25.115  -0.640  29.275  0.00  0.00    -0.004 A 
ENDBRANCH   6  15
TORSDOF 2
ENDMDL
ENDMDL
