REMARK  Name = No_889-gen_results/8p0m/2024-11-26-14-13-15/
REMARK  2 active torsions:
REMARK  status: ('A' for Active; 'I' for Inactive)
REMARK    1  A    between atoms: C_7  and  C_8
REMARK    2  A    between atoms: C_11  and  C_23
REMARK                            x       y       z     vdW  Elec       q    Type
REMARK                         _______ _______ _______ _____ _____    ______ ____
ROOT
ATOM      1  C   UNL A   1     -28.016  -0.814  28.878  0.00  0.00    -0.004 A 
ATOM      2  C   UNL A   1     -28.469  -0.785  29.829  0.00  0.00    -0.000 A 
ATOM      3  C   UNL A   1     -28.182   0.428  28.113  0.00  0.00    -0.014 A 
ATOM      4  C   UNL A   1     -28.984   1.415  28.515  0.00  0.00    -0.004 A 
ATOM      5  C   UNL A   1     -29.380   0.138  30.461  0.00  0.00    -0.000 A 
ATOM      6  C   UNL A   1     -29.541   1.274  29.724  0.00  0.00    -0.000 A 
ATOM      7  C   UNL A   1     -27.459   0.493  26.770  0.00  0.00    +0.096 C 
ATOM      8  C   UNL A   1     -28.235   0.586  25.627  0.00  0.00    +0.235 C 
ATOM      9  F   UNL A   1     -28.325  -0.284  24.941  0.00  0.00    -0.215 F 
ATOM     10  N   UNL A   1     -27.790   1.836  24.960  0.00  0.00    -0.094 NA
ATOM     11  C   UNL A   1     -29.732   1.078  25.936  0.00  0.00    +0.024 A 
ATOM     12  C   UNL A   1     -30.613   0.987  24.984  0.00  0.00    -0.000 A 
ATOM     13  C   UNL A   1     -31.932   1.300  25.145  0.00  0.00    -0.000 A 
ATOM     14  C   UNL A   1     -32.373   1.679  26.406  0.00  0.00    -0.000 A 
ATOM     15  C   UNL A   1     -31.471   1.827  27.424  0.00  0.00    -0.000 A 
ATOM     16  C   UNL A   1     -30.128   1.503  27.212  0.00  0.00    -0.000 A 
ENDROOT
BRANCH   7  17
ATOM     17  C   UNL A   1     -26.026   0.384  26.762  0.00  0.00    -0.014 A 
ATOM     18  C   UNL A   1     -25.368   0.574  25.514  0.00  0.00    -0.004 A 
ATOM     19  C   UNL A   1     -25.245   0.015  27.877  0.00  0.00    +0.003 A 
ATOM     20  C   UNL A   1     -23.843   0.134  27.811  0.00  0.00    +0.080 A 
ATOM     21  C   UNL A   1     -23.933   0.746  25.485  0.00  0.00    -0.000 A 
ATOM     22  C   UNL A   1     -23.220   0.550  26.620  0.00  0.00    +0.007 A 
BRANCH  20  23
ATOM     23  C   UNL A   1     -22.956  -0.085  28.980  0.00  0.00    +0.388 C 
ATOM     24  O   UNL A   1     -23.295  -0.693  29.869  0.00  0.00    -0.241 OA
ATOM     25  O   UNL A   1     -21.690   0.342  28.835  0.00  0.00    -0.241 OA
ENDBRANCH  20  23
ENDBRANCH   7  17
TORSDOF 2
