MODEL 889
MODEL 1
REMARK VINA RESULT:    -8.101      0.000      0.000
REMARK INTER + INTRA:          -9.626
REMARK INTER:                  -9.049
REMARK INTRA:                  -0.577
REMARK UNBOUND:                -0.577
REMARK  Name = No_889-gen_results/8p0m/2024-11-26-14-13-15/
REMARK  2 active torsions:
REMARK  status: ('A' for Active; 'I' for Inactive)
REMARK    1  A    between atoms: C_7  and  C_8
REMARK    2  A    between atoms: C_11  and  C_23
REMARK                            x       y       z     vdW  Elec       q    Type
REMARK                         _______ _______ _______ _____ _____    ______ ____
ROOT
ATOM      1  C   UNL A   1     -10.440  -0.743  37.153  0.00  0.00    -0.004 A 
ATOM      2  C   UNL A   1     -10.869  -0.939  38.096  0.00  0.00    -0.000 A 
ATOM      3  C   UNL A   1     -10.455   0.678  36.788  0.00  0.00    -0.014 A 
ATOM      4  C   UNL A   1     -11.113   1.594  37.500  0.00  0.00    -0.004 A 
ATOM      5  C   UNL A   1     -11.640  -0.139  39.015  0.00  0.00    -0.000 A 
ATOM      6  C   UNL A   1     -11.663   1.174  38.646  0.00  0.00    -0.000 A 
ATOM      7  C   UNL A   1      -9.752   1.045  35.483  0.00  0.00    +0.096 C 
ATOM      8  C   UNL A   1     -10.529   1.561  34.459  0.00  0.00    +0.235 C 
ATOM      9  F   UNL A   1     -10.744   0.947  33.558  0.00  0.00    -0.215 F 
ATOM     10  N   UNL A   1      -9.935   2.889  34.157  0.00  0.00    -0.094 NA
ATOM     11  C   UNL A   1     -11.943   2.118  34.978  0.00  0.00    +0.024 A 
ATOM     12  C   UNL A   1     -12.845   2.417  34.090  0.00  0.00    -0.000 A 
ATOM     13  C   UNL A   1     -14.108   2.826  34.406  0.00  0.00    -0.000 A 
ATOM     14  C   UNL A   1     -14.474   2.870  35.745  0.00  0.00    -0.000 A 
ATOM     15  C   UNL A   1     -13.543   2.604  36.712  0.00  0.00    -0.000 A 
ATOM     16  C   UNL A   1     -12.258   2.196  36.342  0.00  0.00    -0.000 A 
ENDROOT
BRANCH   7  17
ATOM     17  C   UNL A   1      -8.347   0.772  35.366  0.00  0.00    -0.014 A 
ATOM     18  C   UNL A   1      -7.450   1.822  35.711  0.00  0.00    -0.004 A 
ATOM     19  C   UNL A   1      -7.804  -0.424  34.850  0.00  0.00    +0.003 A 
ATOM     20  C   UNL A   1      -6.421  -0.664  34.966  0.00  0.00    +0.080 A 
ATOM     21  C   UNL A   1      -6.043   1.532  35.875  0.00  0.00    -0.000 A 
ATOM     22  C   UNL A   1      -5.575   0.309  35.529  0.00  0.00    +0.007 A 
BRANCH  20  23
ATOM     23  C   UNL A   1      -5.789  -1.953  34.591  0.00  0.00    +0.388 C 
ATOM     24  O   UNL A   1      -6.192  -2.581  33.743  0.00  0.00    -0.241 OA
ATOM     25  O   UNL A   1      -4.629  -2.232  35.210  0.00  0.00    -0.241 OA
ENDBRANCH  20  23
ENDBRANCH   7  17
TORSDOF 2
ENDMDL
ENDMDL
