MODEL 88
MODEL 1
REMARK VINA RESULT:    -4.369      0.000      0.000
REMARK INTER + INTRA:          -4.369
REMARK INTER:                  -4.369
REMARK INTRA:                   0.000
REMARK UNBOUND:                 0.000
REMARK  Name = No_88-gen_results/8p0m/2024-11-26-14-13-15/
REMARK  0 active torsions:
REMARK  status: ('A' for Active; 'I' for Inactive)
REMARK                            x       y       z     vdW  Elec       q    Type
REMARK                         _______ _______ _______ _____ _____    ______ ____
ROOT
ATOM      1  C   UNL A   1     -24.873  -5.458  28.966  0.00  0.00    +0.000 A 
ATOM      2  C   UNL A   1     -24.148  -4.785  28.604  0.00  0.00    +0.000 A 
ATOM      3  C   UNL A   1     -26.045  -4.795  29.553  0.00  0.00    +0.000 A 
ATOM      4  C   UNL A   1     -26.090  -3.480  29.769  0.00  0.00    +0.000 A 
ATOM      5  C   UNL A   1     -23.970  -3.359  28.737  0.00  0.00    +0.000 A 
ATOM      6  C   UNL A   1     -25.057  -2.765  29.306  0.00  0.00    +0.000 A 
ENDROOT
TORSDOF 0
ENDMDL
ENDMDL
