REMARK  Name = No_890-gen_results/8p0m/2024-11-26-14-13-15/
REMARK  3 active torsions:
REMARK  status: ('A' for Active; 'I' for Inactive)
REMARK    1  A    between atoms: C_3  and  C_7
REMARK    2  A    between atoms: C_7  and  C_8
REMARK    3  A    between atoms: C_7  and  C_14
REMARK                            x       y       z     vdW  Elec       q    Type
REMARK                         _______ _______ _______ _____ _____    ______ ____
ROOT
ATOM      1  C   UNL A   1     -26.317   0.399  27.365  0.00  0.00    +0.140 C 
ENDROOT
BRANCH   1   4
ATOM      2  C   UNL A   1     -28.016  -0.814  28.878  0.00  0.00    -0.004 A 
ATOM      3  C   UNL A   1     -28.469  -0.785  29.829  0.00  0.00    -0.000 A 
ATOM      4  C   UNL A   1     -27.087   0.290  28.638  0.00  0.00    -0.010 A 
ATOM      5  C   UNL A   1     -26.832   1.249  29.587  0.00  0.00    -0.004 A 
ATOM      6  C   UNL A   1     -28.391   0.080  31.006  0.00  0.00    -0.000 A 
ATOM      7  C   UNL A   1     -27.494   1.152  30.784  0.00  0.00    -0.000 A 
ENDBRANCH   1   4
BRANCH   1   8
ATOM      8  C   UNL A   1     -24.941   0.255  27.503  0.00  0.00    -0.010 A 
ATOM      9  C   UNL A   1     -24.277  -0.073  28.681  0.00  0.00    -0.004 A 
ATOM     10  C   UNL A   1     -23.130   0.425  29.047  0.00  0.00    -0.000 A 
ATOM     11  C   UNL A   1     -22.350   1.072  27.967  0.00  0.00    -0.000 A 
ATOM     12  C   UNL A   1     -23.016   1.517  26.818  0.00  0.00    -0.000 A 
ATOM     13  C   UNL A   1     -24.298   1.228  26.620  0.00  0.00    -0.004 A 
ENDBRANCH   1   8
BRANCH   1  14
ATOM     14  C   UNL A   1     -26.989   0.294  26.166  0.00  0.00    +0.405 C 
ATOM     15  F   UNL A   1     -27.146   1.503  25.796  0.00  0.00    -0.169 F 
ATOM     16  F   UNL A   1     -26.248  -0.370  25.394  0.00  0.00    -0.169 F 
ATOM     17  F   UNL A   1     -28.232  -0.195  26.247  0.00  0.00    -0.169 F 
ENDBRANCH   1  14
TORSDOF 3
