MODEL 890
MODEL 1
REMARK VINA RESULT:    -7.055      0.000      0.000
REMARK INTER + INTRA:          -9.153
REMARK INTER:                  -8.293
REMARK INTRA:                  -0.861
REMARK UNBOUND:                -0.861
REMARK  Name = No_890-gen_results/8p0m/2024-11-26-14-13-15/
REMARK  3 active torsions:
REMARK  status: ('A' for Active; 'I' for Inactive)
REMARK    1  A    between atoms: C_3  and  C_7
REMARK    2  A    between atoms: C_7  and  C_8
REMARK    3  A    between atoms: C_7  and  C_14
REMARK                            x       y       z     vdW  Elec       q    Type
REMARK                         _______ _______ _______ _____ _____    ______ ____
ROOT
ATOM      1  C   UNL A   1     -23.484  -1.312  29.935  0.00  0.00    +0.140 C 
ENDROOT
BRANCH   1   4
ATOM      2  C   UNL A   1     -25.768  -2.473  30.226  0.00  0.00    -0.004 A 
ATOM      3  C   UNL A   1     -26.296  -3.360  30.013  0.00  0.00    -0.000 A 
ATOM      4  C   UNL A   1     -24.380  -2.492  29.762  0.00  0.00    -0.010 A 
ATOM      5  C   UNL A   1     -23.848  -3.568  29.096  0.00  0.00    -0.004 A 
ATOM      6  C   UNL A   1     -26.001  -4.624  29.338  0.00  0.00    -0.000 A 
ATOM      7  C   UNL A   1     -24.661  -4.652  28.885  0.00  0.00    -0.000 A 
ENDBRANCH   1   4
BRANCH   1   8
ATOM      8  C   UNL A   1     -23.168  -0.644  28.757  0.00  0.00    -0.010 A 
ATOM      9  C   UNL A   1     -22.021   0.113  28.540  0.00  0.00    -0.004 A 
ATOM     10  C   UNL A   1     -21.984   1.222  27.857  0.00  0.00    -0.000 A 
ATOM     11  C   UNL A   1     -23.149   1.457  26.972  0.00  0.00    -0.000 A 
ATOM     12  C   UNL A   1     -24.353   0.793  27.240  0.00  0.00    -0.000 A 
ATOM     13  C   UNL A   1     -24.416  -0.151  28.173  0.00  0.00    -0.004 A 
ENDBRANCH   1   8
BRANCH   1  14
ATOM     14  C   UNL A   1     -23.314  -0.780  31.195  0.00  0.00    +0.405 C 
ATOM     15  F   UNL A   1     -22.051  -0.779  31.359  0.00  0.00    -0.169 F 
ATOM     16  F   UNL A   1     -23.813   0.376  31.169  0.00  0.00    -0.169 F 
ATOM     17  F   UNL A   1     -23.781  -1.529  32.200  0.00  0.00    -0.169 F 
ENDBRANCH   1  14
TORSDOF 3
ENDMDL
ENDMDL
