REMARK  Name = No_891-gen_results/8p0m/2024-11-26-14-13-15/
REMARK  1 active torsions:
REMARK  status: ('A' for Active; 'I' for Inactive)
REMARK    1  A    between atoms: C_5  and  C_10
REMARK                            x       y       z     vdW  Elec       q    Type
REMARK                         _______ _______ _______ _____ _____    ______ ____
ROOT
ATOM      1  C   UNL A   1     -28.016  -0.814  28.878  0.00  0.00    +0.117 C 
ATOM      2  C   UNL A   1     -27.064  -0.119  28.608  0.00  0.00    -0.006 A 
ATOM      3  C   UNL A   1     -27.001   0.691  27.491  0.00  0.00    -0.003 A 
ATOM      4  C   UNL A   1     -25.855   1.482  27.083  0.00  0.00    +0.004 A 
ATOM      5  C   UNL A   1     -24.690   1.453  27.881  0.00  0.00    +0.071 A 
ATOM      6  C   UNL A   1     -24.738   0.601  29.042  0.00  0.00    -0.001 A 
ATOM      7  C   UNL A   1     -25.823  -0.169  29.389  0.00  0.00    -0.025 A 
ATOM      8  N   UNL A   1     -29.215  -0.173  29.013  0.00  0.00    -0.201 NA
ATOM      9  C   UNL A   1     -30.246  -0.774  29.639  0.00  0.00    +0.272 C 
ATOM     10  C   UNL A   1     -29.999  -1.920  30.348  0.00  0.00    +0.229 C 
ATOM     11  C   UNL A   1     -28.729  -2.527  30.384  0.00  0.00    +0.044 C 
ATOM     12  C   UNL A   1     -27.707  -1.846  29.846  0.00  0.00    +0.028 C 
ATOM     13  O   UNL A   1     -31.406  -0.299  29.384  0.00  0.00    -0.271 OA
ATOM     14  C   UNL A   1     -26.341  -2.286  30.018  0.00  0.00    +0.007 C 
ATOM     15  C   UNL A   1     -25.507  -1.288  30.170  0.00  0.00    +0.026 C 
ATOM     16  O   UNL A   1     -31.072  -2.558  30.894  0.00  0.00    -0.213 OA
ENDROOT
BRANCH   5  17
ATOM     17  C   UNL A   1     -23.519   2.203  27.555  0.00  0.00    +0.419 C 
ATOM     18  F   UNL A   1     -23.620   2.962  26.662  0.00  0.00    -0.166 F 
ATOM     19  F   UNL A   1     -22.978   2.890  28.596  0.00  0.00    -0.166 F 
ATOM     20  F   UNL A   1     -22.439   1.345  27.270  0.00  0.00    -0.166 F 
ENDBRANCH   5  17
TORSDOF 1
