MODEL 891
MODEL 1
REMARK VINA RESULT:    -6.962      0.000      0.000
REMARK INTER + INTRA:          -7.562
REMARK INTER:                  -7.369
REMARK INTRA:                  -0.193
REMARK UNBOUND:                -0.193
REMARK  Name = No_891-gen_results/8p0m/2024-11-26-14-13-15/
REMARK  1 active torsions:
REMARK  status: ('A' for Active; 'I' for Inactive)
REMARK    1  A    between atoms: C_5  and  C_10
REMARK                            x       y       z     vdW  Elec       q    Type
REMARK                         _______ _______ _______ _____ _____    ______ ____
ROOT
ATOM      1  C   UNL A   1     -24.307   0.374  26.667  0.00  0.00    +0.117 C 
ATOM      2  C   UNL A   1     -25.291   0.713  26.052  0.00  0.00    -0.006 A 
ATOM      3  C   UNL A   1     -26.086  -0.161  25.337  0.00  0.00    -0.003 A 
ATOM      4  C   UNL A   1     -27.229   0.207  24.522  0.00  0.00    +0.004 A 
ATOM      5  C   UNL A   1     -27.595   1.568  24.441  0.00  0.00    +0.071 A 
ATOM      6  C   UNL A   1     -26.766   2.493  25.171  0.00  0.00    -0.001 A 
ATOM      7  C   UNL A   1     -25.665   2.125  25.908  0.00  0.00    -0.025 A 
ATOM      8  N   UNL A   1     -24.493  -0.579  27.629  0.00  0.00    -0.201 NA
ATOM      9  C   UNL A   1     -23.565  -0.774  28.587  0.00  0.00    +0.272 C 
ATOM     10  C   UNL A   1     -22.567   0.154  28.727  0.00  0.00    +0.229 C 
ATOM     11  C   UNL A   1     -22.437   1.258  27.863  0.00  0.00    +0.044 C 
ATOM     12  C   UNL A   1     -23.435   1.482  26.996  0.00  0.00    +0.028 C 
ATOM     13  O   UNL A   1     -23.613  -1.903  29.186  0.00  0.00    -0.271 OA
ATOM     14  C   UNL A   1     -23.492   2.699  26.218  0.00  0.00    +0.007 C 
ATOM     15  C   UNL A   1     -24.715   3.142  26.068  0.00  0.00    +0.026 C 
ATOM     16  O   UNL A   1     -21.592  -0.113  29.640  0.00  0.00    -0.213 OA
ENDROOT
BRANCH   5  17
ATOM     17  C   UNL A   1     -28.707   2.017  23.665  0.00  0.00    +0.419 C 
ATOM     18  F   UNL A   1     -28.450   2.615  22.685  0.00  0.00    -0.166 F 
ATOM     19  F   UNL A   1     -29.583   1.039  23.311  0.00  0.00    -0.166 F 
ATOM     20  F   UNL A   1     -29.569   2.816  24.442  0.00  0.00    -0.166 F 
ENDBRANCH   5  17
TORSDOF 1
ENDMDL
ENDMDL
