REMARK  Name = No_892-gen_results/8p0m/2024-11-26-14-13-15/
REMARK  7 active torsions:
REMARK  status: ('A' for Active; 'I' for Inactive)
REMARK    1  A    between atoms: C_1  and  C_2
REMARK    2  A    between atoms: C_1  and  C_4
REMARK    3  A    between atoms: C_4  and  C_5
REMARK    4  A    between atoms: C_7  and  C_13
REMARK    5  A    between atoms: N_15  and  C_17
REMARK    6  A    between atoms: C_18  and  C_19
REMARK    7  A    between atoms: C_20  and  C_21
REMARK                            x       y       z     vdW  Elec       q    Type
REMARK                         _______ _______ _______ _____ _____    ______ ____
ROOT
ATOM      1  C   UNL A   1     -29.317  -1.291  30.840  0.00  0.00    -0.022 A 
ATOM      2  C   UNL A   1     -29.975  -2.290  30.043  0.00  0.00    +0.000 A 
ATOM      3  C   UNL A   1     -31.025  -3.076  30.715  0.00  0.00    +0.054 A 
ATOM      4  C   UNL A   1     -31.261  -2.884  31.830  0.00  0.00    +0.004 A 
ATOM      5  C   UNL A   1     -30.711  -1.994  32.752  0.00  0.00    -0.000 A 
ATOM      6  C   UNL A   1     -29.684  -1.228  32.261  0.00  0.00    -0.004 A 
ENDROOT
BRANCH   3   7
ATOM      7  C   UNL A   1     -31.660  -4.080  29.812  0.00  0.00    +0.253 C 
ATOM      8  O   UNL A   1     -31.257  -5.200  29.649  0.00  0.00    -0.270 OA
ATOM      9  N   UNL A   1     -32.647  -3.672  28.932  0.00  0.00    -0.252 N 
ATOM     10  C   UNL A   1     -33.225  -4.533  27.969  0.00  0.00    +0.120 C 
BRANCH   9  11
ATOM     11  C   UNL A   1     -33.221  -2.324  28.992  0.00  0.00    +0.068 C 
ATOM     12  C   UNL A   1     -33.002  -1.512  28.065  0.00  0.00    +0.016 C 
BRANCH  12  13
ATOM     13  C   UNL A   1     -32.920  -1.677  26.798  0.00  0.00    +0.001 C 
ATOM     14  C   UNL A   1     -33.215  -0.670  25.893  0.00  0.00    +0.000 C 
BRANCH  14  15
ATOM     15  C   UNL A   1     -33.092   0.654  26.244  0.00  0.00    +0.000 C 
ATOM     16  C   UNL A   1     -33.107   0.963  27.621  0.00  0.00    +0.000 C 
ENDBRANCH  14  15
ENDBRANCH  12  13
ENDBRANCH   9  11
ENDBRANCH   3   7
BRANCH   1  17
ATOM     17  C   UNL A   1     -28.337  -0.677  30.344  0.00  0.00    +0.033 C 
BRANCH  17  18
ATOM     18  C   UNL A   1     -28.016  -0.814  28.878  0.00  0.00    +0.088 C 
BRANCH  18  19
ATOM     19  C   UNL A   1     -27.064  -0.119  28.608  0.00  0.00    +0.330 C 
ATOM     20 CL   UNL A   1     -26.953   1.349  28.838  0.00  0.00    -0.047 Cl
ATOM     21  F   UNL A   1     -25.787  -0.693  28.973  0.00  0.00    -0.187 F 
ATOM     22  F   UNL A   1     -26.873  -0.287  27.148  0.00  0.00    -0.187 F 
ENDBRANCH  18  19
ENDBRANCH  17  18
ENDBRANCH   1  17
TORSDOF 7
