REMARK  Name = No_893-gen_results/8p0m/2024-11-26-14-13-15/
REMARK  1 active torsions:
REMARK  status: ('A' for Active; 'I' for Inactive)
REMARK    1  A    between atoms: C_9  and  C_11
REMARK                            x       y       z     vdW  Elec       q    Type
REMARK                         _______ _______ _______ _____ _____    ______ ____
ROOT
ATOM      1  C   UNL A   1     -28.016  -0.814  28.878  0.00  0.00    +0.000 A 
ATOM      2  C   UNL A   1     -27.064  -0.119  28.608  0.00  0.00    +0.000 A 
ATOM      3  C   UNL A   1     -26.929   1.171  29.008  0.00  0.00    +0.000 A 
ATOM      4  C   UNL A   1     -27.956   1.741  29.784  0.00  0.00    +0.000 A 
ATOM      5  C   UNL A   1     -29.057  -0.327  29.747  0.00  0.00    +0.000 A 
ATOM      6  C   UNL A   1     -28.983   0.972  30.152  0.00  0.00    +0.000 A 
ATOM      7  C   UNL A   1     -25.891  -0.626  27.786  0.00  0.00    +0.000 A 
ATOM      8  C   UNL A   1     -24.569  -0.199  28.200  0.00  0.00    +0.007 A 
ATOM      9  C   UNL A   1     -24.383   1.181  28.346  0.00  0.00    +0.080 A 
ATOM     10  C   UNL A   1     -25.603   1.814  29.060  0.00  0.00    +0.007 A 
ENDROOT
BRANCH   9  11
ATOM     11  C   UNL A   1     -23.120   1.797  28.370  0.00  0.00    +0.388 C 
ATOM     12  O   UNL A   1     -22.546   2.178  29.330  0.00  0.00    -0.241 OA
ATOM     13  O   UNL A   1     -22.574   1.973  27.124  0.00  0.00    -0.241 OA
ENDBRANCH   9  11
TORSDOF 1
