REMARK  Name = No_894-gen_results/8p0m/2024-11-26-14-13-15/
REMARK  4 active torsions:
REMARK  status: ('A' for Active; 'I' for Inactive)
REMARK    1  A    between atoms: C_2  and  C_3
REMARK    2  A    between atoms: C_3  and  C_5
REMARK    3  A    between atoms: C_3  and  C_17
REMARK    4  A    between atoms: N_4  and  C_11
REMARK                            x       y       z     vdW  Elec       q    Type
REMARK                         _______ _______ _______ _____ _____    ______ ____
ROOT
ATOM      1  O   UNL A   1     -28.123  -1.335  28.487  0.00  0.00    -0.272 OA
ATOM      2  C   UNL A   1     -27.481  -0.404  28.709  0.00  0.00    +0.253 C 
ATOM      3  N   UNL A   1     -27.899   0.646  29.632  0.00  0.00    -0.179 NA
ENDROOT
BRANCH   3   4
ATOM      4  C   UNL A   1     -29.029   0.396  30.509  0.00  0.00    +0.073 A 
ATOM      5  C   UNL A   1     -29.517   1.281  30.928  0.00  0.00    +0.017 A 
ATOM      6  C   UNL A   1     -30.709   1.224  31.846  0.00  0.00    +0.001 A 
ATOM      7  C   UNL A   1     -31.200  -0.079  32.089  0.00  0.00    +0.000 A 
ATOM      8  C   UNL A   1     -30.565  -1.168  31.490  0.00  0.00    +0.001 A 
ATOM      9  C   UNL A   1     -29.447  -0.984  30.739  0.00  0.00    +0.017 A 
ENDBRANCH   3   4
BRANCH   2  10
ATOM     10  C   UNL A   1     -26.380  -0.087  27.939  0.00  0.00    +0.123 C 
BRANCH  10  11
ATOM     11  C   UNL A   1     -25.124  -0.532  28.371  0.00  0.00    -0.010 A 
ATOM     12  C   UNL A   1     -24.802  -1.710  28.792  0.00  0.00    -0.004 A 
ATOM     13  C   UNL A   1     -23.471  -2.142  29.141  0.00  0.00    -0.000 A 
ATOM     14  C   UNL A   1     -22.476  -1.215  28.974  0.00  0.00    -0.000 A 
ATOM     15  C   UNL A   1     -22.675   0.094  28.506  0.00  0.00    -0.000 A 
ATOM     16  C   UNL A   1     -24.034   0.446  28.200  0.00  0.00    -0.004 A 
ENDBRANCH  10  11
BRANCH  10  17
ATOM     17  C   UNL A   1     -26.576   0.528  26.651  0.00  0.00    -0.013 C 
ATOM     18  C   UNL A   1     -26.248  -0.047  25.517  0.00  0.00    -0.004 C 
ENDBRANCH  10  17
ENDBRANCH   2  10
TORSDOF 4
