MODEL 894
MODEL 1
REMARK VINA RESULT:    -6.875      0.000      0.000
REMARK INTER + INTRA:          -8.987
REMARK INTER:                  -8.483
REMARK INTRA:                  -0.504
REMARK UNBOUND:                -0.504
REMARK  Name = No_894-gen_results/8p0m/2024-11-26-14-13-15/
REMARK  4 active torsions:
REMARK  status: ('A' for Active; 'I' for Inactive)
REMARK    1  A    between atoms: C_2  and  C_3
REMARK    2  A    between atoms: C_3  and  C_5
REMARK    3  A    between atoms: C_3  and  C_17
REMARK    4  A    between atoms: N_4  and  C_11
REMARK                            x       y       z     vdW  Elec       q    Type
REMARK                         _______ _______ _______ _____ _____    ______ ____
ROOT
ATOM      1  O   UNL A   1     -25.684  -0.371  27.931  0.00  0.00    -0.272 OA
ATOM      2  C   UNL A   1     -24.848  -0.317  28.723  0.00  0.00    +0.253 C 
ATOM      3  N   UNL A   1     -23.692   0.565  28.597  0.00  0.00    -0.179 NA
ENDROOT
BRANCH   3   4
ATOM      4  C   UNL A   1     -23.716   1.607  27.586  0.00  0.00    +0.073 A 
ATOM      5  C   UNL A   1     -23.051   1.460  26.730  0.00  0.00    +0.017 A 
ATOM      6  C   UNL A   1     -22.945   2.423  25.577  0.00  0.00    +0.001 A 
ATOM      7  C   UNL A   1     -23.825   3.527  25.653  0.00  0.00    +0.000 A 
ATOM      8  C   UNL A   1     -24.684   3.638  26.747  0.00  0.00    +0.001 A 
ATOM      9  C   UNL A   1     -24.626   2.735  27.761  0.00  0.00    +0.017 A 
ENDBRANCH   3   4
BRANCH   2  10
ATOM     10  C   UNL A   1     -24.748  -1.255  29.731  0.00  0.00    +0.123 C 
BRANCH  10  11
ATOM     11  C   UNL A   1     -24.804  -2.609  29.378  0.00  0.00    -0.010 A 
ATOM     12  C   UNL A   1     -23.898  -3.312  28.782  0.00  0.00    -0.004 A 
ATOM     13  C   UNL A   1     -23.970  -4.728  28.522  0.00  0.00    -0.000 A 
ATOM     14  C   UNL A   1     -25.092  -5.367  28.983  0.00  0.00    -0.000 A 
ATOM     15  C   UNL A   1     -26.145  -4.737  29.665  0.00  0.00    -0.000 A 
ATOM     16  C   UNL A   1     -26.000  -3.321  29.865  0.00  0.00    -0.004 A 
ENDBRANCH  10  11
BRANCH  10  17
ATOM     17  C   UNL A   1     -24.419  -0.821  31.065  0.00  0.00    -0.013 C 
ATOM     18  C   UNL A   1     -23.196  -0.812  31.542  0.00  0.00    -0.004 C 
ENDBRANCH  10  17
ENDBRANCH   2  10
TORSDOF 4
ENDMDL
ENDMDL
