REMARK  Name = No_895-gen_results/8p0m/2024-11-26-14-13-15/
REMARK  5 active torsions:
REMARK  status: ('A' for Active; 'I' for Inactive)
REMARK    1  A    between atoms: C_1  and  O_16
REMARK    2  A    between atoms: C_3  and  C_8
REMARK    3  A    between atoms: C_13  and  O_14
REMARK    4  A    between atoms: O_16  and  C_17
REMARK    5  A    between atoms: C_17  and  C_18
REMARK                            x       y       z     vdW  Elec       q    Type
REMARK                         _______ _______ _______ _____ _____    ______ ____
ROOT
ATOM      1  C   UNL A   1     -28.016  -0.814  28.878  0.00  0.00    +0.166 A 
ATOM      2  C   UNL A   1     -27.064  -0.119  28.608  0.00  0.00    +0.039 A 
ATOM      3  C   UNL A   1     -25.792  -0.430  29.076  0.00  0.00    +0.003 A 
ATOM      4  C   UNL A   1     -25.576  -1.565  29.936  0.00  0.00    +0.003 A 
ATOM      5  C   UNL A   1     -26.735  -2.300  30.217  0.00  0.00    +0.033 A 
ATOM      6  C   UNL A   1     -27.918  -1.954  29.763  0.00  0.00    +0.174 A 
ATOM      7  F   UNL A   1     -28.965  -2.696  30.072  0.00  0.00    -0.201 F 
ENDROOT
BRANCH   3   8
ATOM      8  C   UNL A   1     -24.535   0.360  28.802  0.00  0.00    +0.003 A 
ATOM      9  C   UNL A   1     -23.356   0.009  29.190  0.00  0.00    +0.000 A 
ATOM     10  C   UNL A   1     -22.181   0.779  28.810  0.00  0.00    +0.003 A 
ATOM     11  C   UNL A   1     -22.313   1.746  27.794  0.00  0.00    +0.037 A 
ATOM     12  C   UNL A   1     -24.722   1.575  27.991  0.00  0.00    +0.037 A 
ATOM     13  C   UNL A   1     -23.712   2.226  27.629  0.00  0.00    +0.139 A 
BRANCH  13  14
ATOM     14  O   UNL A   1     -23.780   3.323  26.778  0.00  0.00    -0.471 OA
ATOM     15  C   UNL A   1     -24.604   3.868  26.406  0.00  0.00    +0.253 C 
ENDBRANCH  13  14
ENDBRANCH   3   8
BRANCH   1  16
ATOM     16  O   UNL A   1     -29.296  -0.524  28.481  0.00  0.00    -0.468 OA
BRANCH  16  17
ATOM     17  C   UNL A   1     -29.691   0.793  28.440  0.00  0.00    +0.232 C 
BRANCH  17  18
ATOM     18  C   UNL A   1     -29.851   1.267  27.133  0.00  0.00    +0.016 C 
ATOM     19  C   UNL A   1     -30.248   0.657  26.152  0.00  0.00    -0.027 C 
ATOM     20  C   UNL A   1     -30.291   1.079  24.801  0.00  0.00    +0.030 C 
ENDBRANCH  17  18
ENDBRANCH  16  17
ENDBRANCH   1  16
TORSDOF 5
