REMARK  Name = No_896-gen_results/8p0m/2024-11-26-14-13-15/
REMARK  1 active torsions:
REMARK  status: ('A' for Active; 'I' for Inactive)
REMARK    1  A    between atoms: C_3  and  C_4
REMARK                            x       y       z     vdW  Elec       q    Type
REMARK                         _______ _______ _______ _____ _____    ______ ____
ROOT
ATOM      1  C   UNL A   1     -25.688   1.952  28.567  0.00  0.00    -0.004 C 
ATOM      2  C   UNL A   1     -24.639   1.283  27.875  0.00  0.00    +0.077 C 
ATOM      3  C   UNL A   1     -23.449   1.959  27.537  0.00  0.00    +0.019 C 
ATOM      4  C   UNL A   1     -25.983   3.277  27.835  0.00  0.00    +0.033 C 
ATOM      5  C   UNL A   1     -22.274   1.258  27.318  0.00  0.00    +0.002 C 
ATOM      6  C   UNL A   1     -21.834   0.566  28.381  0.00  0.00    +0.002 C 
ATOM      7  C   UNL A   1     -22.776  -0.392  29.011  0.00  0.00    +0.021 C 
ATOM      8  C   UNL A   1     -23.798  -0.395  28.886  0.00  0.00    +0.099 C 
ATOM      9  N   UNL A   1     -24.618   0.043  27.978  0.00  0.00    -0.244 NA
ENDROOT
BRANCH   1  12
ATOM     10  C   UNL A   1     -28.016  -0.814  28.878  0.00  0.00    -0.000 A 
ATOM     11  C   UNL A   1     -27.064  -0.119  28.608  0.00  0.00    -0.000 A 
ATOM     12  C   UNL A   1     -26.876   1.133  28.913  0.00  0.00    -0.003 A 
ATOM     13  C   UNL A   1     -29.093  -0.196  29.676  0.00  0.00    -0.000 A 
ATOM     14  C   UNL A   1     -29.043   1.085  30.017  0.00  0.00    -0.000 A 
ATOM     15  C   UNL A   1     -27.908   1.815  29.666  0.00  0.00    -0.000 A 
ENDBRANCH   1  12
TORSDOF 1
