MODEL 896
MODEL 1
REMARK VINA RESULT:    -6.726      0.000      0.000
REMARK INTER + INTRA:          -7.041
REMARK INTER:                  -7.119
REMARK INTRA:                   0.078
REMARK UNBOUND:                 0.078
REMARK  Name = No_896-gen_results/8p0m/2024-11-26-14-13-15/
REMARK  1 active torsions:
REMARK  status: ('A' for Active; 'I' for Inactive)
REMARK    1  A    between atoms: C_3  and  C_4
REMARK                            x       y       z     vdW  Elec       q    Type
REMARK                         _______ _______ _______ _____ _____    ______ ____
ROOT
ATOM      1  C   UNL A   1     -23.307  -0.983  28.912  0.00  0.00    -0.004 C 
ATOM      2  C   UNL A   1     -23.885   0.204  28.377  0.00  0.00    +0.077 C 
ATOM      3  C   UNL A   1     -23.080   1.310  28.036  0.00  0.00    +0.019 C 
ATOM      4  C   UNL A   1     -22.375  -0.586  30.074  0.00  0.00    +0.033 C 
ATOM      5  C   UNL A   1     -23.515   2.242  27.108  0.00  0.00    +0.002 C 
ATOM      6  C   UNL A   1     -23.728   1.745  25.879  0.00  0.00    +0.002 C 
ATOM      7  C   UNL A   1     -24.646   0.585  25.762  0.00  0.00    +0.021 C 
ATOM      8  C   UNL A   1     -24.929  -0.034  26.534  0.00  0.00    +0.099 C 
ATOM      9  N   UNL A   1     -24.994   0.074  27.828  0.00  0.00    -0.244 NA
ENDROOT
BRANCH   1  12
ATOM     10  C   UNL A   1     -26.137  -2.915  30.106  0.00  0.00    -0.000 A 
ATOM     11  C   UNL A   1     -25.354  -2.026  29.864  0.00  0.00    -0.000 A 
ATOM     12  C   UNL A   1     -24.241  -2.101  29.192  0.00  0.00    -0.003 A 
ATOM     13  C   UNL A   1     -25.828  -4.249  29.555  0.00  0.00    -0.000 A 
ATOM     14  C   UNL A   1     -24.703  -4.470  28.887  0.00  0.00    -0.000 A 
ATOM     15  C   UNL A   1     -23.855  -3.388  28.651  0.00  0.00    -0.000 A 
ENDBRANCH   1  12
TORSDOF 1
ENDMDL
ENDMDL
