MODEL 897
MODEL 1
REMARK VINA RESULT:    -5.747      0.000      0.000
REMARK INTER + INTRA:          -7.151
REMARK INTER:                  -6.755
REMARK INTRA:                  -0.396
REMARK UNBOUND:                -0.396
REMARK  Name = No_897-gen_results/8p0m/2024-11-26-14-13-15/
REMARK  3 active torsions:
REMARK  status: ('A' for Active; 'I' for Inactive)
REMARK    1  A    between atoms: C_3  and  C_7
REMARK    2  A    between atoms: N_8  and  C_10
REMARK    3  A    between atoms: C_11  and  C_12
REMARK                            x       y       z     vdW  Elec       q    Type
REMARK                         _______ _______ _______ _____ _____    ______ ____
ROOT
ATOM      1  C   UNL A   1     -23.434  -1.118  30.938  0.00  0.00    +0.059 C 
ATOM      2  N   UNL A   1     -24.394  -1.816  30.600  0.00  0.00    -0.248 NA
ATOM      3  C   UNL A   1     -23.002  -1.101  32.238  0.00  0.00    +0.052 C 
ENDROOT
BRANCH   1   6
ATOM      4  C   UNL A   1     -21.626  -0.593  29.232  0.00  0.00    +0.001 A 
ATOM      5  C   UNL A   1     -21.299  -0.004  28.422  0.00  0.00    +0.000 A 
ATOM      6  C   UNL A   1     -22.879  -0.216  29.823  0.00  0.00    +0.014 A 
ATOM      7  C   UNL A   1     -23.531   0.904  29.498  0.00  0.00    +0.001 A 
ATOM      8  C   UNL A   1     -22.993   1.648  28.484  0.00  0.00    +0.000 A 
ATOM      9  C   UNL A   1     -21.833   1.230  27.887  0.00  0.00    +0.000 A 
ENDBRANCH   1   6
BRANCH   2  10
ATOM     10  C   UNL A   1     -25.104  -1.940  29.384  0.00  0.00    +0.094 C 
ATOM     11  C   UNL A   1     -24.917  -3.071  28.594  0.00  0.00    -0.005 C 
BRANCH  11  12
ATOM     12  C   UNL A   1     -24.288  -4.178  29.023  0.00  0.00    +0.028 C 
ATOM     13  C   UNL A   1     -24.850  -5.393  29.087  0.00  0.00    +0.005 C 
ENDBRANCH  11  12
ENDBRANCH   2  10
TORSDOF 3
ENDMDL
ENDMDL
