MODEL 898
MODEL 1
REMARK VINA RESULT:    -7.671      0.000      0.000
REMARK INTER + INTRA:         -15.649
REMARK INTER:                 -12.156
REMARK INTRA:                  -3.492
REMARK UNBOUND:                -3.492
REMARK  Name = No_898-gen_results/8p0m/2024-11-26-14-13-15/
REMARK  10 active torsions:
REMARK  status: ('A' for Active; 'I' for Inactive)
REMARK    1  A    between atoms: C_2  and  C_4
REMARK    2  A    between atoms: C_3  and  N_20
REMARK    3  A    between atoms: C_4  and  C_5
REMARK    4  A    between atoms: C_6  and  C_7
REMARK    5  A    between atoms: C_6  and  C_13
REMARK    6  A    between atoms: C_13  and  C_14
REMARK    7  A    between atoms: C_13  and  C_22
REMARK    8  A    between atoms: C_16  and  C_31
REMARK    9  A    between atoms: N_20  and  C_21
REMARK   10  A    between atoms: C_21  and  C_23
REMARK                            x       y       z     vdW  Elec       q    Type
REMARK                         _______ _______ _______ _____ _____    ______ ____
ROOT
ATOM      1  C   UNL A   1     -26.652  -0.608  29.054  0.00  0.00    -0.025 C 
ATOM      2  C   UNL A   1     -25.591  -1.147  29.318  0.00  0.00    -0.018 C 
ENDROOT
BRANCH   2   3
ATOM      3  C   UNL A   1     -25.224  -2.531  29.284  0.00  0.00    -0.004 A 
ATOM      4  C   UNL A   1     -24.335  -3.183  28.378  0.00  0.00    -0.000 A 
ATOM      5  C   UNL A   1     -23.964  -4.533  28.520  0.00  0.00    -0.000 A 
ATOM      6  C   UNL A   1     -24.923  -5.397  29.060  0.00  0.00    -0.000 A 
ATOM      7  C   UNL A   1     -26.098  -4.893  29.633  0.00  0.00    -0.000 A 
ATOM      8  C   UNL A   1     -26.270  -3.479  29.770  0.00  0.00    -0.000 A 
ENDBRANCH   2   3
BRANCH   1   9
ATOM      9  C   UNL A   1     -27.334   0.599  28.911  0.00  0.00    +0.056 C 
ATOM     10  C   UNL A   1     -27.967   1.150  30.138  0.00  0.00    +0.010 C 
BRANCH   9  12
ATOM     11 CL   UNL A   1     -26.916   2.669  27.843  0.00  0.00    -0.085 Cl
ATOM     12  C   UNL A   1     -27.243   1.508  27.652  0.00  0.00    +0.055 C 
ATOM     13  C   UNL A   1     -27.477   0.968  26.536  0.00  0.00    +0.088 C 
BRANCH  13  14
ATOM     14  N   UNL A   1     -27.102   1.151  25.537  0.00  0.00    -0.224 NA
BRANCH  14  15
ATOM     15  C   UNL A   1     -28.012   1.560  24.593  0.00  0.00    +0.226 C 
BRANCH  15  16
ATOM     16  C   UNL A   1     -28.939   0.506  23.922  0.00  0.00    +0.386 C 
ATOM     17  O   UNL A   1     -30.044   1.007  23.544  0.00  0.00    -0.244 OA
ATOM     18  O   UNL A   1     -28.574  -0.526  23.526  0.00  0.00    -0.244 OA
ENDBRANCH  15  16
ENDBRANCH  14  15
ENDBRANCH  13  14
ENDBRANCH   9  12
ENDBRANCH   1   9
BRANCH   2  19
ATOM     19  C   UNL A   1     -24.542  -0.234  29.884  0.00  0.00    +0.066 C 
BRANCH  19  20
ATOM     20  C   UNL A   1     -24.671   0.124  31.194  0.00  0.00    -0.013 A 
ATOM     21  C   UNL A   1     -25.499  -0.485  32.088  0.00  0.00    -0.004 A 
ATOM     22  C   UNL A   1     -25.946   0.122  33.304  0.00  0.00    +0.001 A 
ATOM     23  C   UNL A   1     -25.668   1.510  33.412  0.00  0.00    +0.011 A 
ATOM     24  C   UNL A   1     -25.198   2.286  32.370  0.00  0.00    +0.057 A 
ATOM     25  C   UNL A   1     -24.644   1.609  31.232  0.00  0.00    +0.008 A 
ATOM     26 CL   UNL A   1     -24.960   3.917  32.622  0.00  0.00    -0.082 Cl
ENDBRANCH  19  20
BRANCH  19  27
ATOM     27  C   UNL A   1     -23.576   0.209  29.050  0.00  0.00    -0.014 A 
ATOM     28  C   UNL A   1     -23.887   0.993  27.927  0.00  0.00    +0.003 A 
ATOM     29  C   UNL A   1     -22.801   1.510  27.096  0.00  0.00    +0.080 A 
ATOM     30  C   UNL A   1     -21.530   1.142  27.485  0.00  0.00    +0.007 A 
ATOM     31  C   UNL A   1     -21.238   0.307  28.513  0.00  0.00    -0.000 A 
ATOM     32  C   UNL A   1     -22.244  -0.095  29.312  0.00  0.00    -0.004 A 
BRANCH  29  33
ATOM     33  C   UNL A   1     -23.107   2.363  25.947  0.00  0.00    +0.388 C 
ATOM     34  O   UNL A   1     -24.259   2.890  25.840  0.00  0.00    -0.241 OA
ATOM     35  O   UNL A   1     -22.308   2.443  24.917  0.00  0.00    -0.241 OA
ENDBRANCH  29  33
ENDBRANCH  19  27
ENDBRANCH   2  19
TORSDOF 10
ENDMDL
ENDMDL
