MODEL 899
MODEL 1
REMARK VINA RESULT:    -7.301      0.000      0.000
REMARK INTER + INTRA:          -8.426
REMARK INTER:                  -8.154
REMARK INTRA:                  -0.272
REMARK UNBOUND:                -0.272
REMARK  Name = No_899-gen_results/8p0m/2024-11-26-14-13-15/
REMARK  2 active torsions:
REMARK  status: ('A' for Active; 'I' for Inactive)
REMARK    1  A    between atoms: C_2  and  C_7
REMARK    2  A    between atoms: C_6  and  C_13
REMARK                            x       y       z     vdW  Elec       q    Type
REMARK                         _______ _______ _______ _____ _____    ______ ____
ROOT
ATOM      1  C   UNL A   1     -24.439  -0.137  28.497  0.00  0.00    +0.004 A 
ATOM      2  C   UNL A   1     -23.906  -1.158  28.867  0.00  0.00    +0.000 A 
ATOM      3  C   UNL A   1     -22.531  -1.217  29.070  0.00  0.00    +0.000 A 
ATOM      4  C   UNL A   1     -21.693  -0.077  28.800  0.00  0.00    +0.000 A 
ATOM      5  C   UNL A   1     -22.389   1.053  28.353  0.00  0.00    +0.004 A 
ATOM      6  C   UNL A   1     -23.688   1.052  28.161  0.00  0.00    +0.054 A 
ENDROOT
BRANCH   2   7
ATOM      7  C   UNL A   1     -24.609  -2.434  29.167  0.00  0.00    +0.000 A 
ATOM      8  C   UNL A   1     -25.719  -2.626  29.638  0.00  0.00    +0.000 A 
ATOM      9  C   UNL A   1     -26.372  -3.934  29.779  0.00  0.00    +0.000 A 
ATOM     10  C   UNL A   1     -25.630  -5.059  29.361  0.00  0.00    +0.000 A 
ATOM     11  C   UNL A   1     -23.910  -3.660  28.713  0.00  0.00    +0.000 A 
ATOM     12  C   UNL A   1     -24.423  -4.868  28.832  0.00  0.00    +0.000 A 
ENDBRANCH   2   7
BRANCH   6  13
ATOM     13  C   UNL A   1     -24.271   2.295  27.606  0.00  0.00    +0.249 C 
ATOM     14  N   UNL A   1     -24.277   2.459  26.531  0.00  0.00    -0.273 N 
ATOM     15  C   UNL A   1     -24.659   3.623  25.877  0.00  0.00    +0.115 C 
ATOM     16  O   UNL A   1     -24.454   3.204  28.428  0.00  0.00    -0.270 OA
ATOM     17  C   UNL A   1     -24.009   1.354  25.472  0.00  0.00    +0.115 C 
ENDBRANCH   6  13
TORSDOF 2
ENDMDL
ENDMDL
