MODEL 89
MODEL 1
REMARK VINA RESULT:    -5.045      0.000      0.000
REMARK INTER + INTRA:          -5.281
REMARK INTER:                  -5.340
REMARK INTRA:                   0.059
REMARK UNBOUND:                 0.059
REMARK  Name = No_89-gen_results/8p0m/2024-11-26-14-13-15/
REMARK  1 active torsions:
REMARK  status: ('A' for Active; 'I' for Inactive)
REMARK    1  A    between atoms: C_2  and  C_8
REMARK                            x       y       z     vdW  Elec       q    Type
REMARK                         _______ _______ _______ _____ _____    ______ ____
ROOT
ATOM      1  C   UNL A   1     -25.818  -2.802  29.457  0.00  0.00    +0.011 A 
ATOM      2  C   UNL A   1     -24.721  -2.581  29.000  0.00  0.00    +0.001 A 
ATOM      3  C   UNL A   1     -23.887  -3.619  28.598  0.00  0.00    +0.000 A 
ATOM      4  C   UNL A   1     -24.287  -4.993  28.758  0.00  0.00    +0.001 A 
ATOM      5  C   UNL A   1     -25.561  -5.159  29.317  0.00  0.00    +0.011 A 
ATOM      6  C   UNL A   1     -26.303  -4.144  29.695  0.00  0.00    +0.058 A 
ATOM      7 CL   UNL A   1     -27.813  -4.464  30.416  0.00  0.00    -0.082 Cl
ENDROOT
BRANCH   2   8
ATOM      8  C   UNL A   1     -24.131  -1.223  28.793  0.00  0.00    -0.004 C 
ATOM      9  C   UNL A   1     -23.483  -0.610  29.723  0.00  0.00    -0.026 C 
ATOM     10  C   UNL A   1     -23.457  -1.142  31.043  0.00  0.00    +0.031 C 
ENDBRANCH   2   8
TORSDOF 1
ENDMDL
ENDMDL
