MODEL 8
MODEL 1
REMARK VINA RESULT:    -5.752      0.000      0.000
REMARK INTER + INTRA:          -7.732
REMARK INTER:                  -7.434
REMARK INTRA:                  -0.298
REMARK UNBOUND:                -0.298
REMARK  Name = No_8-gen_results/8p0m/2024-11-26-14-13-15/
REMARK  5 active torsions:
REMARK  status: ('A' for Active; 'I' for Inactive)
REMARK    1  A    between atoms: C_1  and  C_2
REMARK    2  A    between atoms: C_1  and  N_8
REMARK    3  A    between atoms: N_8  and  C_9
REMARK    4  A    between atoms: C_10  and  C_11
REMARK    5  A    between atoms: C_12  and  C_13
REMARK                            x       y       z     vdW  Elec       q    Type
REMARK                         _______ _______ _______ _____ _____    ______ ____
ROOT
ATOM      1  C   UNL A   1     -24.779  -1.272  29.864  0.00  0.00    +0.139 C 
ENDROOT
BRANCH   1   2
ATOM      2  C   UNL A   1     -24.935  -2.435  29.572  0.00  0.00    -0.001 A 
ATOM      3  C   UNL A   1     -23.915  -3.168  28.974  0.00  0.00    -0.003 A 
ATOM      4  C   UNL A   1     -23.986  -4.598  28.559  0.00  0.00    -0.000 A 
ATOM      5  C   UNL A   1     -25.158  -5.306  28.957  0.00  0.00    -0.000 A 
ATOM      6  C   UNL A   1     -26.155  -4.558  29.615  0.00  0.00    -0.000 A 
ATOM      7  C   UNL A   1     -26.054  -3.255  29.915  0.00  0.00    -0.003 A 
ENDBRANCH   1   2
BRANCH   1   8
ATOM      8  N   UNL A   1     -23.760  -0.587  29.189  0.00  0.00    -0.232 NA
BRANCH   8   9
ATOM      9  C   UNL A   1     -23.782   0.289  28.645  0.00  0.00    +0.081 C 
ATOM     10  C   UNL A   1     -22.992   0.714  27.758  0.00  0.00    +0.017 C 
BRANCH  10  11
ATOM     11  C   UNL A   1     -23.180   1.976  26.992  0.00  0.00    +0.001 C 
ATOM     12  C   UNL A   1     -23.855   2.023  25.738  0.00  0.00    +0.000 C 
BRANCH  12  13
ATOM     13  C   UNL A   1     -24.388   0.786  25.240  0.00  0.00    +0.000 C 
ATOM     14  C   UNL A   1     -25.717   0.613  25.177  0.00  0.00    +0.000 C 
ENDBRANCH  12  13
ENDBRANCH  10  11
ENDBRANCH   8   9
ENDBRANCH   1   8
TORSDOF 5
ENDMDL
ENDMDL
