REMARK  Name = No_9-gen_results/8p0m/2024-11-26-14-13-15/
REMARK  3 active torsions:
REMARK  status: ('A' for Active; 'I' for Inactive)
REMARK    1  A    between atoms: C_2  and  N_10
REMARK    2  A    between atoms: C_5  and  C_7
REMARK    3  A    between atoms: C_14  and  C_15
REMARK                            x       y       z     vdW  Elec       q    Type
REMARK                         _______ _______ _______ _____ _____    ______ ____
ROOT
ATOM      1  C   UNL A   1     -26.305   0.477  31.773  0.00  0.00    +0.041 C 
ATOM      2  C   UNL A   1     -26.140   1.739  32.196  0.00  0.00    -0.025 A 
ATOM      3  C   UNL A   1     -25.482   2.757  31.580  0.00  0.00    -0.004 A 
ATOM      4  C   UNL A   1     -25.327   4.090  32.086  0.00  0.00    -0.000 A 
ATOM      5  C   UNL A   1     -25.820   4.431  33.314  0.00  0.00    -0.000 A 
ATOM      6  C   UNL A   1     -26.584   3.494  34.004  0.00  0.00    -0.005 A 
ATOM      7  C   UNL A   1     -26.709   2.211  33.521  0.00  0.00    -0.026 A 
ATOM      8  C   UNL A   1     -27.261  -0.443  32.322  0.00  0.00    +0.008 C 
ATOM      9  C   UNL A   1     -28.555  -0.457  32.136  0.00  0.00    +0.001 C 
ATOM     10  C   UNL A   1     -29.342  -0.439  33.050  0.00  0.00    +0.003 C 
ATOM     11  C   UNL A   1     -29.015  -1.108  34.295  0.00  0.00    +0.033 C 
ATOM     12  C   UNL A   1     -27.674  -1.094  34.636  0.00  0.00    +0.152 C 
ATOM     13  C   UNL A   1     -26.836  -0.185  33.912  0.00  0.00    +0.033 C 
ATOM     14  C   UNL A   1     -27.152   1.026  34.360  0.00  0.00    +0.029 C 
ATOM     15  C   UNL A   1     -25.412  -0.729  34.180  0.00  0.00    +0.003 C 
ATOM     16  O   UNL A   1     -27.436  -1.108  36.016  0.00  0.00    -0.223 OA
ENDROOT
BRANCH   1  21
ATOM     17  N   UNL A   1     -25.792  -0.213  29.383  0.00  0.00    -0.287 N 
ATOM     18  C   UNL A   1     -24.666  -0.632  28.896  0.00  0.00    +0.061 C 
ATOM     19  C   UNL A   1     -23.494  -0.698  29.677  0.00  0.00    -0.008 C 
ATOM     20  C   UNL A   1     -23.889  -0.313  30.940  0.00  0.00    +0.048 C 
ATOM     21  C   UNL A   1     -25.500   0.017  30.786  0.00  0.00    +0.086 C 
BRANCH  17  23
ATOM     22  C   UNL A   1     -28.016  -0.814  28.878  0.00  0.00    +0.015 A 
ATOM     23  C   UNL A   1     -27.064  -0.119  28.608  0.00  0.00    +0.052 A 
ATOM     24  C   UNL A   1     -26.972   0.714  27.506  0.00  0.00    +0.015 A 
ATOM     25  C   UNL A   1     -28.105   0.774  26.642  0.00  0.00    +0.008 A 
ATOM     26  C   UNL A   1     -29.201   0.104  27.053  0.00  0.00    +0.080 A 
ATOM     27  C   UNL A   1     -29.210  -0.603  28.185  0.00  0.00    +0.008 A 
BRANCH  26  28
ATOM     28  C   UNL A   1     -30.370   0.226  26.160  0.00  0.00    +0.388 C 
ATOM     29  O   UNL A   1     -31.221  -0.463  26.310  0.00  0.00    -0.241 OA
ATOM     30  O   UNL A   1     -30.369   1.065  25.132  0.00  0.00    -0.241 OA
ENDBRANCH  26  28
ENDBRANCH  17  23
ENDBRANCH   1  21
TORSDOF 3
