REMARK  Name = No_900-gen_results/8p0m/2024-11-26-14-13-15/
REMARK  1 active torsions:
REMARK  status: ('A' for Active; 'I' for Inactive)
REMARK    1  A    between atoms: C_3  and  C_12
REMARK                            x       y       z     vdW  Elec       q    Type
REMARK                         _______ _______ _______ _____ _____    ______ ____
ROOT
ATOM      1  O   UNL A   1     -28.123  -1.335  28.487  0.00  0.00    -0.273 OA
ATOM      2  C   UNL A   1     -27.064  -0.824  28.869  0.00  0.00    +0.249 C 
ATOM      3  C   UNL A   1     -26.402  -0.062  28.622  0.00  0.00    +0.122 C 
ATOM      4  N   UNL A   1     -26.572  -1.584  30.117  0.00  0.00    -0.200 NA
ATOM      5  C   UNL A   1     -25.021   0.356  29.044  0.00  0.00    -0.012 A 
ATOM      6  C   UNL A   1     -24.166   1.350  28.560  0.00  0.00    -0.004 A 
ATOM      7  C   UNL A   1     -22.868   1.568  29.084  0.00  0.00    -0.000 A 
ATOM      8  C   UNL A   1     -22.402   0.542  29.930  0.00  0.00    -0.000 A 
ATOM      9  C   UNL A   1     -23.171  -0.452  30.456  0.00  0.00    -0.003 A 
ATOM     10  C   UNL A   1     -24.436  -0.600  29.960  0.00  0.00    -0.004 A 
ATOM     11  C   UNL A   1     -25.315  -1.571  30.553  0.00  0.00    +0.141 C 
ENDROOT
BRANCH   3  12
ATOM     12  C   UNL A   1     -26.991   0.833  27.528  0.00  0.00    -0.010 A 
ATOM     13  C   UNL A   1     -27.249   0.500  26.463  0.00  0.00    -0.004 A 
ATOM     14  C   UNL A   1     -27.777   1.342  25.442  0.00  0.00    -0.000 A 
ATOM     15  C   UNL A   1     -27.886   2.762  25.725  0.00  0.00    -0.000 A 
ATOM     16  C   UNL A   1     -27.401   3.250  26.941  0.00  0.00    -0.000 A 
ATOM     17  C   UNL A   1     -26.935   2.365  27.841  0.00  0.00    -0.004 A 
ENDBRANCH   3  12
TORSDOF 1
