MODEL 900
MODEL 1
REMARK VINA RESULT:    -7.551      0.000      0.000
REMARK INTER + INTRA:          -8.234
REMARK INTER:                  -7.993
REMARK INTRA:                  -0.241
REMARK UNBOUND:                -0.241
REMARK  Name = No_900-gen_results/8p0m/2024-11-26-14-13-15/
REMARK  1 active torsions:
REMARK  status: ('A' for Active; 'I' for Inactive)
REMARK    1  A    between atoms: C_3  and  C_12
REMARK                            x       y       z     vdW  Elec       q    Type
REMARK                         _______ _______ _______ _____ _____    ______ ____
ROOT
ATOM      1  O   UNL A   1     -23.141  -1.283  30.837  0.00  0.00    -0.273 OA
ATOM      2  C   UNL A   1     -23.571  -0.754  29.806  0.00  0.00    +0.249 C 
ATOM      3  C   UNL A   1     -24.151  -0.969  28.971  0.00  0.00    +0.122 C 
ATOM      4  N   UNL A   1     -23.063   0.701  29.750  0.00  0.00    -0.200 NA
ATOM      5  C   UNL A   1     -24.456  -0.302  27.658  0.00  0.00    -0.012 A 
ATOM      6  C   UNL A   1     -25.176  -0.739  26.543  0.00  0.00    -0.004 A 
ATOM      7  C   UNL A   1     -25.324   0.042  25.371  0.00  0.00    -0.000 A 
ATOM      8  C   UNL A   1     -24.469   1.161  25.305  0.00  0.00    -0.000 A 
ATOM      9  C   UNL A   1     -23.747   1.659  26.347  0.00  0.00    -0.003 A 
ATOM     10  C   UNL A   1     -23.668   0.899  27.481  0.00  0.00    -0.004 A 
ATOM     11  C   UNL A   1     -22.999   1.428  28.638  0.00  0.00    +0.141 C 
ENDROOT
BRANCH   3  12
ATOM     12  C   UNL A   1     -24.839  -2.329  29.126  0.00  0.00    -0.010 A 
ATOM     13  C   UNL A   1     -25.826  -2.516  29.676  0.00  0.00    -0.004 A 
ATOM     14  C   UNL A   1     -26.451  -3.787  29.836  0.00  0.00    -0.000 A 
ATOM     15  C   UNL A   1     -25.728  -4.959  29.377  0.00  0.00    -0.000 A 
ATOM     16  C   UNL A   1     -24.433  -4.804  28.876  0.00  0.00    -0.000 A 
ATOM     17  C   UNL A   1     -23.943  -3.557  28.755  0.00  0.00    -0.004 A 
ENDBRANCH   3  12
TORSDOF 1
ENDMDL
ENDMDL
