REMARK  Name = No_901-gen_results/8p0m/2024-11-26-14-13-15/
REMARK  5 active torsions:
REMARK  status: ('A' for Active; 'I' for Inactive)
REMARK    1  A    between atoms: C_2  and  C_3
REMARK    2  A    between atoms: C_9  and  C_15
REMARK    3  A    between atoms: C_12  and  C_22
REMARK    4  A    between atoms: C_14  and  C_26
REMARK    5  A    between atoms: C_30  and  C_33
REMARK                            x       y       z     vdW  Elec       q    Type
REMARK                         _______ _______ _______ _____ _____    ______ ____
ROOT
ATOM      1  O   UNL A   1     -28.123  -1.335  28.487  0.00  0.00    -0.270 OA
ATOM      2  C   UNL A   1     -27.481  -0.404  28.709  0.00  0.00    +0.251 C 
ATOM      3  N   UNL A   1     -27.666   0.447  29.899  0.00  0.00    -0.275 N 
ATOM      4  C   UNL A   1     -28.761   0.115  30.772  0.00  0.00    +0.098 C 
ATOM      5  C   UNL A   1     -26.856   1.527  30.201  0.00  0.00    +0.105 C 
ATOM      6  C   UNL A   1     -26.361   1.671  31.160  0.00  0.00    +0.123 C 
ATOM      7  C   UNL A   1     -27.245   1.634  32.440  0.00  0.00    +0.019 C 
ATOM      8  C   UNL A   1     -28.175   0.388  32.242  0.00  0.00    +0.038 C 
ATOM      9  C   UNL A   1     -27.323  -0.896  32.610  0.00  0.00    +0.006 C 
ENDROOT
BRANCH   2  10
ATOM     10  C   UNL A   1     -26.380  -0.087  27.939  0.00  0.00    +0.081 A 
ATOM     11  C   UNL A   1     -25.177  -0.439  28.395  0.00  0.00    +0.144 A 
ATOM     12  C   UNL A   1     -23.928  -0.247  27.668  0.00  0.00    +0.030 A 
ATOM     13  C   UNL A   1     -24.012   0.768  26.685  0.00  0.00    +0.002 A 
ATOM     14  C   UNL A   1     -25.244   1.234  26.244  0.00  0.00    +0.000 A 
ATOM     15  C   UNL A   1     -26.395   0.871  26.869  0.00  0.00    +0.007 A 
ATOM     16  F   UNL A   1     -25.018  -1.348  29.385  0.00  0.00    -0.204 F 
BRANCH  15  17
ATOM     17  C   UNL A   1     -27.637   1.359  26.294  0.00  0.00    +0.000 A 
ATOM     18  C   UNL A   1     -28.032   2.557  26.744  0.00  0.00    +0.001 A 
ATOM     19  C   UNL A   1     -29.288   3.087  26.372  0.00  0.00    +0.007 A 
ATOM     20  C   UNL A   1     -28.453   0.568  25.606  0.00  0.00    +0.001 A 
ATOM     21  C   UNL A   1     -29.703   0.995  25.184  0.00  0.00    +0.007 A 
ATOM     22  C   UNL A   1     -30.102   2.290  25.533  0.00  0.00    +0.035 A 
ATOM     23 BR   UNL A   1     -31.738   2.910  24.849  0.00  0.00    -0.049 Br
ENDBRANCH  15  17
ENDBRANCH   2  10
BRANCH   8  24
ATOM     24  C   UNL A   1     -29.393   0.567  33.222  0.00  0.00    -0.021 A 
ATOM     25  C   UNL A   1     -30.240   1.447  33.100  0.00  0.00    -0.004 A 
ATOM     26  C   UNL A   1     -31.325   1.581  33.995  0.00  0.00    -0.000 A 
ATOM     27  C   UNL A   1     -31.441   0.612  35.017  0.00  0.00    +0.007 A 
ATOM     28  C   UNL A   1     -30.513  -0.395  35.121  0.00  0.00    +0.080 A 
ATOM     29  C   UNL A   1     -29.422  -0.486  34.255  0.00  0.00    +0.002 A 
BRANCH  28  30
ATOM     30  C   UNL A   1     -30.633  -1.393  36.224  0.00  0.00    +0.388 C 
ATOM     31  O   UNL A   1     -30.492  -2.486  36.089  0.00  0.00    -0.241 OA
ATOM     32  O   UNL A   1     -30.905  -0.866  37.417  0.00  0.00    -0.241 OA
ENDBRANCH  28  30
ENDBRANCH   8  24
BRANCH   6  33
ATOM     33  C   UNL A   1     -25.011   2.310  31.562  0.00  0.00    +0.366 C 
ATOM     34  O   UNL A   1     -24.672   3.252  31.745  0.00  0.00    -0.246 OA
ATOM     35  O   UNL A   1     -24.019   1.262  31.270  0.00  0.00    -0.246 OA
ENDBRANCH   6  33
TORSDOF 5
