MODEL 901
MODEL 1
REMARK VINA RESULT:    -7.667      0.000      0.000
REMARK INTER + INTRA:         -12.362
REMARK INTER:                  -9.908
REMARK INTRA:                  -2.454
REMARK UNBOUND:                -2.454
REMARK  Name = No_901-gen_results/8p0m/2024-11-26-14-13-15/
REMARK  5 active torsions:
REMARK  status: ('A' for Active; 'I' for Inactive)
REMARK    1  A    between atoms: C_2  and  C_3
REMARK    2  A    between atoms: C_9  and  C_15
REMARK    3  A    between atoms: C_12  and  C_22
REMARK    4  A    between atoms: C_14  and  C_26
REMARK    5  A    between atoms: C_30  and  C_33
REMARK                            x       y       z     vdW  Elec       q    Type
REMARK                         _______ _______ _______ _____ _____    ______ ____
ROOT
ATOM      1  O   UNL A   1     -20.950 -19.943   4.341  0.00  0.00    -0.270 OA
ATOM      2  C   UNL A   1     -20.673 -20.438   5.344  0.00  0.00    +0.251 C 
ATOM      3  N   UNL A   1     -21.643 -20.678   6.429  0.00  0.00    -0.275 N 
ATOM      4  C   UNL A   1     -22.982 -20.191   6.223  0.00  0.00    +0.098 C 
ATOM      5  C   UNL A   1     -21.328 -21.330   7.607  0.00  0.00    +0.105 C 
ATOM      6  C   UNL A   1     -21.882 -22.179   8.005  0.00  0.00    +0.123 C 
ATOM      7  C   UNL A   1     -23.417 -22.011   8.195  0.00  0.00    +0.019 C 
ATOM      8  C   UNL A   1     -23.908 -21.333   6.870  0.00  0.00    +0.038 C 
ATOM      9  C   UNL A   1     -24.015 -22.471   5.773  0.00  0.00    +0.006 C 
ENDROOT
BRANCH   2  10
ATOM     10  C   UNL A   1     -19.422 -20.981   5.559  0.00  0.00    +0.081 A 
ATOM     11  C   UNL A   1     -18.476 -20.188   6.064  0.00  0.00    +0.144 A 
ATOM     12  C   UNL A   1     -17.132 -20.627   6.420  0.00  0.00    +0.030 A 
ATOM     13  C   UNL A   1     -16.740 -21.808   5.746  0.00  0.00    +0.002 A 
ATOM     14  C   UNL A   1     -17.680 -22.620   5.124  0.00  0.00    +0.000 A 
ATOM     15  C   UNL A   1     -18.970 -22.215   4.980  0.00  0.00    +0.007 A 
ATOM     16  F   UNL A   1     -18.765 -19.007   6.657  0.00  0.00    -0.204 F 
BRANCH  15  17
ATOM     17  C   UNL A   1     -19.892 -23.161   4.375  0.00  0.00    +0.000 A 
ATOM     18  C   UNL A   1     -20.416 -24.056   5.222  0.00  0.00    +0.001 A 
ATOM     19  C   UNL A   1     -21.219 -25.116   4.743  0.00  0.00    +0.007 A 
ATOM     20  C   UNL A   1     -19.984 -23.310   3.058  0.00  0.00    +0.001 A 
ATOM     21  C   UNL A   1     -20.754 -24.311   2.486  0.00  0.00    +0.007 A 
ATOM     22  C   UNL A   1     -21.418 -25.194   3.345  0.00  0.00    +0.035 A 
ATOM     23 BR   UNL A   1     -22.563 -26.466   2.569  0.00  0.00    -0.049 Br
ENDBRANCH  15  17
ENDBRANCH   2  10
BRANCH   8  24
ATOM     24  C   UNL A   1     -25.315 -20.698   7.175  0.00  0.00    -0.021 A 
ATOM     25  C   UNL A   1     -26.357 -21.068   6.643  0.00  0.00    -0.004 A 
ATOM     26  C   UNL A   1     -27.607 -20.480   6.940  0.00  0.00    -0.000 A 
ATOM     27  C   UNL A   1     -27.628 -19.477   7.936  0.00  0.00    +0.007 A 
ATOM     28  C   UNL A   1     -26.463 -19.099   8.557  0.00  0.00    +0.080 A 
ATOM     29  C   UNL A   1     -25.230 -19.659   8.219  0.00  0.00    +0.002 A 
BRANCH  28  30
ATOM     30  C   UNL A   1     -26.497 -18.018   9.585  0.00  0.00    +0.388 C 
ATOM     31  O   UNL A   1     -26.764 -18.183  10.650  0.00  0.00    -0.241 OA
ATOM     32  O   UNL A   1     -26.153 -16.814   9.130  0.00  0.00    -0.241 OA
ENDBRANCH  28  30
ENDBRANCH   8  24
BRANCH   6  33
ATOM     33  C   UNL A   1     -21.459 -23.424   8.819  0.00  0.00    +0.366 C 
ATOM     34  O   UNL A   1     -20.581 -23.827   9.138  0.00  0.00    -0.246 OA
ATOM     35  O   UNL A   1     -22.648 -24.291   8.788  0.00  0.00    -0.246 OA
ENDBRANCH   6  33
TORSDOF 5
ENDMDL
ENDMDL
