REMARK  Name = No_902-gen_results/8p0m/2024-11-26-14-13-15/
REMARK  5 active torsions:
REMARK  status: ('A' for Active; 'I' for Inactive)
REMARK    1  A    between atoms: C_2  and  C_7
REMARK    2  A    between atoms: C_4  and  C_12
REMARK    3  A    between atoms: C_5  and  C_22
REMARK    4  A    between atoms: C_12  and  C_13
REMARK    5  A    between atoms: C_17  and  C_19
REMARK                            x       y       z     vdW  Elec       q    Type
REMARK                         _______ _______ _______ _____ _____    ______ ____
ROOT
ATOM      1  C   UNL A   1     -28.016  -0.814  28.878  0.00  0.00    +0.011 A 
ATOM      2  C   UNL A   1     -27.064  -0.119  28.608  0.00  0.00    +0.071 A 
ATOM      3  C   UNL A   1     -26.929   1.171  29.008  0.00  0.00    +0.001 A 
ATOM      4  C   UNL A   1     -27.956   1.741  29.784  0.00  0.00    -0.007 A 
ATOM      5  C   UNL A   1     -29.057  -0.327  29.747  0.00  0.00    +0.090 A 
ATOM      6  C   UNL A   1     -28.983   0.972  30.152  0.00  0.00    +0.060 A 
ATOM      7 CL   UNL A   1     -30.229   1.456  31.244  0.00  0.00    -0.082 Cl
ENDROOT
BRANCH   2   8
ATOM      8  C   UNL A   1     -25.939  -0.804  27.902  0.00  0.00    +0.419 C 
ATOM      9  F   UNL A   1     -25.877  -1.824  28.051  0.00  0.00    -0.166 F 
ATOM     10  F   UNL A   1     -24.642  -0.140  28.188  0.00  0.00    -0.166 F 
ATOM     11  F   UNL A   1     -25.998  -0.368  26.494  0.00  0.00    -0.166 F 
ENDBRANCH   2   8
BRANCH   5  12
ATOM     12  C   UNL A   1     -30.187  -1.225  30.112  0.00  0.00    +0.389 C 
ATOM     13  O   UNL A   1     -30.223  -1.741  31.154  0.00  0.00    -0.240 OA
ATOM     14  O   UNL A   1     -31.084  -1.284  29.228  0.00  0.00    -0.240 OA
ENDBRANCH   5  12
BRANCH   4  15
ATOM     15  C   UNL A   1     -27.779   3.178  30.171  0.00  0.00    +0.053 C 
BRANCH  15  16
ATOM     16  C   UNL A   1     -27.099   3.406  31.276  0.00  0.00    -0.018 A 
ATOM     17  C   UNL A   1     -26.184   3.910  31.578  0.00  0.00    -0.004 A 
ATOM     18  C   UNL A   1     -25.338   4.110  32.475  0.00  0.00    -0.000 A 
ATOM     19  C   UNL A   1     -25.634   3.436  33.705  0.00  0.00    +0.007 A 
ATOM     20  C   UNL A   1     -26.781   2.625  33.648  0.00  0.00    +0.080 A 
ATOM     21  C   UNL A   1     -27.519   2.528  32.476  0.00  0.00    +0.003 A 
BRANCH  20  22
ATOM     22  C   UNL A   1     -27.188   1.862  34.865  0.00  0.00    +0.388 C 
ATOM     23  O   UNL A   1     -28.095   2.211  35.496  0.00  0.00    -0.241 OA
ATOM     24  O   UNL A   1     -26.492   0.787  35.059  0.00  0.00    -0.241 OA
ENDBRANCH  20  22
ENDBRANCH  15  16
ENDBRANCH   4  15
TORSDOF 5
