MODEL 902
MODEL 1
REMARK VINA RESULT:    -7.335      0.000      0.000
REMARK INTER + INTRA:         -10.650
REMARK INTER:                  -9.479
REMARK INTRA:                  -1.171
REMARK UNBOUND:                -1.171
REMARK  Name = No_902-gen_results/8p0m/2024-11-26-14-13-15/
REMARK  5 active torsions:
REMARK  status: ('A' for Active; 'I' for Inactive)
REMARK    1  A    between atoms: C_2  and  C_7
REMARK    2  A    between atoms: C_4  and  C_12
REMARK    3  A    between atoms: C_5  and  C_22
REMARK    4  A    between atoms: C_12  and  C_13
REMARK    5  A    between atoms: C_17  and  C_19
REMARK                            x       y       z     vdW  Elec       q    Type
REMARK                         _______ _______ _______ _____ _____    ______ ____
ROOT
ATOM      1  C   UNL A   1     -25.515   1.451  26.722  0.00  0.00    +0.011 A 
ATOM      2  C   UNL A   1     -25.170   0.364  26.318  0.00  0.00    +0.071 A 
ATOM      3  C   UNL A   1     -24.527  -0.558  27.078  0.00  0.00    +0.001 A 
ATOM      4  C   UNL A   1     -24.239  -0.237  28.418  0.00  0.00    -0.007 A 
ATOM      5  C   UNL A   1     -25.338   1.809  28.106  0.00  0.00    +0.090 A 
ATOM      6  C   UNL A   1     -24.671   0.929  28.904  0.00  0.00    +0.060 A 
ATOM      7 CL   UNL A   1     -24.563   1.401  30.561  0.00  0.00    -0.082 Cl
ENDROOT
BRANCH   2   8
ATOM      8  C   UNL A   1     -25.617   0.014  24.935  0.00  0.00    +0.419 C 
ATOM      9  F   UNL A   1     -26.480   0.481  24.616  0.00  0.00    -0.166 F 
ATOM     10  F   UNL A   1     -25.706  -1.458  24.757  0.00  0.00    -0.166 F 
ATOM     11  F   UNL A   1     -24.441   0.178  24.059  0.00  0.00    -0.166 F 
ENDBRANCH   2   8
BRANCH   5  12
ATOM     12  C   UNL A   1     -25.827   3.129  28.590  0.00  0.00    +0.389 C 
ATOM     13  O   UNL A   1     -26.884   3.235  29.064  0.00  0.00    -0.240 OA
ATOM     14  O   UNL A   1     -24.965   4.045  28.497  0.00  0.00    -0.240 OA
ENDBRANCH   5  12
BRANCH   4  15
ATOM     15  C   UNL A   1     -23.496  -1.273  29.206  0.00  0.00    +0.053 C 
BRANCH  15  16
ATOM     16  C   UNL A   1     -24.064  -2.458  29.295  0.00  0.00    -0.018 A 
ATOM     17  C   UNL A   1     -23.874  -3.477  28.967  0.00  0.00    -0.004 A 
ATOM     18  C   UNL A   1     -24.314  -4.637  28.823  0.00  0.00    -0.000 A 
ATOM     19  C   UNL A   1     -25.657  -4.805  29.297  0.00  0.00    +0.007 A 
ATOM     20  C   UNL A   1     -26.246  -3.620  29.771  0.00  0.00    +0.080 A 
ATOM     21  C   UNL A   1     -25.538  -2.426  29.756  0.00  0.00    +0.003 A 
BRANCH  20  22
ATOM     22  C   UNL A   1     -27.648  -3.664  30.283  0.00  0.00    +0.388 C 
ATOM     23  O   UNL A   1     -28.302  -2.709  30.273  0.00  0.00    -0.241 OA
ATOM     24  O   UNL A   1     -28.033  -4.850  30.636  0.00  0.00    -0.241 OA
ENDBRANCH  20  22
ENDBRANCH  15  16
ENDBRANCH   4  15
TORSDOF 5
ENDMDL
ENDMDL
