MODEL 903
MODEL 1
REMARK VINA RESULT:    -4.490      0.000      0.000
REMARK INTER + INTRA:          -4.490
REMARK INTER:                  -4.490
REMARK INTRA:                   0.000
REMARK UNBOUND:                 0.000
REMARK  Name = No_903-gen_results/8p0m/2024-11-26-14-13-15/
REMARK  0 active torsions:
REMARK  status: ('A' for Active; 'I' for Inactive)
REMARK                            x       y       z     vdW  Elec       q    Type
REMARK                         _______ _______ _______ _____ _____    ______ ____
ROOT
ATOM      1  C   UNL A   1      -9.233  -9.227  20.050  0.00  0.00    +0.011 A 
ATOM      2  C   UNL A   1      -8.243  -9.912  19.935  0.00  0.00    +0.058 A 
ATOM      3  C   UNL A   1      -8.056 -10.722  18.821  0.00  0.00    +0.011 A 
ATOM      4  C   UNL A   1      -9.058 -10.806  17.789  0.00  0.00    +0.001 A 
ATOM      5  C   UNL A   1     -10.180  -9.999  18.013  0.00  0.00    +0.000 A 
ATOM      6  C   UNL A   1     -10.317  -9.263  19.093  0.00  0.00    +0.001 A 
ATOM      7 CL   UNL A   1      -6.977  -9.973  21.086  0.00  0.00    -0.082 Cl
ENDROOT
TORSDOF 0
ENDMDL
ENDMDL
