REMARK  Name = No_904-gen_results/8p0m/2024-11-26-14-13-15/
REMARK  1 active torsions:
REMARK  status: ('A' for Active; 'I' for Inactive)
REMARK    1  A    between atoms: C_1  and  C_8
REMARK                            x       y       z     vdW  Elec       q    Type
REMARK                         _______ _______ _______ _____ _____    ______ ____
ROOT
ATOM      1  C   UNL A   1     -28.016  -0.814  28.878  0.00  0.00    +0.068 C 
ATOM      2  C   UNL A   1     -27.064  -0.119  28.608  0.00  0.00    -0.019 C 
ATOM      3  C   UNL A   1     -26.972   0.714  27.506  0.00  0.00    +0.025 C 
ATOM      4  C   UNL A   1     -25.820   1.491  27.116  0.00  0.00    +0.025 C 
ATOM      5  C   UNL A   1     -24.656   1.424  27.918  0.00  0.00    +0.158 C 
ATOM      6  C   UNL A   1     -24.685   0.590  29.066  0.00  0.00    +0.179 C 
ATOM      7  C   UNL A   1     -25.810  -0.127  29.334  0.00  0.00    +0.156 C 
ATOM      8  C   UNL A   1     -23.495   2.248  27.625  0.00  0.00    +0.324 C 
ATOM      9  O   UNL A   1     -22.579   2.258  28.495  0.00  0.00    -0.250 OA
ATOM     10  O   UNL A   1     -23.363   2.804  26.485  0.00  0.00    -0.448 OA
ATOM     11 CL   UNL A   1     -25.718  -1.124  30.719  0.00  0.00    -0.102 Cl
ATOM     12  C   UNL A   1     -25.930   2.340  25.964  0.00  0.00    +0.049 C 
ATOM     13  C   UNL A   1     -24.372   2.658  25.531  0.00  0.00    +0.208 C 
ATOM     14  O   UNL A   1     -23.669   0.532  29.879  0.00  0.00    -0.294 OA
ENDROOT
BRANCH   1  15
ATOM     15  C   UNL A   1     -29.219  -0.042  29.313  0.00  0.00    +0.418 C 
ATOM     16  F   UNL A   1     -30.084  -0.896  29.667  0.00  0.00    -0.166 F 
ATOM     17  F   UNL A   1     -28.995   0.719  30.330  0.00  0.00    -0.166 F 
ATOM     18  F   UNL A   1     -29.660   0.604  28.239  0.00  0.00    -0.166 F 
ENDBRANCH   1  15
TORSDOF 1
