MODEL 904
MODEL 1
REMARK VINA RESULT:    -6.655      0.000      0.000
REMARK INTER + INTRA:          -7.179
REMARK INTER:                  -7.044
REMARK INTRA:                  -0.135
REMARK UNBOUND:                -0.135
REMARK  Name = No_904-gen_results/8p0m/2024-11-26-14-13-15/
REMARK  1 active torsions:
REMARK  status: ('A' for Active; 'I' for Inactive)
REMARK    1  A    between atoms: C_1  and  C_8
REMARK                            x       y       z     vdW  Elec       q    Type
REMARK                         _______ _______ _______ _____ _____    ______ ____
ROOT
ATOM      1  C   UNL A   1     -22.888   2.324  27.017  0.00  0.00    +0.068 C 
ATOM      2  C   UNL A   1     -23.351   1.329  27.525  0.00  0.00    -0.019 C 
ATOM      3  C   UNL A   1     -24.701   1.064  27.672  0.00  0.00    +0.025 C 
ATOM      4  C   UNL A   1     -25.281  -0.075  28.344  0.00  0.00    +0.025 C 
ATOM      5  C   UNL A   1     -24.413  -1.036  28.915  0.00  0.00    +0.158 C 
ATOM      6  C   UNL A   1     -23.015  -0.825  28.797  0.00  0.00    +0.179 C 
ATOM      7  C   UNL A   1     -22.566   0.295  28.169  0.00  0.00    +0.156 C 
ATOM      8  C   UNL A   1     -24.935  -2.245  29.530  0.00  0.00    +0.324 C 
ATOM      9  O   UNL A   1     -24.087  -3.126  29.846  0.00  0.00    -0.250 OA
ATOM     10  O   UNL A   1     -26.165  -2.330  29.857  0.00  0.00    -0.448 OA
ATOM     11 CL   UNL A   1     -20.866   0.463  28.119  0.00  0.00    -0.102 Cl
ATOM     12  C   UNL A   1     -26.710  -0.206  28.351  0.00  0.00    +0.049 C 
ATOM     13  C   UNL A   1     -27.024  -1.267  29.572  0.00  0.00    +0.208 C 
ATOM     14  O   UNL A   1     -22.164  -1.703  29.247  0.00  0.00    -0.294 OA
ENDROOT
BRANCH   1  15
ATOM     15  C   UNL A   1     -23.102   2.401  25.541  0.00  0.00    +0.418 C 
ATOM     16  F   UNL A   1     -21.952   2.402  25.011  0.00  0.00    -0.166 F 
ATOM     17  F   UNL A   1     -23.740   1.385  25.066  0.00  0.00    -0.166 F 
ATOM     18  F   UNL A   1     -23.690   3.569  25.306  0.00  0.00    -0.166 F 
ENDBRANCH   1  15
TORSDOF 1
ENDMDL
ENDMDL
