REMARK  Name = No_905-gen_results/8p0m/2024-11-26-14-13-15/
REMARK  11 active torsions:
REMARK  status: ('A' for Active; 'I' for Inactive)
REMARK    1  A    between atoms: C_2  and  C_11
REMARK    2  A    between atoms: C_3  and  C_4
REMARK    3  A    between atoms: C_6  and  C_14
REMARK    4  A    between atoms: N_15  and  C_17
REMARK    5  A    between atoms: C_17  and  C_18
REMARK    6  A    between atoms: C_17  and  C_19
REMARK    7  A    between atoms: C_22  and  O_31
REMARK    8  A    between atoms: C_25  and  C_26
REMARK    9  A    between atoms: C_27  and  C_28
REMARK   10  A    between atoms: O_31  and  C_32
REMARK   11  A    between atoms: C_32  and  C_34
REMARK                            x       y       z     vdW  Elec       q    Type
REMARK                         _______ _______ _______ _____ _____    ______ ____
ROOT
ATOM      1  C   UNL A   1     -27.055   1.041  33.659  0.00  0.00    +0.150 C 
ENDROOT
BRANCH   1   2
ATOM      2  C   UNL A   1     -27.658   1.234  35.055  0.00  0.00    +0.004 A 
ATOM      3  C   UNL A   1     -28.842   0.525  35.284  0.00  0.00    +0.001 A 
ATOM      4  C   UNL A   1     -29.795   0.840  35.879  0.00  0.00    +0.037 A 
ATOM      5  C   UNL A   1     -29.611   1.933  36.902  0.00  0.00    +0.145 A 
ATOM      6  C   UNL A   1     -28.435   2.655  36.841  0.00  0.00    +0.037 A 
ATOM      7  C   UNL A   1     -27.480   2.402  35.843  0.00  0.00    +0.001 A 
BRANCH   5   8
ATOM      8  O   UNL A   1     -30.582   2.196  37.835  0.00  0.00    -0.458 OA
BRANCH   8   9
ATOM      9  C   UNL A   1     -31.478   2.698  37.890  0.00  0.00    +0.123 C 
ATOM     10  C   UNL A   1     -32.218   3.030  38.735  0.00  0.00    +0.036 C 
BRANCH   9  11
ATOM     11  C   UNL A   1     -32.078   3.227  36.540  0.00  0.00    +0.065 C 
ATOM     12  C   UNL A   1     -33.287   3.878  36.423  0.00  0.00    +0.008 C 
ENDBRANCH   9  11
ENDBRANCH   8   9
ENDBRANCH   5   8
ENDBRANCH   1   2
BRANCH   1  14
ATOM     13  C   UNL A   1     -27.316   2.192  31.835  0.00  0.00    +0.218 C 
ATOM     14  N   UNL A   1     -27.109   2.125  32.878  0.00  0.00    -0.237 NA
ATOM     15  F   UNL A   1     -26.988   3.238  31.297  0.00  0.00    -0.184 F 
BRANCH  13  20
ATOM     16  C   UNL A   1     -28.016  -0.814  28.878  0.00  0.00    +0.010 A 
ATOM     17  C   UNL A   1     -28.469  -0.785  29.829  0.00  0.00    +0.080 A 
ATOM     18  C   UNL A   1     -27.087   0.290  28.638  0.00  0.00    +0.072 A 
ATOM     19  C   UNL A   1     -28.391   0.104  30.980  0.00  0.00    +0.010 A 
ATOM     20  C   UNL A   1     -27.533   1.167  30.787  0.00  0.00    +0.046 A 
ATOM     21  C   UNL A   1     -26.828   1.256  29.645  0.00  0.00    +0.008 A 
BRANCH  18  22
ATOM     22  C   UNL A   1     -26.252   0.411  27.422  0.00  0.00    +0.419 C 
ATOM     23  F   UNL A   1     -26.289  -0.321  26.701  0.00  0.00    -0.166 F 
ATOM     24  F   UNL A   1     -26.450   1.704  26.878  0.00  0.00    -0.166 F 
ATOM     25  F   UNL A   1     -24.821   0.539  27.786  0.00  0.00    -0.166 F 
ENDBRANCH  18  22
BRANCH  17  26
ATOM     26  C   UNL A   1     -29.462  -2.018  30.213  0.00  0.00    +0.388 C 
ATOM     27  O   UNL A   1     -30.489  -1.875  29.808  0.00  0.00    -0.241 OA
ATOM     28  O   UNL A   1     -28.904  -3.189  30.553  0.00  0.00    -0.241 OA
ENDBRANCH  17  26
ENDBRANCH  13  20
ENDBRANCH   1  14
BRANCH   1  29
ATOM     29  C   UNL A   1     -25.815   0.425  33.805  0.00  0.00    +0.002 C 
ATOM     30  C   UNL A   1     -25.249  -0.449  32.834  0.00  0.00    -0.002 C 
BRANCH  30  31
ATOM     31  C   UNL A   1     -23.967  -0.918  32.896  0.00  0.00    -0.000 C 
ATOM     32  C   UNL A   1     -23.341  -1.212  31.719  0.00  0.00    -0.000 C 
BRANCH  32  33
ATOM     33  C   UNL A   1     -24.130  -1.304  30.459  0.00  0.00    -0.005 C 
ATOM     34  C   UNL A   1     -24.413  -2.283  29.986  0.00  0.00    -0.026 C 
ATOM     35  C   UNL A   1     -25.003  -2.417  28.565  0.00  0.00    +0.031 C 
ENDBRANCH  32  33
ENDBRANCH  30  31
ENDBRANCH   1  29
TORSDOF 11
