REMARK  Name = No_906-gen_results/8p0m/2024-11-26-14-13-15/
REMARK  1 active torsions:
REMARK  status: ('A' for Active; 'I' for Inactive)
REMARK    1  A    between atoms: C_2  and  C_4
REMARK                            x       y       z     vdW  Elec       q    Type
REMARK                         _______ _______ _______ _____ _____    ______ ____
ROOT
ATOM      1 CL   UNL A   1     -28.149  -0.820  28.908  0.00  0.00    -0.071 Cl
ATOM      2  C   UNL A   1     -27.834   0.496  29.060  0.00  0.00    +0.306 C 
ATOM      3  F   UNL A   1     -27.790   1.142  28.045  0.00  0.00    -0.213 F 
ENDROOT
BRANCH   2   4
ATOM      4  C   UNL A   1     -27.449   1.131  30.275  0.00  0.00    +0.366 C 
ATOM      5  F   UNL A   1     -27.675   0.432  31.227  0.00  0.00    -0.194 F 
ATOM      6  F   UNL A   1     -28.109   2.287  30.445  0.00  0.00    -0.194 F 
ENDBRANCH   2   4
TORSDOF 1
