MODEL 906
MODEL 1
REMARK VINA RESULT:    -3.949      0.000      0.000
REMARK INTER + INTRA:          -4.180
REMARK INTER:                  -4.180
REMARK INTRA:                   0.000
REMARK UNBOUND:                 0.000
REMARK  Name = No_906-gen_results/8p0m/2024-11-26-14-13-15/
REMARK  1 active torsions:
REMARK  status: ('A' for Active; 'I' for Inactive)
REMARK    1  A    between atoms: C_2  and  C_4
REMARK                            x       y       z     vdW  Elec       q    Type
REMARK                         _______ _______ _______ _____ _____    ______ ____
ROOT
ATOM      1 CL   UNL A   1      -9.951  -9.678  18.621  0.00  0.00    -0.071 Cl
ATOM      2  C   UNL A   1      -9.295  -9.335  19.764  0.00  0.00    +0.306 C 
ATOM      3  F   UNL A   1      -9.993  -8.991  20.682  0.00  0.00    -0.213 F 
ENDROOT
BRANCH   2   4
ATOM      4  C   UNL A   1      -7.883  -9.240  19.923  0.00  0.00    +0.366 C 
ATOM      5  F   UNL A   1      -7.520  -9.763  20.944  0.00  0.00    -0.194 F 
ATOM      6  F   UNL A   1      -7.486  -7.959  19.951  0.00  0.00    -0.194 F 
ENDBRANCH   2   4
TORSDOF 1
ENDMDL
ENDMDL
