MODEL 907
MODEL 1
REMARK VINA RESULT:    -4.254      0.000      0.000
REMARK INTER + INTRA:          -4.254
REMARK INTER:                  -4.254
REMARK INTRA:                   0.000
REMARK UNBOUND:                 0.000
REMARK  Name = No_907-gen_results/8p0m/2024-11-26-14-13-15/
REMARK  0 active torsions:
REMARK  status: ('A' for Active; 'I' for Inactive)
REMARK                            x       y       z     vdW  Elec       q    Type
REMARK                         _______ _______ _______ _____ _____    ______ ____
ROOT
ATOM      1  C   UNL A   1     -26.048  -4.883  29.665  0.00  0.00    +0.000 A 
ATOM      2  C   UNL A   1     -26.216  -3.687  29.740  0.00  0.00    +0.000 A 
ATOM      3  C   UNL A   1     -25.267  -2.757  29.363  0.00  0.00    +0.000 A 
ATOM      4  C   UNL A   1     -24.041  -3.236  28.821  0.00  0.00    +0.000 A 
ATOM      5  C   UNL A   1     -23.969  -4.570  28.601  0.00  0.00    +0.000 A 
ATOM      6  C   UNL A   1     -24.945  -5.383  28.957  0.00  0.00    +0.000 A 
ENDROOT
TORSDOF 0
ENDMDL
ENDMDL
