MODEL 908
MODEL 1
REMARK VINA RESULT:    -5.240      0.000      0.000
REMARK INTER + INTRA:          -5.701
REMARK INTER:                  -5.546
REMARK INTRA:                  -0.155
REMARK UNBOUND:                -0.155
REMARK  Name = No_908-gen_results/8p0m/2024-11-26-14-13-15/
REMARK  1 active torsions:
REMARK  status: ('A' for Active; 'I' for Inactive)
REMARK    1  A    between atoms: C_4  and  C_6
REMARK                            x       y       z     vdW  Elec       q    Type
REMARK                         _______ _______ _______ _____ _____    ______ ____
ROOT
ATOM      1  C   UNL A   1     -26.613  -3.745  29.866  0.00  0.00    -0.000 A 
ATOM      2  C   UNL A   1     -26.208  -4.684  29.611  0.00  0.00    -0.000 A 
ATOM      3  C   UNL A   1     -25.702  -2.592  29.788  0.00  0.00    +0.004 A 
ATOM      4  C   UNL A   1     -24.388  -2.741  29.256  0.00  0.00    +0.071 A 
ATOM      5  C   UNL A   1     -24.921  -5.096  28.987  0.00  0.00    -0.000 A 
ATOM      6  C   UNL A   1     -24.038  -4.034  28.871  0.00  0.00    +0.004 A 
ENDROOT
BRANCH   4   7
ATOM      7  C   UNL A   1     -23.472  -1.680  29.156  0.00  0.00    +0.419 C 
ATOM      8  F   UNL A   1     -22.429  -2.006  28.858  0.00  0.00    -0.166 F 
ATOM      9  F   UNL A   1     -23.366  -1.043  30.389  0.00  0.00    -0.166 F 
ATOM     10  F   UNL A   1     -23.907  -0.648  28.362  0.00  0.00    -0.166 F 
ENDBRANCH   4   7
TORSDOF 1
ENDMDL
ENDMDL
