MODEL 909
MODEL 1
REMARK VINA RESULT:    -5.260      0.000      0.000
REMARK INTER + INTRA:          -5.605
REMARK INTER:                  -5.568
REMARK INTRA:                  -0.037
REMARK UNBOUND:                -0.037
REMARK  Name = No_909-gen_results/8p0m/2024-11-26-14-13-15/
REMARK  1 active torsions:
REMARK  status: ('A' for Active; 'I' for Inactive)
REMARK    1  A    between atoms: C_2  and  P_7
REMARK                            x       y       z     vdW  Elec       q    Type
REMARK                         _______ _______ _______ _____ _____    ______ ____
ROOT
ATOM      1  C   UNL A   1     -29.180 -10.462  32.606  0.00  0.00    +0.003 A 
ATOM      2  C   UNL A   1     -28.484 -11.234  32.434  0.00  0.00    +0.029 A 
ATOM      3  C   UNL A   1     -29.899  -9.951  31.378  0.00  0.00    +0.000 A 
ATOM      4  C   UNL A   1     -29.714 -10.609  30.144  0.00  0.00    +0.000 A 
ATOM      5  C   UNL A   1     -28.134 -12.100  31.285  0.00  0.00    +0.003 A 
ATOM      6  C   UNL A   1     -28.782 -11.663  30.138  0.00  0.00    +0.000 A 
ENDROOT
BRANCH   2   7
ATOM      7  P   UNL A   1     -27.564 -11.902  33.957  0.00  0.00    +0.140 P 
ATOM      8  O   UNL A   1     -28.499 -12.579  34.807  0.00  0.00    -0.354 OA
ATOM      9  O   UNL A   1     -26.945 -10.762  34.649  0.00  0.00    -0.354 OA
ATOM     10  O   UNL A   1     -26.547 -12.801  33.381  0.00  0.00    -0.456 OA
ENDBRANCH   2   7
TORSDOF 1
ENDMDL
ENDMDL
