MODEL 90
MODEL 1
REMARK VINA RESULT:    -4.321      0.000      0.000
REMARK INTER + INTRA:          -4.321
REMARK INTER:                  -4.321
REMARK INTRA:                   0.000
REMARK UNBOUND:                 0.000
REMARK  Name = No_90-gen_results/8p0m/2024-11-26-14-13-15/
REMARK  0 active torsions:
REMARK  status: ('A' for Active; 'I' for Inactive)
REMARK                            x       y       z     vdW  Elec       q    Type
REMARK                         _______ _______ _______ _____ _____    ______ ____
ROOT
ATOM      1  C   UNL A   1     -26.266  -4.632  29.672  0.00  0.00    +0.000 A 
ATOM      2  C   UNL A   1     -26.109  -3.593  29.749  0.00  0.00    +0.000 A 
ATOM      3  C   UNL A   1     -25.120  -5.357  29.110  0.00  0.00    +0.000 A 
ATOM      4  C   UNL A   1     -24.067  -4.733  28.581  0.00  0.00    +0.000 A 
ATOM      5  C   UNL A   1     -25.089  -2.709  29.240  0.00  0.00    +0.000 A 
ATOM      6  C   UNL A   1     -24.045  -3.400  28.700  0.00  0.00    +0.000 A 
ENDROOT
TORSDOF 0
ENDMDL
ENDMDL
