REMARK  Name = No_91-gen_results/8p0m/2024-11-26-14-13-15/
REMARK  5 active torsions:
REMARK  status: ('A' for Active; 'I' for Inactive)
REMARK    1  A    between atoms: C_3  and  C_7
REMARK    2  A    between atoms: C_4  and  C_18
REMARK    3  A    between atoms: C_7  and  C_8
REMARK    4  A    between atoms: C_18  and  C_19
REMARK    5  A    between atoms: C_19  and  C_21
REMARK                            x       y       z     vdW  Elec       q    Type
REMARK                         _______ _______ _______ _____ _____    ______ ____
ROOT
ATOM      1  C   UNL A   1     -28.016  -0.814  28.878  0.00  0.00    -0.004 A 
ATOM      2  C   UNL A   1     -28.469  -0.785  29.829  0.00  0.00    -0.000 A 
ATOM      3  C   UNL A   1     -28.196   0.348  28.055  0.00  0.00    -0.022 A 
ATOM      4  C   UNL A   1     -29.019   1.350  28.378  0.00  0.00    -0.026 A 
ATOM      5  C   UNL A   1     -29.625   1.268  29.601  0.00  0.00    -0.005 A 
ATOM      6  C   UNL A   1     -29.382   0.182  30.400  0.00  0.00    -0.000 A 
ENDROOT
BRANCH   4   7
ATOM      7  C   UNL A   1     -29.292   2.459  27.518  0.00  0.00    +0.026 C 
ATOM      8  C   UNL A   1     -30.169   2.272  26.435  0.00  0.00    +0.005 C 
BRANCH   7   9
ATOM      9  C   UNL A   1     -28.614   3.619  27.704  0.00  0.00    +0.031 C 
BRANCH   9  10
ATOM     10  C   UNL A   1     -27.710   3.880  28.652  0.00  0.00    -0.022 A 
ATOM     11  C   UNL A   1     -27.511   3.204  29.810  0.00  0.00    -0.004 A 
ATOM     12  C   UNL A   1     -26.411   3.599  30.702  0.00  0.00    -0.000 A 
ATOM     13  C   UNL A   1     -25.619   4.558  30.258  0.00  0.00    -0.000 A 
ATOM     14  C   UNL A   1     -25.675   5.249  29.072  0.00  0.00    -0.000 A 
ATOM     15  C   UNL A   1     -26.736   4.896  28.269  0.00  0.00    -0.004 A 
ENDBRANCH   9  10
ENDBRANCH   7   9
ENDBRANCH   4   7
BRANCH   3  16
ATOM     16  C   UNL A   1     -27.459   0.379  26.705  0.00  0.00    +0.052 C 
BRANCH  16  17
ATOM     17  C   UNL A   1     -26.135   0.356  26.818  0.00  0.00    -0.018 A 
ATOM     18  C   UNL A   1     -25.387   0.026  27.921  0.00  0.00    -0.004 A 
ATOM     19  C   UNL A   1     -23.977   0.024  27.913  0.00  0.00    -0.000 A 
ATOM     20  C   UNL A   1     -23.213  -0.371  29.087  0.00  0.00    -0.000 A 
ATOM     21  C   UNL A   1     -21.841  -0.088  29.156  0.00  0.00    -0.000 A 
ATOM     22  C   UNL A   1     -21.255   0.765  28.200  0.00  0.00    -0.000 A 
ATOM     23  C   UNL A   1     -22.089   1.407  27.247  0.00  0.00    -0.000 A 
ATOM     24  C   UNL A   1     -23.418   1.076  27.178  0.00  0.00    -0.000 A 
ATOM     25  C   UNL A   1     -24.209   1.728  26.177  0.00  0.00    -0.000 A 
ATOM     26  C   UNL A   1     -25.537   1.820  26.276  0.00  0.00    -0.004 A 
ENDBRANCH  16  17
ENDBRANCH   3  16
TORSDOF 5
