MODEL 910
MODEL 1
REMARK VINA RESULT:    -6.447      0.000      0.000
REMARK INTER + INTRA:          -7.166
REMARK INTER:                  -6.824
REMARK INTRA:                  -0.342
REMARK UNBOUND:                -0.342
REMARK  Name = No_910-gen_results/8p0m/2024-11-26-14-13-15/
REMARK  1 active torsions:
REMARK  status: ('A' for Active; 'I' for Inactive)
REMARK    1  A    between atoms: C_3  and  C_4
REMARK                            x       y       z     vdW  Elec       q    Type
REMARK                         _______ _______ _______ _____ _____    ______ ____
ROOT
ATOM      1  C   UNL A   1     -26.435  -3.618  29.799  0.00  0.00    +0.000 A 
ATOM      2  C   UNL A   1     -25.835  -2.579  29.651  0.00  0.00    +0.000 A 
ATOM      3  C   UNL A   1     -24.599  -2.547  29.015  0.00  0.00    +0.000 A 
ATOM      4  C   UNL A   1     -25.830  -4.918  29.535  0.00  0.00    +0.000 A 
ATOM      5  C   UNL A   1     -24.658  -4.989  28.808  0.00  0.00    +0.000 A 
ATOM      6  C   UNL A   1     -23.971  -3.787  28.583  0.00  0.00    +0.000 A 
ENDROOT
BRANCH   3   7
ATOM      7  C   UNL A   1     -23.759  -1.337  28.782  0.00  0.00    +0.000 A 
ATOM      8  C   UNL A   1     -24.263  -0.403  27.830  0.00  0.00    +0.000 A 
ATOM      9  C   UNL A   1     -23.530   0.738  27.509  0.00  0.00    +0.000 A 
ATOM     10  C   UNL A   1     -22.227   0.836  28.041  0.00  0.00    +0.000 A 
ATOM     11  C   UNL A   1     -21.727  -0.062  28.939  0.00  0.00    +0.000 A 
ATOM     12  C   UNL A   1     -22.498  -1.230  29.301  0.00  0.00    +0.000 A 
ENDBRANCH   3   7
TORSDOF 1
ENDMDL
ENDMDL
