REMARK  Name = No_911-gen_results/8p0m/2024-11-26-14-13-15/
REMARK  1 active torsions:
REMARK  status: ('A' for Active; 'I' for Inactive)
REMARK    1  A    between atoms: C_5  and  C_6
REMARK                            x       y       z     vdW  Elec       q    Type
REMARK                         _______ _______ _______ _____ _____    ______ ____
ROOT
ATOM      1  C   UNL A   1     -28.016  -0.814  28.878  0.00  0.00    +0.069 A 
ATOM      2  C   UNL A   1     -27.064  -0.119  28.608  0.00  0.00    +0.082 A 
ATOM      3  C   UNL A   1     -27.001   0.691  27.491  0.00  0.00    +0.108 A 
ATOM      4  C   UNL A   1     -28.137   0.736  26.635  0.00  0.00    +0.211 A 
ATOM      5  C   UNL A   1     -29.236   0.076  27.069  0.00  0.00    +0.096 A 
ATOM      6  C   UNL A   1     -29.180  -0.642  28.183  0.00  0.00    +0.020 A 
ATOM      7 CL   UNL A   1     -28.020  -1.798  30.349  0.00  0.00    -0.081 Cl
ATOM      8 CL   UNL A   1     -25.531   1.521  27.041  0.00  0.00    -0.078 Cl
ATOM      9 CL   UNL A   1     -25.476  -0.205  29.584  0.00  0.00    -0.080 Cl
ATOM     10  O   UNL A   1     -27.845   1.474  25.534  0.00  0.00    -0.285 OA
ENDROOT
BRANCH   5  11
ATOM     11  C   UNL A   1     -30.381   0.205  26.266  0.00  0.00    +0.268 C 
ATOM     12  N   UNL A   1     -30.964   1.170  26.047  0.00  0.00    -0.200 NA
ATOM     13  O   UNL A   1     -30.900  -0.905  25.747  0.00  0.00    -0.268 OA
ATOM     14  C   UNL A   1     -32.187   1.417  25.207  0.00  0.00    +0.139 C 
ENDBRANCH   5  11
TORSDOF 1
