MODEL 911
MODEL 1
REMARK VINA RESULT:    -5.068      0.000      0.000
REMARK INTER + INTRA:          -5.516
REMARK INTER:                  -5.365
REMARK INTRA:                  -0.151
REMARK UNBOUND:                -0.151
REMARK  Name = No_911-gen_results/8p0m/2024-11-26-14-13-15/
REMARK  1 active torsions:
REMARK  status: ('A' for Active; 'I' for Inactive)
REMARK    1  A    between atoms: C_5  and  C_6
REMARK                            x       y       z     vdW  Elec       q    Type
REMARK                         _______ _______ _______ _____ _____    ______ ____
ROOT
ATOM      1  C   UNL A   1     -25.156   0.633  26.699  0.00  0.00    +0.069 A 
ATOM      2  C   UNL A   1     -24.063   1.148  26.748  0.00  0.00    +0.082 A 
ATOM      3  C   UNL A   1     -23.050   0.715  27.582  0.00  0.00    +0.108 A 
ATOM      4  C   UNL A   1     -23.300  -0.424  28.399  0.00  0.00    +0.211 A 
ATOM      5  C   UNL A   1     -24.473  -1.064  28.184  0.00  0.00    +0.096 A 
ATOM      6  C   UNL A   1     -25.352  -0.565  27.325  0.00  0.00    +0.020 A 
ATOM      7 CL   UNL A   1     -26.383   1.238  25.576  0.00  0.00    -0.081 Cl
ATOM      8 CL   UNL A   1     -21.561   1.611  27.760  0.00  0.00    -0.078 Cl
ATOM      9 CL   UNL A   1     -23.675   2.722  25.825  0.00  0.00    -0.080 Cl
ATOM     10  O   UNL A   1     -22.250  -0.619  29.236  0.00  0.00    -0.285 OA
ENDROOT
BRANCH   5  11
ATOM     11  C   UNL A   1     -24.669  -2.241  28.926  0.00  0.00    +0.268 C 
ATOM     12  N   UNL A   1     -24.601  -3.320  28.537  0.00  0.00    -0.200 NA
ATOM     13  O   UNL A   1     -25.038  -2.115  30.198  0.00  0.00    -0.268 OA
ATOM     14  C   UNL A   1     -24.787  -4.637  29.240  0.00  0.00    +0.139 C 
ENDBRANCH   5  11
TORSDOF 1
ENDMDL
ENDMDL
