REMARK  Name = No_912-gen_results/8p0m/2024-11-26-14-13-15/
REMARK  2 active torsions:
REMARK  status: ('A' for Active; 'I' for Inactive)
REMARK    1  A    between atoms: C_1  and  C_17
REMARK    2  A    between atoms: N_7  and  C_8
REMARK                            x       y       z     vdW  Elec       q    Type
REMARK                         _______ _______ _______ _____ _____    ______ ____
ROOT
ATOM      1  C   UNL A   1     -28.016  -0.814  28.878  0.00  0.00    +0.081 A 
ATOM      2  C   UNL A   1     -27.064  -0.119  28.608  0.00  0.00    +0.006 A 
ATOM      3  C   UNL A   1     -27.001   0.691  27.491  0.00  0.00    -0.003 A 
ATOM      4  C   UNL A   1     -28.137   0.736  26.635  0.00  0.00    -0.009 A 
ATOM      5  C   UNL A   1     -29.236   0.076  27.069  0.00  0.00    +0.048 A 
ATOM      6  C   UNL A   1     -29.218  -0.643  28.175  0.00  0.00    +0.021 A 
ATOM      7  N   UNL A   1     -30.352   0.156  26.243  0.00  0.00    -0.287 N 
ATOM      8  C   UNL A   1     -30.259   0.658  24.935  0.00  0.00    +0.096 C 
ATOM      9  C   UNL A   1     -29.279   1.457  24.570  0.00  0.00    +0.026 C 
ATOM     10  C   UNL A   1     -28.056   1.496  25.413  0.00  0.00    +0.029 C 
ENDROOT
BRANCH   7  11
ATOM     11  C   UNL A   1     -31.431  -0.431  26.600  0.00  0.00    +0.052 A 
ATOM     12  C   UNL A   1     -32.163  -1.143  25.676  0.00  0.00    +0.015 A 
ATOM     13  C   UNL A   1     -33.224  -1.971  26.124  0.00  0.00    +0.001 A 
ATOM     14  C   UNL A   1     -33.628  -2.018  27.423  0.00  0.00    +0.000 A 
ATOM     15  C   UNL A   1     -32.927  -1.280  28.328  0.00  0.00    +0.001 A 
ATOM     16  C   UNL A   1     -31.825  -0.531  27.996  0.00  0.00    +0.015 A 
ENDBRANCH   7  11
BRANCH   1  17
ATOM     17  C   UNL A   1     -28.097  -1.628  30.183  0.00  0.00    +0.388 C 
ATOM     18  O   UNL A   1     -27.167  -2.233  30.470  0.00  0.00    -0.241 OA
ATOM     19  O   UNL A   1     -29.219  -1.753  30.800  0.00  0.00    -0.241 OA
ENDBRANCH   1  17
TORSDOF 2
