MODEL 912
MODEL 1
REMARK VINA RESULT:    -7.385      0.000      0.000
REMARK INTER + INTRA:          -8.642
REMARK INTER:                  -8.249
REMARK INTRA:                  -0.394
REMARK UNBOUND:                -0.394
REMARK  Name = No_912-gen_results/8p0m/2024-11-26-14-13-15/
REMARK  2 active torsions:
REMARK  status: ('A' for Active; 'I' for Inactive)
REMARK    1  A    between atoms: C_1  and  C_17
REMARK    2  A    between atoms: N_7  and  C_8
REMARK                            x       y       z     vdW  Elec       q    Type
REMARK                         _______ _______ _______ _____ _____    ______ ____
ROOT
ATOM      1  C   UNL A   1     -25.735   0.610  26.293  0.00  0.00    +0.081 A 
ATOM      2  C   UNL A   1     -24.960   1.489  25.994  0.00  0.00    +0.006 A 
ATOM      3  C   UNL A   1     -23.713   1.637  26.568  0.00  0.00    -0.003 A 
ATOM      4  C   UNL A   1     -23.308   0.678  27.538  0.00  0.00    -0.009 A 
ATOM      5  C   UNL A   1     -24.136  -0.378  27.714  0.00  0.00    +0.048 A 
ATOM      6  C   UNL A   1     -25.295  -0.458  27.088  0.00  0.00    +0.021 A 
ATOM      7  N   UNL A   1     -23.713  -1.328  28.637  0.00  0.00    -0.287 N 
ATOM      8  C   UNL A   1     -22.644  -1.074  29.511  0.00  0.00    +0.096 C 
ATOM      9  C   UNL A   1     -21.731  -0.166  29.239  0.00  0.00    +0.026 C 
ATOM     10  C   UNL A   1     -22.053   0.869  28.222  0.00  0.00    +0.029 C 
ENDROOT
BRANCH   7  11
ATOM     11  C   UNL A   1     -24.440  -2.361  28.841  0.00  0.00    +0.052 A 
ATOM     12  C   UNL A   1     -23.996  -3.602  28.442  0.00  0.00    +0.015 A 
ATOM     13  C   UNL A   1     -24.697  -4.758  28.872  0.00  0.00    +0.001 A 
ATOM     14  C   UNL A   1     -25.859  -4.699  29.578  0.00  0.00    +0.000 A 
ATOM     15  C   UNL A   1     -26.317  -3.467  29.935  0.00  0.00    +0.001 A 
ATOM     16  C   UNL A   1     -25.648  -2.303  29.648  0.00  0.00    +0.015 A 
ENDBRANCH   7  11
BRANCH   1  17
ATOM     17  C   UNL A   1     -27.076   0.412  25.563  0.00  0.00    +0.388 C 
ATOM     18  O   UNL A   1     -27.070   0.561  24.426  0.00  0.00    -0.241 OA
ATOM     19  O   UNL A   1     -28.165   0.269  26.234  0.00  0.00    -0.241 OA
ENDBRANCH   1  17
TORSDOF 2
ENDMDL
ENDMDL
