MODEL 913
MODEL 1
REMARK VINA RESULT:    -6.623      0.000      0.000
REMARK INTER + INTRA:          -7.162
REMARK INTER:                  -7.011
REMARK INTRA:                  -0.152
REMARK UNBOUND:                -0.152
REMARK  Name = No_913-gen_results/8p0m/2024-11-26-14-13-15/
REMARK  1 active torsions:
REMARK  status: ('A' for Active; 'I' for Inactive)
REMARK    1  A    between atoms: C_7  and  C_11
REMARK                            x       y       z     vdW  Elec       q    Type
REMARK                         _______ _______ _______ _____ _____    ______ ____
ROOT
ATOM      1  C   UNL A   1     -24.675  -2.729  28.985  0.00  0.00    +0.004 A 
ATOM      2  C   UNL A   1     -23.903  -3.396  28.723  0.00  0.00    -0.000 A 
ATOM      3  C   UNL A   1     -25.703  -3.254  29.838  0.00  0.00    -0.000 A 
ATOM      4  C   UNL A   1     -26.719  -2.365  30.439  0.00  0.00    -0.000 A 
ATOM      5  C   UNL A   1     -26.381  -1.026  30.711  0.00  0.00    -0.000 A 
ATOM      6  C   UNL A   1     -25.155  -0.521  30.232  0.00  0.00    +0.004 A 
ATOM      7  C   UNL A   1     -24.307  -1.308  29.544  0.00  0.00    +0.071 A 
ATOM      8  C   UNL A   1     -23.992  -4.686  28.423  0.00  0.00    -0.000 A 
ATOM      9  C   UNL A   1     -25.166  -5.281  28.985  0.00  0.00    -0.000 A 
ATOM     10  C   UNL A   1     -26.116  -4.548  29.668  0.00  0.00    -0.000 A 
ENDROOT
BRANCH   7  11
ATOM     11  C   UNL A   1     -23.078  -0.589  29.013  0.00  0.00    +0.419 C 
ATOM     12  F   UNL A   1     -23.203  -0.222  27.911  0.00  0.00    -0.166 F 
ATOM     13  F   UNL A   1     -21.940  -1.310  29.161  0.00  0.00    -0.166 F 
ATOM     14  F   UNL A   1     -22.794   0.549  29.834  0.00  0.00    -0.166 F 
ENDBRANCH   7  11
TORSDOF 1
ENDMDL
ENDMDL
