REMARK  Name = No_914-gen_results/8p0m/2024-11-26-14-13-15/
REMARK  12 active torsions:
REMARK  status: ('A' for Active; 'I' for Inactive)
REMARK    1  A    between atoms: C_1  and  C_2
REMARK    2  A    between atoms: C_1  and  C_8
REMARK    3  A    between atoms: C_4  and  C_18
REMARK    4  A    between atoms: C_5  and  C_10
REMARK    5  A    between atoms: C_8  and  C_9
REMARK    6  A    between atoms: C_8  and  O_17
REMARK    7  A    between atoms: C_10  and  P_11
REMARK    8  A    between atoms: O_17  and  C_25
REMARK    9  A    between atoms: C_18  and  O_20
REMARK   10  A    between atoms: O_20  and  C_21
REMARK   11  A    between atoms: C_21  and  C_22
REMARK   12  A    between atoms: C_26  and  C_27
REMARK                            x       y       z     vdW  Elec       q    Type
REMARK                         _______ _______ _______ _____ _____    ______ ____
ROOT
ATOM      1  C   UNL A   1     -27.064  -0.119  28.608  0.00  0.00    -0.018 A 
ATOM      2  C   UNL A   1     -26.876   1.133  28.913  0.00  0.00    +0.002 A 
ATOM      3  C   UNL A   1     -25.688   1.952  28.567  0.00  0.00    +0.072 A 
ATOM      4  C   UNL A   1     -24.639   1.283  27.875  0.00  0.00    -0.009 A 
ATOM      5  C   UNL A   1     -24.807  -0.051  27.604  0.00  0.00    -0.004 A 
ATOM      6  C   UNL A   1     -25.902  -0.767  27.951  0.00  0.00    -0.004 A 
ENDROOT
BRANCH   3   7
ATOM      7  C   UNL A   1     -25.596   3.372  28.918  0.00  0.00    +0.341 C 
ATOM      8  O   UNL A   1     -25.838   4.129  28.043  0.00  0.00    -0.245 OA
BRANCH   7   9
ATOM      9  O   UNL A   1     -25.508   3.661  30.169  0.00  0.00    -0.433 OA
BRANCH   9  10
ATOM     10  C   UNL A   1     -25.906   4.840  30.683  0.00  0.00    +0.322 C 
BRANCH  10  11
ATOM     11  C   UNL A   1     -25.418   5.073  31.981  0.00  0.00    +0.409 C 
ATOM     12  O   UNL A   1     -26.183   5.536  32.790  0.00  0.00    -0.241 OA
ATOM     13  O   UNL A   1     -24.225   4.660  32.357  0.00  0.00    -0.241 OA
ENDBRANCH  10  11
ENDBRANCH   9  10
ENDBRANCH   7   9
ENDBRANCH   3   7
BRANCH   1  14
ATOM     14  C   UNL A   1     -28.016  -0.814  28.878  0.00  0.00    +0.082 C 
BRANCH  14  15
ATOM     15  C   UNL A   1     -29.212  -0.115  29.122  0.00  0.00    +0.272 C 
BRANCH  15  16
ATOM     16  C   UNL A   1     -30.351  -0.818  29.578  0.00  0.00    +0.404 C 
ATOM     17  O   UNL A   1     -31.406  -0.745  29.007  0.00  0.00    -0.242 OA
ATOM     18  O   UNL A   1     -30.165  -1.947  30.335  0.00  0.00    -0.242 OA
ENDBRANCH  15  16
BRANCH  15  19
ATOM     19  O   UNL A   1     -29.601   0.742  28.105  0.00  0.00    -0.464 OA
BRANCH  19  20
ATOM     20  C   UNL A   1     -29.467   2.065  28.132  0.00  0.00    +0.173 C 
ATOM     21  C   UNL A   1     -29.437   2.779  26.919  0.00  0.00    +0.040 C 
BRANCH  21  22
ATOM     22  C   UNL A   1     -29.292   2.153  25.811  0.00  0.00    +0.003 C 
ATOM     23  C   UNL A   1     -29.111   2.908  24.621  0.00  0.00    +0.000 C 
ENDBRANCH  21  22
ENDBRANCH  19  20
ENDBRANCH  15  19
ENDBRANCH  14  15
ENDBRANCH   1  14
BRANCH   4  24
ATOM     24  C   UNL A   1     -23.418   1.980  27.512  0.00  0.00    +0.085 C 
BRANCH  24  25
ATOM     25  P   UNL A   1     -22.073   2.006  28.357  0.00  0.00    +0.122 P 
ATOM     26  O   UNL A   1     -21.967   0.447  28.776  0.00  0.00    -0.357 OA
ATOM     27  O   UNL A   1     -20.919   2.121  27.452  0.00  0.00    -0.460 OA
ATOM     28  O   UNL A   1     -22.200   2.758  29.535  0.00  0.00    -0.357 OA
ENDBRANCH  24  25
ENDBRANCH   4  24
TORSDOF 12
