MODEL 914
MODEL 1
REMARK VINA RESULT:    -6.083      0.000      0.000
REMARK INTER + INTRA:         -12.295
REMARK INTER:                 -10.350
REMARK INTRA:                  -1.945
REMARK UNBOUND:                -1.945
REMARK  Name = No_914-gen_results/8p0m/2024-11-26-14-13-15/
REMARK  12 active torsions:
REMARK  status: ('A' for Active; 'I' for Inactive)
REMARK    1  A    between atoms: C_1  and  C_2
REMARK    2  A    between atoms: C_1  and  C_8
REMARK    3  A    between atoms: C_4  and  C_18
REMARK    4  A    between atoms: C_5  and  C_10
REMARK    5  A    between atoms: C_8  and  C_9
REMARK    6  A    between atoms: C_8  and  O_17
REMARK    7  A    between atoms: C_10  and  P_11
REMARK    8  A    between atoms: O_17  and  C_25
REMARK    9  A    between atoms: C_18  and  O_20
REMARK   10  A    between atoms: O_20  and  C_21
REMARK   11  A    between atoms: C_21  and  C_22
REMARK   12  A    between atoms: C_26  and  C_27
REMARK                            x       y       z     vdW  Elec       q    Type
REMARK                         _______ _______ _______ _____ _____    ______ ____
ROOT
ATOM      1  C   UNL A   1     -17.946 -20.869   7.238  0.00  0.00    -0.018 A 
ATOM      2  C   UNL A   1     -18.510 -20.008   6.441  0.00  0.00    +0.002 A 
ATOM      3  C   UNL A   1     -19.961 -19.704   6.361  0.00  0.00    +0.072 A 
ATOM      4  C   UNL A   1     -20.813 -20.465   7.210  0.00  0.00    -0.009 A 
ATOM      5  C   UNL A   1     -20.230 -21.415   8.009  0.00  0.00    -0.004 A 
ATOM      6  C   UNL A   1     -18.901 -21.673   8.041  0.00  0.00    -0.004 A 
ENDROOT
BRANCH   3   7
ATOM      7  C   UNL A   1     -20.489 -18.678   5.458  0.00  0.00    +0.341 C 
ATOM      8  O   UNL A   1     -20.337 -17.560   5.813  0.00  0.00    -0.245 OA
BRANCH   7   9
ATOM      9  O   UNL A   1     -20.838 -19.059   4.279  0.00  0.00    -0.433 OA
BRANCH   9  10
ATOM     10  C   UNL A   1     -22.086 -18.911   3.796  0.00  0.00    +0.322 C 
BRANCH  10  11
ATOM     11  C   UNL A   1     -22.121 -18.696   2.407  0.00  0.00    +0.409 C 
ATOM     12  O   UNL A   1     -22.183 -17.555   2.021  0.00  0.00    -0.241 OA
ATOM     13  O   UNL A   1     -21.934 -19.677   1.548  0.00  0.00    -0.241 OA
ENDBRANCH  10  11
ENDBRANCH   9  10
ENDBRANCH   7   9
ENDBRANCH   3   7
BRANCH   1  14
ATOM     14  C   UNL A   1     -16.771 -21.143   7.324  0.00  0.00    +0.082 C 
BRANCH  14  15
ATOM     15  C   UNL A   1     -16.495 -22.414   7.858  0.00  0.00    +0.272 C 
BRANCH  15  16
ATOM     16  C   UNL A   1     -15.543 -22.544   8.895  0.00  0.00    +0.404 C 
ATOM     17  O   UNL A   1     -14.362 -22.505   8.674  0.00  0.00    -0.242 OA
ATOM     18  O   UNL A   1     -15.917 -22.214  10.173  0.00  0.00    -0.242 OA
ENDBRANCH  15  16
BRANCH  15  19
ATOM     19  O   UNL A   1     -16.255 -23.400   6.914  0.00  0.00    -0.464 OA
BRANCH  19  20
ATOM     20  C   UNL A   1     -15.994 -23.176   5.629  0.00  0.00    +0.173 C 
ATOM     21  C   UNL A   1     -17.034 -23.280   4.686  0.00  0.00    +0.040 C 
BRANCH  21  22
ATOM     22  C   UNL A   1     -18.148 -23.818   5.018  0.00  0.00    +0.003 C 
ATOM     23  C   UNL A   1     -19.356 -23.197   4.600  0.00  0.00    +0.000 C 
ENDBRANCH  21  22
ENDBRANCH  19  20
ENDBRANCH  15  19
ENDBRANCH  14  15
ENDBRANCH   1  14
BRANCH   4  24
ATOM     24  C   UNL A   1     -22.252 -20.271   7.194  0.00  0.00    +0.085 C 
BRANCH  24  25
ATOM     25  P   UNL A   1     -23.266 -20.717   8.333  0.00  0.00    +0.122 P 
ATOM     26  O   UNL A   1     -24.648 -20.125   7.736  0.00  0.00    -0.357 OA
ATOM     27  O   UNL A   1     -23.525 -22.161   8.231  0.00  0.00    -0.460 OA
ATOM     28  O   UNL A   1     -23.014 -20.068   9.552  0.00  0.00    -0.357 OA
ENDBRANCH  24  25
ENDBRANCH   4  24
TORSDOF 12
ENDMDL
ENDMDL
