REMARK  Name = No_915-gen_results/8p0m/2024-11-26-14-13-15/
REMARK  4 active torsions:
REMARK  status: ('A' for Active; 'I' for Inactive)
REMARK    1  A    between atoms: C_2  and  C_7
REMARK    2  A    between atoms: C_7  and  C_8
REMARK    3  A    between atoms: C_8  and  C_9
REMARK    4  A    between atoms: C_9  and  C_10
REMARK                            x       y       z     vdW  Elec       q    Type
REMARK                         _______ _______ _______ _____ _____    ______ ____
ROOT
ATOM      1  C   UNL A   1     -24.718  -1.061  28.613  0.00  0.00    +0.008 C 
ATOM      2  C   UNL A   1     -24.802  -2.287  29.343  0.00  0.00    +0.001 C 
ENDROOT
BRANCH   1   3
ATOM      3  C   UNL A   1     -23.595  -0.283  28.812  0.00  0.00    +0.019 C 
ATOM      4  C   UNL A   1     -22.451  -0.929  29.356  0.00  0.00    +0.004 C 
BRANCH   3   5
ATOM      5  C   UNL A   1     -23.362   0.993  28.277  0.00  0.00    -0.040 C 
ATOM      6  C   UNL A   1     -22.112   1.609  28.314  0.00  0.00    -0.009 C 
ATOM      7  C   UNL A   1     -21.925   2.807  27.623  0.00  0.00    -0.005 C 
ATOM      8  C   UNL A   1     -23.090   3.153  26.815  0.00  0.00    -0.022 C 
ATOM      9  C   UNL A   1     -24.175   1.701  27.280  0.00  0.00    +0.048 C 
ENDBRANCH   3   5
ENDBRANCH   1   3
BRANCH   1  10
ATOM     10  C   UNL A   1     -25.891  -0.626  27.786  0.00  0.00    +0.027 C 
BRANCH  10  12
ATOM     11  C   UNL A   1     -28.016  -0.814  28.878  0.00  0.00    -0.004 A 
ATOM     12  C   UNL A   1     -27.064  -0.119  28.608  0.00  0.00    -0.022 A 
ATOM     13  C   UNL A   1     -26.929   1.171  29.008  0.00  0.00    -0.004 A 
ATOM     14  C   UNL A   1     -27.956   1.741  29.784  0.00  0.00    -0.000 A 
ATOM     15  C   UNL A   1     -29.057  -0.327  29.747  0.00  0.00    -0.000 A 
ATOM     16  C   UNL A   1     -28.983   0.972  30.152  0.00  0.00    -0.000 A 
ENDBRANCH  10  12
ENDBRANCH   1  10
TORSDOF 4
