MODEL 915
MODEL 1
REMARK VINA RESULT:    -6.458      0.000      0.000
REMARK INTER + INTRA:          -9.263
REMARK INTER:                  -7.968
REMARK INTRA:                  -1.295
REMARK UNBOUND:                -1.295
REMARK  Name = No_915-gen_results/8p0m/2024-11-26-14-13-15/
REMARK  4 active torsions:
REMARK  status: ('A' for Active; 'I' for Inactive)
REMARK    1  A    between atoms: C_2  and  C_7
REMARK    2  A    between atoms: C_7  and  C_8
REMARK    3  A    between atoms: C_8  and  C_9
REMARK    4  A    between atoms: C_9  and  C_10
REMARK                            x       y       z     vdW  Elec       q    Type
REMARK                         _______ _______ _______ _____ _____    ______ ____
ROOT
ATOM      1  C   UNL A   1     -23.085   0.347  30.269  0.00  0.00    +0.008 C 
ATOM      2  C   UNL A   1     -23.739   1.489  30.828  0.00  0.00    +0.001 C 
ENDROOT
BRANCH   1   3
ATOM      3  C   UNL A   1     -22.504   0.497  29.026  0.00  0.00    +0.019 C 
ATOM      4  C   UNL A   1     -21.249  -0.138  28.820  0.00  0.00    +0.004 C 
BRANCH   3   5
ATOM      5  C   UNL A   1     -23.138   0.958  27.862  0.00  0.00    -0.040 C 
ATOM      6  C   UNL A   1     -22.549   1.879  26.997  0.00  0.00    -0.009 C 
ATOM      7  C   UNL A   1     -23.175   2.167  25.784  0.00  0.00    -0.005 C 
ATOM      8  C   UNL A   1     -24.324   1.298  25.548  0.00  0.00    -0.022 C 
ATOM      9  C   UNL A   1     -24.246   0.318  27.140  0.00  0.00    +0.048 C 
ENDBRANCH   3   5
ENDBRANCH   1   3
BRANCH   1  10
ATOM     10  C   UNL A   1     -23.176  -0.966  30.988  0.00  0.00    +0.027 C 
BRANCH  10  12
ATOM     11  C   UNL A   1     -23.827  -2.748  29.524  0.00  0.00    -0.004 A 
ATOM     12  C   UNL A   1     -24.159  -1.940  30.360  0.00  0.00    -0.022 A 
ATOM     13  C   UNL A   1     -25.425  -1.816  30.834  0.00  0.00    -0.004 A 
ATOM     14  C   UNL A   1     -26.416  -2.676  30.326  0.00  0.00    -0.000 A 
ATOM     15  C   UNL A   1     -24.768  -3.722  29.030  0.00  0.00    -0.000 A 
ATOM     16  C   UNL A   1     -26.059  -3.621  29.454  0.00  0.00    -0.000 A 
ENDBRANCH  10  12
ENDBRANCH   1  10
TORSDOF 4
ENDMDL
ENDMDL
