REMARK  Name = No_916-gen_results/8p0m/2024-11-26-14-13-15/
REMARK  4 active torsions:
REMARK  status: ('A' for Active; 'I' for Inactive)
REMARK    1  A    between atoms: C_6  and  C_15
REMARK    2  A    between atoms: C_7  and  C_26
REMARK    3  A    between atoms: C_9  and  C_11
REMARK    4  A    between atoms: C_18  and  C_19
REMARK                            x       y       z     vdW  Elec       q    Type
REMARK                         _______ _______ _______ _____ _____    ______ ____
ROOT
ATOM      1  C   UNL A   1     -28.016  -0.814  28.878  0.00  0.00    +0.005 A 
ATOM      2  C   UNL A   1     -27.064  -0.119  28.608  0.00  0.00    +0.006 A 
ATOM      3  C   UNL A   1     -25.792  -0.430  29.076  0.00  0.00    +0.000 A 
ATOM      4  C   UNL A   1     -25.576  -1.565  29.936  0.00  0.00    +0.000 A 
ATOM      5  C   UNL A   1     -26.735  -2.300  30.217  0.00  0.00    +0.005 A 
ATOM      6  C   UNL A   1     -27.918  -1.954  29.763  0.00  0.00    +0.056 A 
ATOM      7  C   UNL A   1     -26.897   1.102  27.705  0.00  0.00    +0.080 A 
ATOM      8  C   UNL A   1     -25.855   1.542  27.231  0.00  0.00    +0.010 A 
ATOM      9  C   UNL A   1     -24.549   1.163  27.849  0.00  0.00    +0.072 A 
ATOM     10  C   UNL A   1     -24.499   0.113  28.699  0.00  0.00    +0.004 A 
ENDROOT
BRANCH   6  11
ATOM     11  C   UNL A   1     -29.108  -2.727  30.196  0.00  0.00    +0.272 C 
ATOM     12  N   UNL A   1     -29.029  -4.035  30.475  0.00  0.00    -0.137 NA
ATOM     13  O   UNL A   1     -30.238  -2.209  30.255  0.00  0.00    -0.268 OA
ATOM     14  C   UNL A   1     -30.086  -4.933  30.804  0.00  0.00    +0.272 C 
ATOM     15  O   UNL A   1     -30.094  -5.319  32.009  0.00  0.00    -0.268 OA
BRANCH  14  16
ATOM     16  C   UNL A   1     -30.886  -5.254  29.752  0.00  0.00    +0.056 A 
ATOM     17  C   UNL A   1     -30.632  -5.075  28.541  0.00  0.00    +0.005 A 
ATOM     18  C   UNL A   1     -31.384  -5.659  27.468  0.00  0.00    +0.011 A 
ATOM     19  C   UNL A   1     -32.500  -6.416  27.685  0.00  0.00    +0.058 A 
ATOM     20  C   UNL A   1     -32.776  -6.657  29.060  0.00  0.00    +0.011 A 
ATOM     21  C   UNL A   1     -31.980  -6.186  30.088  0.00  0.00    +0.005 A 
ATOM     22 CL   UNL A   1     -33.444  -6.970  26.457  0.00  0.00    -0.082 Cl
ENDBRANCH  14  16
ENDBRANCH   6  11
BRANCH   9  23
ATOM     23  C   UNL A   1     -23.285   1.856  27.400  0.00  0.00    +0.419 C 
ATOM     24  F   UNL A   1     -23.035   1.833  26.191  0.00  0.00    -0.166 F 
ATOM     25  F   UNL A   1     -22.179   1.361  28.102  0.00  0.00    -0.166 F 
ATOM     26  F   UNL A   1     -23.437   3.224  27.766  0.00  0.00    -0.166 F 
ENDBRANCH   9  23
BRANCH   7  27
ATOM     27  C   UNL A   1     -28.248   1.565  27.121  0.00  0.00    +0.388 C 
ATOM     28  O   UNL A   1     -28.924   2.323  27.686  0.00  0.00    -0.241 OA
ATOM     29  O   UNL A   1     -28.409   1.257  25.876  0.00  0.00    -0.241 OA
ENDBRANCH   7  27
TORSDOF 4
