MODEL 916
MODEL 1
REMARK VINA RESULT:    -7.964      0.000      0.000
REMARK INTER + INTRA:         -10.404
REMARK INTER:                  -9.827
REMARK INTRA:                  -0.577
REMARK UNBOUND:                -0.577
REMARK  Name = No_916-gen_results/8p0m/2024-11-26-14-13-15/
REMARK  4 active torsions:
REMARK  status: ('A' for Active; 'I' for Inactive)
REMARK    1  A    between atoms: C_6  and  C_15
REMARK    2  A    between atoms: C_7  and  C_26
REMARK    3  A    between atoms: C_9  and  C_11
REMARK    4  A    between atoms: C_18  and  C_19
REMARK                            x       y       z     vdW  Elec       q    Type
REMARK                         _______ _______ _______ _____ _____    ______ ____
ROOT
ATOM      1  C   UNL A   1      -7.142   0.891   8.896  0.00  0.00    +0.005 A 
ATOM      2  C   UNL A   1      -7.969   1.443   9.583  0.00  0.00    +0.006 A 
ATOM      3  C   UNL A   1      -8.345   0.918  10.815  0.00  0.00    +0.000 A 
ATOM      4  C   UNL A   1      -7.794  -0.326  11.290  0.00  0.00    +0.000 A 
ATOM      5  C   UNL A   1      -6.863  -0.909  10.421  0.00  0.00    +0.005 A 
ATOM      6  C   UNL A   1      -6.554  -0.380   9.259  0.00  0.00    +0.056 A 
ATOM      7  C   UNL A   1      -8.714   2.769   9.442  0.00  0.00    +0.080 A 
ATOM      8  C   UNL A   1      -9.278   3.405  10.326  0.00  0.00    +0.010 A 
ATOM      9  C   UNL A   1      -9.667   2.716  11.593  0.00  0.00    +0.072 A 
ATOM     10  C   UNL A   1      -9.125   1.513  11.886  0.00  0.00    +0.004 A 
ENDROOT
BRANCH   6  11
ATOM     11  C   UNL A   1      -5.638  -1.118   8.354  0.00  0.00    +0.272 C 
ATOM     12  N   UNL A   1      -4.377  -1.397   8.711  0.00  0.00    -0.137 NA
ATOM     13  O   UNL A   1      -5.982  -1.451   7.206  0.00  0.00    -0.268 OA
ATOM     14  C   UNL A   1      -3.352  -2.003   7.928  0.00  0.00    +0.272 C 
ATOM     15  O   UNL A   1      -3.045  -3.179   8.281  0.00  0.00    -0.268 OA
BRANCH  14  16
ATOM     16  C   UNL A   1      -2.849  -1.196   6.956  0.00  0.00    +0.056 A 
ATOM     17  C   UNL A   1      -2.864   0.054   6.943  0.00  0.00    +0.005 A 
ATOM     18  C   UNL A   1      -2.100   0.857   6.033  0.00  0.00    +0.011 A 
ATOM     19  C   UNL A   1      -1.333   0.311   5.043  0.00  0.00    +0.058 A 
ATOM     20  C   UNL A   1      -1.278  -1.111   5.073  0.00  0.00    +0.011 A 
ATOM     21  C   UNL A   1      -1.926  -1.876   6.025  0.00  0.00    +0.005 A 
ATOM     22 CL   UNL A   1      -0.568   1.227   3.912  0.00  0.00    -0.082 Cl
ENDBRANCH  14  16
ENDBRANCH   6  11
BRANCH   9  23
ATOM     23  C   UNL A   1     -10.535   3.438  12.596  0.00  0.00    +0.419 C 
ATOM     24  F   UNL A   1     -11.342   2.753  13.231  0.00  0.00    -0.166 F 
ATOM     25  F   UNL A   1     -11.221   4.493  11.980  0.00  0.00    -0.166 F 
ATOM     26  F   UNL A   1      -9.643   4.014  13.544  0.00  0.00    -0.166 F 
ENDBRANCH   9  23
BRANCH   7  27
ATOM     27  C   UNL A   1      -8.394   3.460   8.101  0.00  0.00    +0.388 C 
ATOM     28  O   UNL A   1      -7.361   3.956   7.907  0.00  0.00    -0.241 OA
ATOM     29  O   UNL A   1      -9.245   3.197   7.164  0.00  0.00    -0.241 OA
ENDBRANCH   7  27
TORSDOF 4
ENDMDL
ENDMDL
