REMARK  Name = No_917-gen_results/8p0m/2024-11-26-14-13-15/
REMARK  4 active torsions:
REMARK  status: ('A' for Active; 'I' for Inactive)
REMARK    1  A    between atoms: N_1  and  C_2
REMARK    2  A    between atoms: N_1  and  C_12
REMARK    3  A    between atoms: C_12  and  C_13
REMARK    4  A    between atoms: C_13  and  C_14
REMARK                            x       y       z     vdW  Elec       q    Type
REMARK                         _______ _______ _______ _____ _____    ______ ____
ROOT
ATOM      1  C   UNL A   1     -26.966  -0.472  28.771  0.00  0.00    +0.065 A 
ATOM      2  C   UNL A   1     -26.549   0.388  27.831  0.00  0.00    +0.016 A 
ATOM      3  C   UNL A   1     -25.223   0.853  27.703  0.00  0.00    +0.001 A 
ATOM      4  C   UNL A   1     -24.246   0.468  28.695  0.00  0.00    +0.000 A 
ATOM      5  C   UNL A   1     -22.897   0.859  28.651  0.00  0.00    +0.000 A 
ATOM      6  C   UNL A   1     -25.940  -1.026  29.736  0.00  0.00    +0.016 A 
ATOM      7  C   UNL A   1     -24.581  -0.525  29.716  0.00  0.00    +0.001 A 
ATOM      8  C   UNL A   1     -22.520   1.780  27.585  0.00  0.00    +0.000 A 
ATOM      9  C   UNL A   1     -23.459   2.290  26.703  0.00  0.00    +0.000 A 
ATOM     10  C   UNL A   1     -24.800   1.814  26.738  0.00  0.00    +0.000 A 
ENDROOT
BRANCH   1  11
ATOM     11  N   UNL A   1     -28.054  -1.050  28.725  0.00  0.00    -0.237 NA
BRANCH  11  12
ATOM     12  C   UNL A   1     -29.037  -0.480  29.607  0.00  0.00    +0.119 C 
BRANCH  12  13
ATOM     13  C   UNL A   1     -30.335  -1.073  29.564  0.00  0.00    +0.072 C 
BRANCH  13  14
ATOM     14  C   UNL A   1     -31.224  -0.502  28.563  0.00  0.00    +0.098 C 
ATOM     15  N   UNL A   1     -32.100   0.041  28.977  0.00  0.00    -0.151 NA
ENDBRANCH  13  14
ENDBRANCH  12  13
ENDBRANCH  11  12
ENDBRANCH   1  11
TORSDOF 4
