MODEL 917
MODEL 1
REMARK VINA RESULT:    -5.723      0.000      0.000
REMARK INTER + INTRA:          -7.547
REMARK INTER:                  -7.062
REMARK INTRA:                  -0.486
REMARK UNBOUND:                -0.486
REMARK  Name = No_917-gen_results/8p0m/2024-11-26-14-13-15/
REMARK  4 active torsions:
REMARK  status: ('A' for Active; 'I' for Inactive)
REMARK    1  A    between atoms: N_1  and  C_2
REMARK    2  A    between atoms: N_1  and  C_12
REMARK    3  A    between atoms: C_12  and  C_13
REMARK    4  A    between atoms: C_13  and  C_14
REMARK                            x       y       z     vdW  Elec       q    Type
REMARK                         _______ _______ _______ _____ _____    ______ ____
ROOT
ATOM      1  C   UNL A   1     -23.317  -0.525  29.663  0.00  0.00    +0.065 A 
ATOM      2  C   UNL A   1     -23.152  -1.751  29.144  0.00  0.00    +0.016 A 
ATOM      3  C   UNL A   1     -24.113  -2.782  29.206  0.00  0.00    +0.001 A 
ATOM      4  C   UNL A   1     -25.329  -2.564  29.955  0.00  0.00    +0.000 A 
ATOM      5  C   UNL A   1     -26.357  -3.515  30.064  0.00  0.00    +0.000 A 
ATOM      6  C   UNL A   1     -24.642  -0.201  30.319  0.00  0.00    +0.016 A 
ATOM      7  C   UNL A   1     -25.637  -1.239  30.494  0.00  0.00    +0.001 A 
ATOM      8  C   UNL A   1     -26.107  -4.817  29.455  0.00  0.00    +0.000 A 
ATOM      9  C   UNL A   1     -24.894  -5.115  28.857  0.00  0.00    +0.000 A 
ATOM     10  C   UNL A   1     -23.906  -4.101  28.705  0.00  0.00    +0.000 A 
ENDROOT
BRANCH   1  11
ATOM     11  N   UNL A   1     -22.582   0.427  29.395  0.00  0.00    -0.237 NA
BRANCH  11  12
ATOM     12  C   UNL A   1     -23.223   1.428  28.585  0.00  0.00    +0.119 C 
BRANCH  12  13
ATOM     13  C   UNL A   1     -22.784   1.511  27.229  0.00  0.00    +0.072 C 
BRANCH  13  14
ATOM     14  C   UNL A   1     -23.847   1.371  26.244  0.00  0.00    +0.098 C 
ATOM     15  N   UNL A   1     -24.520   0.503  26.408  0.00  0.00    -0.151 NA
ENDBRANCH  13  14
ENDBRANCH  12  13
ENDBRANCH  11  12
ENDBRANCH   1  11
TORSDOF 4
ENDMDL
ENDMDL
