REMARK  Name = No_918-gen_results/8p0m/2024-11-26-14-13-15/
REMARK  6 active torsions:
REMARK  status: ('A' for Active; 'I' for Inactive)
REMARK    1  A    between atoms: C_1  and  C_2
REMARK    2  A    between atoms: C_1  and  N_8
REMARK    3  A    between atoms: C_5  and  C_13
REMARK    4  A    between atoms: N_8  and  C_9
REMARK    5  A    between atoms: N_8  and  C_19
REMARK    6  A    between atoms: C_9  and  C_12
REMARK                            x       y       z     vdW  Elec       q    Type
REMARK                         _______ _______ _______ _____ _____    ______ ____
ROOT
ATOM      1  N   UNL A   1     -29.177  -0.312  28.966  0.00  0.00    -0.248 N 
ENDROOT
BRANCH   1   2
ATOM      2  C   UNL A   1     -29.602   0.662  27.977  0.00  0.00    +0.095 A 
ATOM      3  C   UNL A   1     -29.793   1.948  28.347  0.00  0.00    +0.018 A 
ATOM      4  C   UNL A   1     -30.494   2.726  27.788  0.00  0.00    +0.005 A 
ATOM      5  C   UNL A   1     -31.303   2.456  26.841  0.00  0.00    +0.045 A 
ATOM      6  C   UNL A   1     -31.149   1.134  26.287  0.00  0.00    +0.235 A 
ATOM      7  C   UNL A   1     -30.670   0.145  27.171  0.00  0.00    +0.247 A 
ATOM      8  O   UNL A   1     -30.469  -0.997  26.488  0.00  0.00    -0.282 OA
ATOM      9  O   UNL A   1     -32.333   0.737  25.516  0.00  0.00    -0.283 OA
ENDBRANCH   1   2
BRANCH   1  10
ATOM     10  C   UNL A   1     -30.166  -0.913  29.745  0.00  0.00    +0.408 C 
ATOM     11  F   UNL A   1     -29.904  -2.062  29.947  0.00  0.00    -0.176 F 
ATOM     12  O   UNL A   1     -31.449  -0.800  29.199  0.00  0.00    -0.160 OA
BRANCH  10  13
ATOM     13  C   UNL A   1     -30.150  -0.153  31.169  0.00  0.00    +0.471 C 
ATOM     14  F   UNL A   1     -29.764  -0.911  32.057  0.00  0.00    -0.164 F 
ATOM     15  F   UNL A   1     -31.430   0.211  31.438  0.00  0.00    -0.164 F 
ATOM     16  F   UNL A   1     -29.419   0.945  31.064  0.00  0.00    -0.164 F 
ENDBRANCH  10  13
ENDBRANCH   1  10
BRANCH   1  17
ATOM     17  C   UNL A   1     -28.016  -0.814  28.878  0.00  0.00    +0.122 C 
BRANCH  17  18
ATOM     18  C   UNL A   1     -27.064  -0.119  28.608  0.00  0.00    -0.002 A 
ATOM     19  C   UNL A   1     -26.929   1.171  29.008  0.00  0.00    -0.003 A 
ATOM     20  C   UNL A   1     -25.770   2.034  28.688  0.00  0.00    +0.001 A 
ATOM     21  C   UNL A   1     -24.714   1.443  27.919  0.00  0.00    +0.044 A 
ATOM     22  C   UNL A   1     -24.667   0.361  27.769  0.00  0.00    +0.001 A 
ATOM     23  C   UNL A   1     -25.857  -0.634  27.978  0.00  0.00    -0.003 A 
BRANCH  21  24
ATOM     24  C   UNL A   1     -23.487   2.340  27.725  0.00  0.00    +0.341 C 
ATOM     25  F   UNL A   1     -23.626   3.357  27.182  0.00  0.00    -0.193 F 
ATOM     26  F   UNL A   1     -22.287   1.869  27.760  0.00  0.00    -0.193 F 
ENDBRANCH  21  24
ENDBRANCH  17  18
ENDBRANCH   1  17
TORSDOF 6
