MODEL 918
MODEL 1
REMARK VINA RESULT:    -7.643      0.000      0.000
REMARK INTER + INTRA:         -10.295
REMARK INTER:                 -10.323
REMARK INTRA:                   0.029
REMARK UNBOUND:                 0.029
REMARK  Name = No_918-gen_results/8p0m/2024-11-26-14-13-15/
REMARK  6 active torsions:
REMARK  status: ('A' for Active; 'I' for Inactive)
REMARK    1  A    between atoms: C_1  and  C_2
REMARK    2  A    between atoms: C_1  and  N_8
REMARK    3  A    between atoms: C_5  and  C_13
REMARK    4  A    between atoms: N_8  and  C_9
REMARK    5  A    between atoms: N_8  and  C_19
REMARK    6  A    between atoms: C_9  and  C_12
REMARK                            x       y       z     vdW  Elec       q    Type
REMARK                         _______ _______ _______ _____ _____    ______ ____
ROOT
ATOM      1  N   UNL A   1     -23.636  -1.385  29.854  0.00  0.00    -0.248 N 
ENDROOT
BRANCH   1   2
ATOM      2  C   UNL A   1     -24.415  -2.596  30.043  0.00  0.00    +0.095 A 
ATOM      3  C   UNL A   1     -24.073  -3.719  29.373  0.00  0.00    +0.018 A 
ATOM      4  C   UNL A   1     -24.808  -4.615  29.116  0.00  0.00    +0.005 A 
ATOM      5  C   UNL A   1     -26.071  -4.617  29.285  0.00  0.00    +0.045 A 
ATOM      6  C   UNL A   1     -26.567  -3.512  30.067  0.00  0.00    +0.235 A 
ATOM      7  C   UNL A   1     -25.821  -2.317  29.991  0.00  0.00    +0.247 A 
ATOM      8  O   UNL A   1     -26.334  -1.422  30.855  0.00  0.00    -0.282 OA
ATOM      9  O   UNL A   1     -28.013  -3.336  29.886  0.00  0.00    -0.283 OA
ENDBRANCH   1   2
BRANCH   1  10
ATOM     10  C   UNL A   1     -23.138  -0.755  30.995  0.00  0.00    +0.408 C 
ATOM     11  F   UNL A   1     -21.985  -0.474  30.852  0.00  0.00    -0.176 F 
ATOM     12  O   UNL A   1     -23.311  -1.504  32.164  0.00  0.00    -0.160 OA
BRANCH  10  13
ATOM     13  C   UNL A   1     -23.960   0.626  31.149  0.00  0.00    +0.471 C 
ATOM     14  F   UNL A   1     -23.227   1.589  30.931  0.00  0.00    -0.164 F 
ATOM     15  F   UNL A   1     -24.387   0.690  32.436  0.00  0.00    -0.164 F 
ATOM     16  F   UNL A   1     -25.021   0.587  30.360  0.00  0.00    -0.164 F 
ENDBRANCH  10  13
ENDBRANCH   1  10
BRANCH   1  17
ATOM     17  C   UNL A   1     -23.170  -1.125  28.704  0.00  0.00    +0.122 C 
BRANCH  17  18
ATOM     18  C   UNL A   1     -23.432  -0.079  28.156  0.00  0.00    -0.002 A 
ATOM     19  C   UNL A   1     -22.530   0.911  27.940  0.00  0.00    -0.003 A 
ATOM     20  C   UNL A   1     -22.834   2.195  27.269  0.00  0.00    +0.001 A 
ATOM     21  C   UNL A   1     -24.177   2.380  26.801  0.00  0.00    +0.044 A 
ATOM     22  C   UNL A   1     -24.872   1.538  26.746  0.00  0.00    +0.001 A 
ATOM     23  C   UNL A   1     -24.703   0.173  27.493  0.00  0.00    -0.003 A 
BRANCH  21  24
ATOM     24  C   UNL A   1     -24.403   3.670  26.006  0.00  0.00    +0.341 C 
ATOM     25  F   UNL A   1     -23.671   3.921  25.140  0.00  0.00    -0.193 F 
ATOM     26  F   UNL A   1     -25.081   4.656  26.487  0.00  0.00    -0.193 F 
ENDBRANCH  21  24
ENDBRANCH  17  18
ENDBRANCH   1  17
TORSDOF 6
ENDMDL
ENDMDL
