MODEL 919
MODEL 1
REMARK VINA RESULT:    -4.359      0.000      0.000
REMARK INTER + INTRA:          -4.359
REMARK INTER:                  -4.359
REMARK INTRA:                   0.000
REMARK UNBOUND:                 0.000
REMARK  Name = No_919-gen_results/8p0m/2024-11-26-14-13-15/
REMARK  0 active torsions:
REMARK  status: ('A' for Active; 'I' for Inactive)
REMARK                            x       y       z     vdW  Elec       q    Type
REMARK                         _______ _______ _______ _____ _____    ______ ____
ROOT
ATOM      1  C   UNL A   1     -24.908  -5.431  28.997  0.00  0.00    +0.000 A 
ATOM      2  C   UNL A   1     -24.198  -4.754  28.611  0.00  0.00    +0.000 A 
ATOM      3  C   UNL A   1     -26.079  -4.774  29.590  0.00  0.00    +0.000 A 
ATOM      4  C   UNL A   1     -26.140  -3.456  29.783  0.00  0.00    +0.000 A 
ATOM      5  C   UNL A   1     -24.039  -3.324  28.715  0.00  0.00    +0.000 A 
ATOM      6  C   UNL A   1     -25.125  -2.735  29.291  0.00  0.00    +0.000 A 
ENDROOT
TORSDOF 0
ENDMDL
ENDMDL
