MODEL 91
MODEL 1
REMARK VINA RESULT:    -8.835      0.000      0.000
REMARK INTER + INTRA:         -13.491
REMARK INTER:                 -11.418
REMARK INTRA:                  -2.074
REMARK UNBOUND:                -2.074
REMARK  Name = No_91-gen_results/8p0m/2024-11-26-14-13-15/
REMARK  5 active torsions:
REMARK  status: ('A' for Active; 'I' for Inactive)
REMARK    1  A    between atoms: C_3  and  C_7
REMARK    2  A    between atoms: C_4  and  C_18
REMARK    3  A    between atoms: C_7  and  C_8
REMARK    4  A    between atoms: C_18  and  C_19
REMARK    5  A    between atoms: C_19  and  C_21
REMARK                            x       y       z     vdW  Elec       q    Type
REMARK                         _______ _______ _______ _____ _____    ______ ____
ROOT
ATOM      1  C   UNL A   1     -23.412   2.028  27.090  0.00  0.00    -0.004 A 
ATOM      2  C   UNL A   1     -22.391   2.243  26.942  0.00  0.00    -0.000 A 
ATOM      3  C   UNL A   1     -23.710   0.992  28.038  0.00  0.00    -0.022 A 
ATOM      4  C   UNL A   1     -22.771   0.216  28.589  0.00  0.00    -0.026 A 
ATOM      5  C   UNL A   1     -21.474   0.521  28.282  0.00  0.00    -0.005 A 
ATOM      6  C   UNL A   1     -21.212   1.560  27.429  0.00  0.00    -0.000 A 
ENDROOT
BRANCH   4   7
ATOM      7  C   UNL A   1     -23.062  -0.889  29.448  0.00  0.00    +0.026 C 
ATOM      8  C   UNL A   1     -22.917  -0.721  30.836  0.00  0.00    +0.005 C 
BRANCH   7   9
ATOM      9  C   UNL A   1     -23.357  -2.092  28.895  0.00  0.00    +0.031 C 
BRANCH   9  10
ATOM     10  C   UNL A   1     -24.366  -2.904  29.225  0.00  0.00    -0.022 A 
ATOM     11  C   UNL A   1     -25.603  -2.550  29.650  0.00  0.00    -0.004 A 
ATOM     12  C   UNL A   1     -26.612  -3.591  29.897  0.00  0.00    -0.000 A 
ATOM     13  C   UNL A   1     -26.256  -4.827  29.597  0.00  0.00    -0.000 A 
ATOM     14  C   UNL A   1     -25.068  -5.286  29.083  0.00  0.00    -0.000 A 
ATOM     15  C   UNL A   1     -24.122  -4.304  28.899  0.00  0.00    -0.004 A 
ENDBRANCH   9  10
ENDBRANCH   7   9
ENDBRANCH   4   7
BRANCH   3  16
ATOM     16  C   UNL A   1     -25.192   0.727  28.353  0.00  0.00    +0.052 C 
BRANCH  16  17
ATOM     17  C   UNL A   1     -25.977   0.736  27.281  0.00  0.00    -0.018 A 
ATOM     18  C   UNL A   1     -27.344   0.622  27.234  0.00  0.00    -0.004 A 
ATOM     19  C   UNL A   1     -28.071   0.662  26.027  0.00  0.00    -0.000 A 
ATOM     20  C   UNL A   1     -29.524   0.580  26.014  0.00  0.00    -0.000 A 
ATOM     21  C   UNL A   1     -30.200   0.327  24.811  0.00  0.00    -0.000 A 
ATOM     22  C   UNL A   1     -29.472  -0.065  23.671  0.00  0.00    -0.000 A 
ATOM     23  C   UNL A   1     -28.076  -0.299  23.791  0.00  0.00    -0.000 A 
ATOM     24  C   UNL A   1     -27.439  -0.001  24.968  0.00  0.00    -0.000 A 
ATOM     25  C   UNL A   1     -26.025  -0.224  25.027  0.00  0.00    -0.000 A 
ATOM     26  C   UNL A   1     -25.383  -0.380  26.187  0.00  0.00    -0.004 A 
ENDBRANCH  16  17
ENDBRANCH   3  16
TORSDOF 5
ENDMDL
ENDMDL
