REMARK  Name = No_92-gen_results/8p0m/2024-11-26-14-13-15/
REMARK  5 active torsions:
REMARK  status: ('A' for Active; 'I' for Inactive)
REMARK    1  A    between atoms: C_3  and  C_7
REMARK    2  A    between atoms: C_6  and  C_13
REMARK    3  A    between atoms: N_14  and  C_16
REMARK    4  A    between atoms: C_16  and  C_17
REMARK    5  A    between atoms: C_21  and  C_23
REMARK                            x       y       z     vdW  Elec       q    Type
REMARK                         _______ _______ _______ _____ _____    ______ ____
ROOT
ATOM      1  C   UNL A   1     -29.021  -2.783  30.183  0.00  0.00    +0.267 C 
ATOM      2  N   UNL A   1     -30.163  -2.328  30.192  0.00  0.00    -0.169 NA
ATOM      3  O   UNL A   1     -28.804  -3.974  30.605  0.00  0.00    -0.268 OA
ENDROOT
BRANCH   1   9
ATOM      4  C   UNL A   1     -28.016  -0.814  28.878  0.00  0.00    +0.005 A 
ATOM      5  C   UNL A   1     -27.064  -0.119  28.608  0.00  0.00    +0.000 A 
ATOM      6  C   UNL A   1     -25.765  -0.390  29.036  0.00  0.00    +0.000 A 
ATOM      7  C   UNL A   1     -25.530  -1.530  29.901  0.00  0.00    +0.000 A 
ATOM      8  C   UNL A   1     -26.658  -2.292  30.203  0.00  0.00    +0.005 A 
ATOM      9  C   UNL A   1     -27.855  -1.956  29.763  0.00  0.00    +0.055 A 
BRANCH   6  10
ATOM     10  C   UNL A   1     -24.544   0.413  28.738  0.00  0.00    +0.000 A 
ATOM     11  C   UNL A   1     -23.323   0.048  29.050  0.00  0.00    +0.000 A 
ATOM     12  C   UNL A   1     -22.200   0.841  28.719  0.00  0.00    +0.000 A 
ATOM     13  C   UNL A   1     -22.363   1.839  27.717  0.00  0.00    +0.000 A 
ATOM     14  C   UNL A   1     -24.604   1.516  27.812  0.00  0.00    +0.000 A 
ATOM     15  C   UNL A   1     -23.558   2.190  27.359  0.00  0.00    +0.000 A 
ENDBRANCH   6  10
ENDBRANCH   1   9
BRANCH   2  16
ATOM     16  C   UNL A   1     -31.367  -3.104  30.569  0.00  0.00    +0.230 C 
ATOM     17  F   UNL A   1     -30.951  -3.949  31.453  0.00  0.00    -0.213 F 
ATOM     18  C   UNL A   1     -31.675  -4.024  29.324  0.00  0.00    +0.063 C 
BRANCH  16  19
ATOM     19  C   UNL A   1     -32.389  -2.512  30.829  0.00  0.00    +0.026 A 
ATOM     20  C   UNL A   1     -33.166  -2.804  31.738  0.00  0.00    -0.000 A 
ATOM     21  C   UNL A   1     -34.318  -2.018  32.210  0.00  0.00    -0.000 A 
ATOM     22  C   UNL A   1     -34.629  -0.902  31.433  0.00  0.00    -0.000 A 
ATOM     23  C   UNL A   1     -33.851  -0.542  30.385  0.00  0.00    -0.000 A 
ATOM     24  C   UNL A   1     -32.691  -1.232  30.104  0.00  0.00    -0.000 A 
BRANCH  23  25
ATOM     25  C   UNL A   1     -34.116   0.730  29.629  0.00  0.00    -0.000 A 
ATOM     26  C   UNL A   1     -34.541   1.748  30.138  0.00  0.00    -0.000 A 
ATOM     27  C   UNL A   1     -33.771   0.621  28.206  0.00  0.00    -0.000 A 
ATOM     28  C   UNL A   1     -34.836   2.908  29.332  0.00  0.00    -0.000 A 
ATOM     29  C   UNL A   1     -34.066   1.792  27.445  0.00  0.00    -0.000 A 
ATOM     30  C   UNL A   1     -34.559   2.890  28.014  0.00  0.00    +0.000 A 
ENDBRANCH  23  25
ENDBRANCH  16  19
ENDBRANCH   2  16
TORSDOF 5
