MODEL 920
MODEL 1
REMARK VINA RESULT:    -4.465      0.000      0.000
REMARK INTER + INTRA:          -4.465
REMARK INTER:                  -4.465
REMARK INTRA:                   0.000
REMARK UNBOUND:                 0.000
REMARK  Name = No_920-gen_results/8p0m/2024-11-26-14-13-15/
REMARK  0 active torsions:
REMARK  status: ('A' for Active; 'I' for Inactive)
REMARK                            x       y       z     vdW  Elec       q    Type
REMARK                         _______ _______ _______ _____ _____    ______ ____
ROOT
ATOM      1  C   UNL A   1      -9.203  -9.231  19.991  0.00  0.00    +0.011 A 
ATOM      2  C   UNL A   1      -8.345  -9.782  19.727  0.00  0.00    +0.058 A 
ATOM      3  C   UNL A   1     -10.328  -9.268  19.043  0.00  0.00    +0.001 A 
ATOM      4  C   UNL A   1     -10.289 -10.126  17.905  0.00  0.00    +0.000 A 
ATOM      5  C   UNL A   1      -8.072 -10.779  18.656  0.00  0.00    +0.011 A 
ATOM      6  C   UNL A   1      -9.090 -10.835  17.750  0.00  0.00    +0.001 A 
ATOM      7 CL   UNL A   1      -6.953  -9.759  20.890  0.00  0.00    -0.082 Cl
ENDROOT
TORSDOF 0
ENDMDL
ENDMDL
