REMARK  Name = No_921-gen_results/8p0m/2024-11-26-14-13-15/
REMARK  2 active torsions:
REMARK  status: ('A' for Active; 'I' for Inactive)
REMARK    1  A    between atoms: C_2  and  C_3
REMARK    2  A    between atoms: C_6  and  C_13
REMARK                            x       y       z     vdW  Elec       q    Type
REMARK                         _______ _______ _______ _____ _____    ______ ____
ROOT
ATOM      1  C   UNL A   1     -28.016  -0.814  28.878  0.00  0.00    +0.000 A 
ATOM      2  C   UNL A   1     -27.064  -0.119  28.608  0.00  0.00    +0.000 A 
ATOM      3  C   UNL A   1     -29.297  -0.184  28.940  0.00  0.00    +0.007 A 
ATOM      4  C   UNL A   1     -29.565   0.800  28.035  0.00  0.00    +0.080 A 
ATOM      5  C   UNL A   1     -28.470   1.441  27.424  0.00  0.00    +0.007 A 
ATOM      6  C   UNL A   1     -27.137   1.079  27.797  0.00  0.00    +0.000 A 
ENDROOT
BRANCH   2   7
ATOM      7  C   UNL A   1     -25.792  -0.430  29.076  0.00  0.00    +0.000 A 
ATOM      8  C   UNL A   1     -25.270  -0.049  30.012  0.00  0.00    +0.000 A 
ATOM      9  C   UNL A   1     -24.079  -0.048  30.467  0.00  0.00    +0.000 A 
ATOM     10  C   UNL A   1     -23.071  -0.796  29.722  0.00  0.00    +0.000 A 
ATOM     11  C   UNL A   1     -23.515  -1.274  28.555  0.00  0.00    +0.000 A 
ATOM     12  C   UNL A   1     -24.814  -1.125  28.133  0.00  0.00    +0.000 A 
ENDBRANCH   2   7
BRANCH   4  13
ATOM     13  C   UNL A   1     -30.904   1.298  27.786  0.00  0.00    +0.388 C 
ATOM     14  O   UNL A   1     -31.312   1.745  26.828  0.00  0.00    -0.241 OA
ATOM     15  O   UNL A   1     -31.687   1.450  28.874  0.00  0.00    -0.241 OA
ENDBRANCH   4  13
TORSDOF 2
