MODEL 921
MODEL 1
REMARK VINA RESULT:    -6.940      0.000      0.000
REMARK INTER + INTRA:          -8.260
REMARK INTER:                  -7.752
REMARK INTRA:                  -0.508
REMARK UNBOUND:                -0.508
REMARK  Name = No_921-gen_results/8p0m/2024-11-26-14-13-15/
REMARK  2 active torsions:
REMARK  status: ('A' for Active; 'I' for Inactive)
REMARK    1  A    between atoms: C_2  and  C_3
REMARK    2  A    between atoms: C_6  and  C_13
REMARK                            x       y       z     vdW  Elec       q    Type
REMARK                         _______ _______ _______ _____ _____    ______ ____
ROOT
ATOM      1  C   UNL A   1     -23.216  -1.046  29.210  0.00  0.00    +0.000 A 
ATOM      2  C   UNL A   1     -24.178  -1.594  28.723  0.00  0.00    +0.000 A 
ATOM      3  C   UNL A   1     -22.641   0.043  28.486  0.00  0.00    +0.007 A 
ATOM      4  C   UNL A   1     -23.487   0.885  27.827  0.00  0.00    +0.080 A 
ATOM      5  C   UNL A   1     -24.773   0.404  27.513  0.00  0.00    +0.007 A 
ATOM      6  C   UNL A   1     -25.130  -0.940  27.849  0.00  0.00    +0.000 A 
ENDROOT
BRANCH   2   7
ATOM      7  C   UNL A   1     -24.444  -2.936  28.975  0.00  0.00    +0.000 A 
ATOM      8  C   UNL A   1     -23.882  -3.851  28.599  0.00  0.00    +0.000 A 
ATOM      9  C   UNL A   1     -24.098  -5.106  28.544  0.00  0.00    +0.000 A 
ATOM     10  C   UNL A   1     -25.298  -5.614  29.202  0.00  0.00    +0.000 A 
ATOM     11  C   UNL A   1     -26.104  -4.651  29.660  0.00  0.00    +0.000 A 
ATOM     12  C   UNL A   1     -25.795  -3.315  29.574  0.00  0.00    +0.000 A 
ENDBRANCH   2   7
BRANCH   4  13
ATOM     13  C   UNL A   1     -23.074   2.180  27.322  0.00  0.00    +0.388 C 
ATOM     14  O   UNL A   1     -23.504   3.196  27.583  0.00  0.00    -0.241 OA
ATOM     15  O   UNL A   1     -22.238   2.161  26.264  0.00  0.00    -0.241 OA
ENDBRANCH   4  13
TORSDOF 2
ENDMDL
ENDMDL
