MODEL 922
MODEL 1
REMARK VINA RESULT:    -4.582      0.000      0.000
REMARK INTER + INTRA:          -4.582
REMARK INTER:                  -4.582
REMARK INTRA:                   0.000
REMARK UNBOUND:                 0.000
REMARK  Name = No_922-gen_results/8p0m/2024-11-26-14-13-15/
REMARK  0 active torsions:
REMARK  status: ('A' for Active; 'I' for Inactive)
REMARK                            x       y       z     vdW  Elec       q    Type
REMARK                         _______ _______ _______ _____ _____    ______ ____
ROOT
ATOM      1  C   UNL A   1     -10.178  -9.749  18.330  0.00  0.00    +0.030 A 
ATOM      2  C   UNL A   1      -9.208 -10.389  17.993  0.00  0.00    +0.140 A 
ATOM      3  C   UNL A   1      -8.079 -10.503  18.737  0.00  0.00    +0.030 A 
ATOM      4  C   UNL A   1      -8.025  -9.837  19.977  0.00  0.00    +0.002 A 
ATOM      5  C   UNL A   1     -10.229  -9.122  19.626  0.00  0.00    +0.002 A 
ATOM      6  C   UNL A   1      -9.109  -9.182  20.399  0.00  0.00    +0.000 A 
ATOM      7  F   UNL A   1      -9.186 -11.058  16.811  0.00  0.00    -0.204 F 
ENDROOT
TORSDOF 0
ENDMDL
ENDMDL
