MODEL 923
MODEL 1
REMARK VINA RESULT:    -5.202      0.000      0.000
REMARK INTER + INTRA:          -5.548
REMARK INTER:                  -5.506
REMARK INTRA:                  -0.041
REMARK UNBOUND:                -0.041
REMARK  Name = No_923-gen_results/8p0m/2024-11-26-14-13-15/
REMARK  1 active torsions:
REMARK  status: ('A' for Active; 'I' for Inactive)
REMARK    1  A    between atoms: C_2  and  C_8
REMARK                            x       y       z     vdW  Elec       q    Type
REMARK                         _______ _______ _______ _____ _____    ______ ____
ROOT
ATOM      1  C   UNL A   1     -28.914 -10.526  32.776  0.00  0.00    +0.007 A 
ATOM      2  C   UNL A   1     -28.190 -11.258  32.553  0.00  0.00    +0.080 A 
ATOM      3  C   UNL A   1     -29.745 -10.055  31.603  0.00  0.00    +0.012 A 
ATOM      4  C   UNL A   1     -29.609 -10.701  30.356  0.00  0.00    +0.058 A 
ATOM      5  C   UNL A   1     -27.873 -12.101  31.379  0.00  0.00    +0.007 A 
ATOM      6  C   UNL A   1     -28.622 -11.702  30.281  0.00  0.00    +0.012 A 
ATOM      7 CL   UNL A   1     -30.464 -10.219  29.033  0.00  0.00    -0.082 Cl
ENDROOT
BRANCH   2   8
ATOM      8  C   UNL A   1     -27.293 -11.787  33.808  0.00  0.00    +0.388 C 
ATOM      9  O   UNL A   1     -26.742 -12.744  33.887  0.00  0.00    -0.241 OA
ATOM     10  O   UNL A   1     -27.040 -10.832  34.680  0.00  0.00    -0.241 OA
ENDBRANCH   2   8
TORSDOF 1
ENDMDL
ENDMDL
