MODEL 924
MODEL 1
REMARK VINA RESULT:    -5.538      0.000      0.000
REMARK INTER + INTRA:          -6.154
REMARK INTER:                  -5.861
REMARK INTRA:                  -0.292
REMARK UNBOUND:                -0.292
REMARK  Name = No_924-gen_results/8p0m/2024-11-26-14-13-15/
REMARK  1 active torsions:
REMARK  status: ('A' for Active; 'I' for Inactive)
REMARK    1  A    between atoms: C_1  and  C_11
REMARK                            x       y       z     vdW  Elec       q    Type
REMARK                         _______ _______ _______ _____ _____    ______ ____
ROOT
ATOM      1  C   UNL A   1     -24.614   0.724  26.358  0.00  0.00    +0.018 A 
ATOM      2  C   UNL A   1     -23.776   1.562  26.118  0.00  0.00    -0.001 A 
ATOM      3  C   UNL A   1     -22.727   1.859  26.966  0.00  0.00    +0.001 A 
ATOM      4  C   UNL A   1     -22.609   1.109  28.169  0.00  0.00    +0.014 A 
ATOM      5  C   UNL A   1     -23.468   0.072  28.311  0.00  0.00    +0.044 A 
ATOM      6  C   UNL A   1     -24.417  -0.164  27.426  0.00  0.00    -0.009 A 
ATOM      7  N   UNL A   1     -23.321  -0.677  29.473  0.00  0.00    -0.306 N 
ATOM      8  C   UNL A   1     -24.089  -1.682  29.664  0.00  0.00    +0.091 C 
ATOM      9  C   UNL A   1     -24.944  -2.112  28.674  0.00  0.00    +0.026 C 
ATOM     10  C   UNL A   1     -25.199  -1.324  27.603  0.00  0.00    +0.029 C 
ATOM     11  C   UNL A   1     -22.301  -0.338  30.472  0.00  0.00    +0.112 C 
ENDROOT
BRANCH   1  12
ATOM     12  C   UNL A   1     -25.701   0.489  25.307  0.00  0.00    +0.239 C 
ATOM     13 BR   UNL A   1     -26.613   1.134  25.161  0.00  0.00    -0.038 Br
ATOM     14  F   UNL A   1     -25.045  -0.276  24.370  0.00  0.00    -0.220 F 
ENDBRANCH   1  12
TORSDOF 1
ENDMDL
ENDMDL
