REMARK  Name = No_925-gen_results/8p0m/2024-11-26-14-13-15/
REMARK  0 active torsions:
REMARK  status: ('A' for Active; 'I' for Inactive)
REMARK                            x       y       z     vdW  Elec       q    Type
REMARK                         _______ _______ _______ _____ _____    ______ ____
ROOT
ATOM      1  O   UNL A   1     -28.123  -1.335  28.487  0.00  0.00    -0.273 OA
ATOM      2  C   UNL A   1     -27.481  -0.404  28.709  0.00  0.00    +0.243 C 
ATOM      3  C   UNL A   1     -27.190   0.246  29.527  0.00  0.00    +0.078 C 
ATOM      4  N   UNL A   1     -26.602  -0.158  27.552  0.00  0.00    -0.173 NA
ATOM      5  C   UNL A   1     -25.642   0.903  27.582  0.00  0.00    +0.256 C 
ATOM      6  C   UNL A   1     -25.500   1.614  28.737  0.00  0.00    +0.059 C 
ATOM      7  C   UNL A   1     -26.255   1.316  29.813  0.00  0.00    +0.014 C 
ATOM      8  C   UNL A   1     -27.976  -0.206  30.817  0.00  0.00    +0.010 C 
ATOM      9  F   UNL A   1     -24.948   1.116  26.479  0.00  0.00    -0.213 F 
ENDROOT
TORSDOF 0
