MODEL 925
MODEL 1
REMARK VINA RESULT:    -4.614      0.000      0.000
REMARK INTER + INTRA:          -4.614
REMARK INTER:                  -4.614
REMARK INTRA:                   0.000
REMARK UNBOUND:                 0.000
REMARK  Name = No_925-gen_results/8p0m/2024-11-26-14-13-15/
REMARK  0 active torsions:
REMARK  status: ('A' for Active; 'I' for Inactive)
REMARK                            x       y       z     vdW  Elec       q    Type
REMARK                         _______ _______ _______ _____ _____    ______ ____
ROOT
ATOM      1  O   UNL A   1     -27.158  -2.155  30.396  0.00  0.00    -0.273 OA
ATOM      2  C   UNL A   1     -26.410  -2.968  30.069  0.00  0.00    +0.243 C 
ATOM      3  C   UNL A   1     -26.360  -4.027  29.838  0.00  0.00    +0.078 C 
ATOM      4  N   UNL A   1     -25.179  -2.306  29.600  0.00  0.00    -0.173 NA
ATOM      5  C   UNL A   1     -24.098  -3.078  29.067  0.00  0.00    +0.256 C 
ATOM      6  C   UNL A   1     -24.274  -4.422  28.919  0.00  0.00    +0.059 C 
ATOM      7  C   UNL A   1     -25.441  -4.995  29.274  0.00  0.00    +0.014 C 
ATOM      8  C   UNL A   1     -27.775  -4.659  30.124  0.00  0.00    +0.010 C 
ATOM      9  F   UNL A   1     -22.996  -2.425  28.745  0.00  0.00    -0.213 F 
ENDROOT
TORSDOF 0
ENDMDL
ENDMDL
