MODEL 926
MODEL 1
REMARK VINA RESULT:    -5.020      0.000      0.000
REMARK INTER + INTRA:          -5.020
REMARK INTER:                  -5.020
REMARK INTRA:                   0.000
REMARK UNBOUND:                 0.000
REMARK  Name = No_926-gen_results/8p0m/2024-11-26-14-13-15/
REMARK  0 active torsions:
REMARK  status: ('A' for Active; 'I' for Inactive)
REMARK                            x       y       z     vdW  Elec       q    Type
REMARK                         _______ _______ _______ _____ _____    ______ ____
ROOT
ATOM      1  C   UNL A   1     -10.489  -9.311  19.209  0.00  0.00    +0.042 A 
ATOM      2  C   UNL A   1      -9.743  -9.128  20.143  0.00  0.00    +0.003 A 
ATOM      3  C   UNL A   1      -8.443  -9.620  20.132  0.00  0.00    +0.000 A 
ATOM      4  C   UNL A   1      -7.957 -10.404  19.026  0.00  0.00    +0.003 A 
ATOM      5  C   UNL A   1      -8.892 -10.588  17.999  0.00  0.00    +0.042 A 
ATOM      6  C   UNL A   1     -10.116 -10.116  18.066  0.00  0.00    +0.196 A 
ATOM      7  O   UNL A   1     -10.976 -10.373  17.042  0.00  0.00    -0.287 OA
ENDROOT
TORSDOF 0
ENDMDL
ENDMDL
