MODEL 927
MODEL 1
REMARK VINA RESULT:    -3.328      0.000      0.000
REMARK INTER + INTRA:          -3.328
REMARK INTER:                  -3.328
REMARK INTRA:                   0.000
REMARK UNBOUND:                 0.000
REMARK  Name = No_927-gen_results/8p0m/2024-11-26-14-13-15/
REMARK  0 active torsions:
REMARK  status: ('A' for Active; 'I' for Inactive)
REMARK                            x       y       z     vdW  Elec       q    Type
REMARK                         _______ _______ _______ _____ _____    ______ ____
ROOT
ATOM      1  P   UNL A   1      -9.759  -9.864  18.026  0.00  0.00    +0.559 P 
ATOM      2  O   UNL A   1      -9.195 -10.731  18.496  0.00  0.00    -0.220 OA
ATOM      3  O   UNL A   1      -8.725  -8.921  17.337  0.00  0.00    -0.113 OA
ATOM      4  O   UNL A   1     -10.568  -9.017  18.985  0.00  0.00    -0.113 OA
ATOM      5  O   UNL A   1     -10.777 -10.315  16.847  0.00  0.00    -0.113 OA
ENDROOT
TORSDOF 0
ENDMDL
ENDMDL
