REMARK  Name = No_928-gen_results/8p0m/2024-11-26-14-13-15/
REMARK  7 active torsions:
REMARK  status: ('A' for Active; 'I' for Inactive)
REMARK    1  A    between atoms: C_3  and  C_8
REMARK    2  A    between atoms: C_6  and  O_7
REMARK    3  A    between atoms: O_7  and  C_14
REMARK    4  A    between atoms: C_15  and  C_16
REMARK    5  A    between atoms: C_15  and  N_19
REMARK    6  A    between atoms: N_19  and  C_20
REMARK    7  A    between atoms: N_19  and  C_26
REMARK                            x       y       z     vdW  Elec       q    Type
REMARK                         _______ _______ _______ _____ _____    ______ ____
ROOT
ATOM      1  C   UNL A   1     -30.126  -2.134  30.584  0.00  0.00    +0.196 C 
ATOM      2  C   UNL A   1     -31.195  -2.717  30.135  0.00  0.00    +0.139 C 
ENDROOT
BRANCH   2   3
ATOM      3  C   UNL A   1     -31.182  -3.986  29.679  0.00  0.00    +0.358 C 
ATOM      4  F   UNL A   1     -29.984  -4.346  29.506  0.00  0.00    -0.192 F 
ATOM      5  F   UNL A   1     -32.082  -4.517  28.903  0.00  0.00    -0.192 F 
ENDBRANCH   2   3
BRANCH   1   6
ATOM      6  O   UNL A   1     -29.000  -2.701  30.115  0.00  0.00    -0.449 OA
BRANCH   6  12
ATOM      7  C   UNL A   1     -28.016  -0.814  28.878  0.00  0.00    +0.037 A 
ATOM      8  C   UNL A   1     -27.064  -0.119  28.608  0.00  0.00    +0.003 A 
ATOM      9  C   UNL A   1     -25.792  -0.430  29.076  0.00  0.00    +0.000 A 
ATOM     10  C   UNL A   1     -25.576  -1.565  29.936  0.00  0.00    +0.003 A 
ATOM     11  C   UNL A   1     -26.735  -2.300  30.217  0.00  0.00    +0.037 A 
ATOM     12  C   UNL A   1     -27.918  -1.954  29.763  0.00  0.00    +0.145 A 
BRANCH   9  13
ATOM     13  C   UNL A   1     -24.529   0.349  28.800  0.00  0.00    +0.000 A 
ATOM     14  C   UNL A   1     -23.344   0.006  29.166  0.00  0.00    +0.000 A 
ATOM     15  C   UNL A   1     -22.178   0.781  28.778  0.00  0.00    +0.000 A 
ATOM     16  C   UNL A   1     -22.322   1.750  27.773  0.00  0.00    +0.000 A 
ATOM     17  C   UNL A   1     -24.610   1.356  27.748  0.00  0.00    +0.000 A 
ATOM     18  C   UNL A   1     -23.515   2.034  27.307  0.00  0.00    +0.000 A 
ENDBRANCH   9  13
ENDBRANCH   6  12
ENDBRANCH   1   6
BRANCH   2  19
ATOM     19  N   UNL A   1     -32.061  -1.878  29.206  0.00  0.00    -0.246 N 
BRANCH  19  20
ATOM     20  C   UNL A   1     -32.087  -1.908  27.977  0.00  0.00    +0.139 A 
ATOM     21  C   UNL A   1     -32.720  -0.806  27.245  0.00  0.00    +0.035 A 
ATOM     22  C   UNL A   1     -32.398  -0.541  26.021  0.00  0.00    +0.004 A 
ATOM     23  C   UNL A   1     -31.617  -1.448  25.245  0.00  0.00    +0.021 A 
ATOM     24  C   UNL A   1     -31.269  -2.659  25.808  0.00  0.00    +0.100 A 
ATOM     25  N   UNL A   1     -31.369  -2.733  27.175  0.00  0.00    -0.229 NA
ENDBRANCH  19  20
BRANCH  19  26
ATOM     26  C   UNL A   1     -33.004  -0.877  29.914  0.00  0.00    +0.066 C 
ATOM     27  C   UNL A   1     -34.280  -1.227  30.143  0.00  0.00    -0.009 C 
ATOM     28  C   UNL A   1     -35.112  -0.310  30.667  0.00  0.00    +0.032 C 
ENDBRANCH  19  26
ENDBRANCH   2  19
TORSDOF 7
