MODEL 928
MODEL 1
REMARK VINA RESULT:    -7.747      0.000      0.000
REMARK INTER + INTRA:         -11.848
REMARK INTER:                 -10.917
REMARK INTRA:                  -0.931
REMARK UNBOUND:                -0.931
REMARK  Name = No_928-gen_results/8p0m/2024-11-26-14-13-15/
REMARK  7 active torsions:
REMARK  status: ('A' for Active; 'I' for Inactive)
REMARK    1  A    between atoms: C_3  and  C_8
REMARK    2  A    between atoms: C_6  and  O_7
REMARK    3  A    between atoms: O_7  and  C_14
REMARK    4  A    between atoms: C_15  and  C_16
REMARK    5  A    between atoms: C_15  and  N_19
REMARK    6  A    between atoms: N_19  and  C_20
REMARK    7  A    between atoms: N_19  and  C_26
REMARK                            x       y       z     vdW  Elec       q    Type
REMARK                         _______ _______ _______ _____ _____    ______ ____
ROOT
ATOM      1  C   UNL A   1     -23.391   1.369  28.948  0.00  0.00    +0.196 C 
ATOM      2  C   UNL A   1     -22.690   0.352  29.346  0.00  0.00    +0.139 C 
ENDROOT
BRANCH   2   3
ATOM      3  C   UNL A   1     -21.647  -0.122  28.636  0.00  0.00    +0.358 C 
ATOM      4  F   UNL A   1     -21.074  -1.028  29.304  0.00  0.00    -0.192 F 
ATOM      5  F   UNL A   1     -20.907   0.577  27.824  0.00  0.00    -0.192 F 
ENDBRANCH   2   3
BRANCH   1   6
ATOM      6  O   UNL A   1     -23.297   1.565  27.621  0.00  0.00    -0.449 OA
BRANCH   6  12
ATOM      7  C   UNL A   1     -24.695   0.140  26.180  0.00  0.00    +0.037 A 
ATOM      8  C   UNL A   1     -25.678  -0.013  25.493  0.00  0.00    +0.003 A 
ATOM      9  C   UNL A   1     -26.517   1.055  25.191  0.00  0.00    +0.000 A 
ATOM     10  C   UNL A   1     -26.266   2.368  25.726  0.00  0.00    +0.003 A 
ATOM     11  C   UNL A   1     -25.122   2.451  26.530  0.00  0.00    +0.037 A 
ATOM     12  C   UNL A   1     -24.371   1.407  26.799  0.00  0.00    +0.145 A 
BRANCH   9  13
ATOM     13  C   UNL A   1     -27.761   0.994  24.339  0.00  0.00    +0.000 A 
ATOM     14  C   UNL A   1     -28.459  -0.063  24.111  0.00  0.00    +0.000 A 
ATOM     15  C   UNL A   1     -29.693  -0.004  23.345  0.00  0.00    +0.000 A 
ATOM     16  C   UNL A   1     -30.263   1.253  23.090  0.00  0.00    +0.000 A 
ATOM     17  C   UNL A   1     -28.414   2.268  24.059  0.00  0.00    +0.000 A 
ATOM     18  C   UNL A   1     -29.613   2.343  23.419  0.00  0.00    +0.000 A 
ENDBRANCH   9  13
ENDBRANCH   6  12
ENDBRANCH   1   6
BRANCH   2  19
ATOM     19  N   UNL A   1     -23.488  -0.829  29.880  0.00  0.00    -0.246 N 
BRANCH  19  20
ATOM     20  C   UNL A   1     -24.042  -0.925  30.974  0.00  0.00    +0.139 A 
ATOM     21  C   UNL A   1     -23.243  -1.265  32.156  0.00  0.00    +0.035 A 
ATOM     22  C   UNL A   1     -23.635  -0.945  33.346  0.00  0.00    +0.004 A 
ATOM     23  C   UNL A   1     -24.963  -0.485  33.592  0.00  0.00    +0.021 A 
ATOM     24  C   UNL A   1     -25.852  -0.457  32.537  0.00  0.00    +0.100 A 
ATOM     25  N   UNL A   1     -25.294  -0.504  31.284  0.00  0.00    -0.229 NA
ENDBRANCH  19  20
BRANCH  19  26
ATOM     26  C   UNL A   1     -23.596  -2.036  28.920  0.00  0.00    +0.066 C 
ATOM     27  C   UNL A   1     -24.148  -3.178  29.360  0.00  0.00    -0.009 C 
ATOM     28  C   UNL A   1     -24.142  -4.249  28.546  0.00  0.00    +0.032 C 
ENDBRANCH  19  26
ENDBRANCH   2  19
TORSDOF 7
ENDMDL
ENDMDL
