REMARK  Name = No_929-gen_results/8p0m/2024-11-26-14-13-15/
REMARK  4 active torsions:
REMARK  status: ('A' for Active; 'I' for Inactive)
REMARK    1  A    between atoms: C_4  and  C_8
REMARK    2  A    between atoms: C_8  and  C_9
REMARK    3  A    between atoms: C_12  and  C_15
REMARK    4  A    between atoms: C_18  and  C_19
REMARK                            x       y       z     vdW  Elec       q    Type
REMARK                         _______ _______ _______ _____ _____    ______ ____
ROOT
ATOM      1  C   UNL A   1     -23.595  -0.555  29.094  0.00  0.00    -0.018 A 
ATOM      2  C   UNL A   1     -22.133  -0.599  29.261  0.00  0.00    -0.004 A 
ATOM      3  C   UNL A   1     -24.120   0.219  28.069  0.00  0.00    +0.001 A 
ATOM      4  C   UNL A   1     -23.238   1.126  27.360  0.00  0.00    +0.055 A 
ATOM      5  C   UNL A   1     -21.312   0.191  28.468  0.00  0.00    -0.000 A 
ATOM      6  C   UNL A   1     -21.817   1.049  27.577  0.00  0.00    +0.005 A 
ENDROOT
BRANCH   4   7
ATOM      7  C   UNL A   1     -23.578   2.135  26.302  0.00  0.00    +0.272 C 
ATOM      8  N   UNL A   1     -24.779   2.674  26.455  0.00  0.00    -0.137 NA
ATOM      9  O   UNL A   1     -22.736   2.684  25.587  0.00  0.00    -0.268 OA
ATOM     10  C   UNL A   1     -25.878   2.321  27.276  0.00  0.00    +0.272 C 
ATOM     11  O   UNL A   1     -25.724   1.973  28.430  0.00  0.00    -0.268 OA
BRANCH  10  12
ATOM     12  C   UNL A   1     -27.140   2.688  26.747  0.00  0.00    +0.056 A 
ATOM     13  C   UNL A   1     -27.992   3.295  27.636  0.00  0.00    +0.005 A 
ATOM     14  C   UNL A   1     -29.324   3.543  27.322  0.00  0.00    +0.000 A 
ATOM     15  C   UNL A   1     -29.693   3.283  25.971  0.00  0.00    +0.000 A 
ATOM     16  C   UNL A   1     -28.839   2.734  25.062  0.00  0.00    +0.000 A 
ATOM     17  C   UNL A   1     -27.554   2.451  25.463  0.00  0.00    +0.005 A 
ENDBRANCH  10  12
ENDBRANCH   4   7
BRANCH   1  18
ATOM     18  C   UNL A   1     -24.369  -1.119  30.064  0.00  0.00    +0.053 C 
BRANCH  18  22
ATOM     19  C   UNL A   1     -28.016  -0.814  28.878  0.00  0.00    +0.011 A 
ATOM     20  C   UNL A   1     -28.469  -0.785  29.829  0.00  0.00    +0.058 A 
ATOM     21  C   UNL A   1     -26.546  -0.876  28.850  0.00  0.00    -0.003 A 
ATOM     22  C   UNL A   1     -25.804  -1.032  30.057  0.00  0.00    -0.018 A 
ATOM     23  C   UNL A   1     -27.944  -0.987  31.207  0.00  0.00    +0.011 A 
ATOM     24  C   UNL A   1     -26.582  -1.039  31.223  0.00  0.00    -0.003 A 
ATOM     25 CL   UNL A   1     -30.281  -0.723  29.883  0.00  0.00    -0.082 Cl
ENDBRANCH  18  22
ENDBRANCH   1  18
TORSDOF 4
