MODEL 929
MODEL 1
REMARK VINA RESULT:    -8.340      0.000      0.000
REMARK INTER + INTRA:         -11.437
REMARK INTER:                 -10.291
REMARK INTRA:                  -1.146
REMARK UNBOUND:                -1.146
REMARK  Name = No_929-gen_results/8p0m/2024-11-26-14-13-15/
REMARK  4 active torsions:
REMARK  status: ('A' for Active; 'I' for Inactive)
REMARK    1  A    between atoms: C_4  and  C_8
REMARK    2  A    between atoms: C_8  and  C_9
REMARK    3  A    between atoms: C_12  and  C_15
REMARK    4  A    between atoms: C_18  and  C_19
REMARK                            x       y       z     vdW  Elec       q    Type
REMARK                         _______ _______ _______ _____ _____    ______ ____
ROOT
ATOM      1  C   UNL A   1     -22.859   1.643  27.910  0.00  0.00    -0.018 A 
ATOM      2  C   UNL A   1     -21.508   1.238  27.487  0.00  0.00    -0.004 A 
ATOM      3  C   UNL A   1     -23.367   1.119  29.089  0.00  0.00    +0.001 A 
ATOM      4  C   UNL A   1     -22.657   0.029  29.730  0.00  0.00    +0.055 A 
ATOM      5  C   UNL A   1     -20.804   0.282  28.208  0.00  0.00    -0.000 A 
ATOM      6  C   UNL A   1     -21.345  -0.335  29.263  0.00  0.00    +0.005 A 
ENDROOT
BRANCH   4   7
ATOM      7  C   UNL A   1     -23.052  -0.773  30.936  0.00  0.00    +0.272 C 
ATOM      8  N   UNL A   1     -23.888  -1.763  30.659  0.00  0.00    -0.137 NA
ATOM      9  O   UNL A   1     -22.418  -0.771  31.994  0.00  0.00    -0.268 OA
ATOM     10  C   UNL A   1     -24.649  -2.064  29.503  0.00  0.00    +0.272 C 
ATOM     11  O   UNL A   1     -24.185  -1.947  28.387  0.00  0.00    -0.268 OA
BRANCH  10  12
ATOM     12  C   UNL A   1     -25.846  -2.776  29.765  0.00  0.00    +0.056 A 
ATOM     13  C   UNL A   1     -26.868  -2.026  30.294  0.00  0.00    +0.005 A 
ATOM     14  C   UNL A   1     -28.033  -2.612  30.776  0.00  0.00    +0.000 A 
ATOM     15  C   UNL A   1     -28.164  -4.008  30.530  0.00  0.00    +0.000 A 
ATOM     16  C   UNL A   1     -27.180  -4.754  29.953  0.00  0.00    +0.000 A 
ATOM     17  C   UNL A   1     -26.024  -4.118  29.562  0.00  0.00    +0.005 A 
ENDBRANCH  10  12
ENDBRANCH   4   7
BRANCH   1  18
ATOM     18  C   UNL A   1     -23.617   2.359  27.033  0.00  0.00    +0.053 C 
BRANCH  18  22
ATOM     19  C   UNL A   1     -25.782  -0.047  24.952  0.00  0.00    +0.011 A 
ATOM     20  C   UNL A   1     -26.636   0.566  24.875  0.00  0.00    +0.058 A 
ATOM     21  C   UNL A   1     -24.623   0.524  25.657  0.00  0.00    -0.003 A 
ATOM     22  C   UNL A   1     -24.723   1.784  26.316  0.00  0.00    -0.018 A 
ATOM     23  C   UNL A   1     -27.012   1.861  25.505  0.00  0.00    +0.011 A 
ATOM     24  C   UNL A   1     -25.959   2.426  26.160  0.00  0.00    -0.003 A 
ATOM     25 CL   UNL A   1     -28.079  -0.126  24.022  0.00  0.00    -0.082 Cl
ENDBRANCH  18  22
ENDBRANCH   1  18
TORSDOF 4
ENDMDL
ENDMDL
