MODEL 92
MODEL 1
REMARK VINA RESULT:    -9.648      0.000      0.000
REMARK INTER + INTRA:         -13.251
REMARK INTER:                 -12.468
REMARK INTRA:                  -0.783
REMARK UNBOUND:                -0.783
REMARK  Name = No_92-gen_results/8p0m/2024-11-26-14-13-15/
REMARK  5 active torsions:
REMARK  status: ('A' for Active; 'I' for Inactive)
REMARK    1  A    between atoms: C_3  and  C_7
REMARK    2  A    between atoms: C_6  and  C_13
REMARK    3  A    between atoms: N_14  and  C_16
REMARK    4  A    between atoms: C_16  and  C_17
REMARK    5  A    between atoms: C_21  and  C_23
REMARK                            x       y       z     vdW  Elec       q    Type
REMARK                         _______ _______ _______ _____ _____    ______ ____
ROOT
ATOM      1  C   UNL A   1     -26.110   2.363  25.921  0.00  0.00    +0.267 C 
ATOM      2  N   UNL A   1     -25.265   1.506  26.171  0.00  0.00    -0.169 NA
ATOM      3  O   UNL A   1     -25.970   3.552  26.379  0.00  0.00    -0.268 OA
ENDROOT
BRANCH   1   9
ATOM      4  C   UNL A   1     -27.961   0.723  25.232  0.00  0.00    +0.005 A 
ATOM      5  C   UNL A   1     -29.002   0.507  24.656  0.00  0.00    +0.000 A 
ATOM      6  C   UNL A   1     -29.637   1.438  23.836  0.00  0.00    +0.000 A 
ATOM      7  C   UNL A   1     -29.065   2.763  23.697  0.00  0.00    +0.000 A 
ATOM      8  C   UNL A   1     -27.875   2.975  24.393  0.00  0.00    +0.005 A 
ATOM      9  C   UNL A   1     -27.348   2.039  25.158  0.00  0.00    +0.055 A 
BRANCH   6  10
ATOM     10  C   UNL A   1     -30.914   1.243  23.090  0.00  0.00    +0.000 A 
ATOM     11  C   UNL A   1     -31.322   2.009  22.106  0.00  0.00    +0.000 A 
ATOM     12  C   UNL A   1     -32.532   1.760  21.419  0.00  0.00    +0.000 A 
ATOM     13  C   UNL A   1     -33.110   0.464  21.540  0.00  0.00    +0.000 A 
ATOM     14  C   UNL A   1     -31.646   0.007  23.208  0.00  0.00    +0.000 A 
ATOM     15  C   UNL A   1     -32.697  -0.330  22.476  0.00  0.00    +0.000 A 
ENDBRANCH   6  10
ENDBRANCH   1   9
BRANCH   2  16
ATOM     16  C   UNL A   1     -24.001   1.768  26.898  0.00  0.00    +0.230 C 
ATOM     17  F   UNL A   1     -24.211   2.872  27.536  0.00  0.00    -0.213 F 
ATOM     18  C   UNL A   1     -22.964   2.197  25.788  0.00  0.00    +0.063 C 
BRANCH  16  19
ATOM     19  C   UNL A   1     -23.490   0.871  27.528  0.00  0.00    +0.026 A 
ATOM     20  C   UNL A   1     -22.351   0.893  27.996  0.00  0.00    -0.000 A 
ATOM     21  C   UNL A   1     -21.750  -0.086  28.916  0.00  0.00    -0.000 A 
ATOM     22  C   UNL A   1     -22.519  -1.226  29.151  0.00  0.00    -0.000 A 
ATOM     23  C   UNL A   1     -23.763  -1.348  28.631  0.00  0.00    -0.000 A 
ATOM     24  C   UNL A   1     -24.327  -0.314  27.914  0.00  0.00    -0.000 A 
BRANCH  23  25
ATOM     25  C   UNL A   1     -24.637  -2.517  28.988  0.00  0.00    -0.000 A 
ATOM     26  C   UNL A   1     -25.746  -2.415  29.474  0.00  0.00    -0.000 A 
ATOM     27  C   UNL A   1     -24.018  -3.806  28.653  0.00  0.00    -0.000 A 
ATOM     28  C   UNL A   1     -26.496  -3.588  29.854  0.00  0.00    -0.000 A 
ATOM     29  C   UNL A   1     -24.794  -4.941  29.034  0.00  0.00    -0.000 A 
ATOM     30  C   UNL A   1     -25.996  -4.811  29.592  0.00  0.00    +0.000 A 
ENDBRANCH  23  25
ENDBRANCH  16  19
ENDBRANCH   2  16
TORSDOF 5
ENDMDL
ENDMDL
