MODEL 930
MODEL 1
REMARK VINA RESULT:    -6.560      0.000      0.000
REMARK INTER + INTRA:          -7.308
REMARK INTER:                  -6.943
REMARK INTRA:                  -0.365
REMARK UNBOUND:                -0.365
REMARK  Name = No_930-gen_results/8p0m/2024-11-26-14-13-15/
REMARK  1 active torsions:
REMARK  status: ('A' for Active; 'I' for Inactive)
REMARK    1  A    between atoms: C_2  and  C_7
REMARK                            x       y       z     vdW  Elec       q    Type
REMARK                         _______ _______ _______ _____ _____    ______ ____
ROOT
ATOM      1  C   UNL A   1     -24.012  -3.845  28.782  0.00  0.00    +0.000 A 
ATOM      2  C   UNL A   1     -24.408  -2.731  29.035  0.00  0.00    +0.000 A 
ATOM      3  C   UNL A   1     -25.656  -2.526  29.612  0.00  0.00    +0.000 A 
ATOM      4  C   UNL A   1     -26.537  -3.632  29.885  0.00  0.00    +0.000 A 
ATOM      5  C   UNL A   1     -26.009  -4.883  29.540  0.00  0.00    +0.000 A 
ATOM      6  C   UNL A   1     -24.829  -5.022  28.981  0.00  0.00    +0.000 A 
ENDROOT
BRANCH   2   7
ATOM      7  C   UNL A   1     -23.647  -1.475  28.795  0.00  0.00    +0.000 A 
ATOM      8  C   UNL A   1     -22.520  -1.161  29.147  0.00  0.00    +0.000 A 
ATOM      9  C   UNL A   1     -24.388  -0.502  27.975  0.00  0.00    +0.000 A 
ATOM     10  C   UNL A   1     -21.749  -0.069  28.872  0.00  0.00    +0.000 A 
ATOM     11  C   UNL A   1     -23.745   0.721  27.662  0.00  0.00    +0.000 A 
ATOM     12  C   UNL A   1     -22.404   0.945  28.128  0.00  0.00    +0.000 A 
ENDBRANCH   2   7
TORSDOF 1
ENDMDL
ENDMDL
