REMARK  Name = No_931-gen_results/8p0m/2024-11-26-14-13-15/
REMARK  5 active torsions:
REMARK  status: ('A' for Active; 'I' for Inactive)
REMARK    1  A    between atoms: C_6  and  C_19
REMARK    2  A    between atoms: C_8  and  C_9
REMARK    3  A    between atoms: N_12  and  C_13
REMARK    4  A    between atoms: C_20  and  O_33
REMARK    5  A    between atoms: O_33  and  C_34
REMARK                            x       y       z     vdW  Elec       q    Type
REMARK                         _______ _______ _______ _____ _____    ______ ____
ROOT
ATOM      1  N   UNL A   1     -28.054  -1.050  28.725  0.00  0.00    -0.227 NA
ATOM      2  C   UNL A   1     -28.654  -0.567  29.508  0.00  0.00    +0.155 A 
ATOM      3  C   UNL A   1     -28.138   0.160  30.523  0.00  0.00    +0.034 A 
ATOM      4  C   UNL A   1     -26.990   0.487  30.529  0.00  0.00    +0.004 A 
ATOM      5  C   UNL A   1     -26.649  -0.780  28.683  0.00  0.00    +0.100 A 
ATOM      6  C   UNL A   1     -26.040  -0.002  29.613  0.00  0.00    +0.022 A 
ATOM      7  N   UNL A   1     -29.974  -1.012  29.349  0.00  0.00    -0.153 NA
ATOM      8  C   UNL A   1     -30.942  -0.292  28.723  0.00  0.00    +0.326 C 
ATOM      9  O   UNL A   1     -30.674   0.839  28.323  0.00  0.00    -0.263 OA
ATOM     10  C   UNL A   1     -29.139   0.757  31.643  0.00  0.00    +0.003 A 
ATOM     11  C   UNL A   1     -28.836   0.994  32.741  0.00  0.00    +0.000 A 
ATOM     12  C   UNL A   1     -27.597   0.554  33.258  0.00  0.00    +0.000 A 
ATOM     13  C   UNL A   1     -27.229   0.795  34.563  0.00  0.00    +0.000 A 
ATOM     14  C   UNL A   1     -25.960   0.346  34.873  0.00  0.00    +0.000 A 
ATOM     15  C   UNL A   1     -25.043  -0.188  33.968  0.00  0.00    +0.000 A 
ATOM     16  C   UNL A   1     -25.467  -0.338  32.679  0.00  0.00    +0.000 A 
ATOM     17  C   UNL A   1     -26.720   0.023  32.334  0.00  0.00    +0.000 A 
ENDROOT
BRANCH   6  18
ATOM     18  C   UNL A   1     -24.609   0.242  29.608  0.00  0.00    +0.035 A 
ATOM     19  C   UNL A   1     -24.129   1.509  29.849  0.00  0.00    +0.139 A 
ATOM     20  C   UNL A   1     -23.672  -0.779  29.458  0.00  0.00    +0.003 A 
ATOM     21  C   UNL A   1     -22.297  -0.465  29.314  0.00  0.00    +0.000 A 
ATOM     22  C   UNL A   1     -22.742   1.849  29.740  0.00  0.00    +0.037 A 
ATOM     23  C   UNL A   1     -21.831   0.796  29.480  0.00  0.00    +0.003 A 
BRANCH  19  24
ATOM     24  O   UNL A   1     -24.950   2.568  30.122  0.00  0.00    -0.475 OA
BRANCH  24  25
ATOM     25  C   UNL A   1     -25.120   3.147  31.213  0.00  0.00    +0.205 C 
ATOM     26  C   UNL A   1     -26.068   4.303  31.288  0.00  0.00    +0.051 C 
ENDBRANCH  24  25
ENDBRANCH  19  24
ENDBRANCH   6  18
BRANCH   8  27
ATOM     27  C   UNL A   1     -32.107  -0.965  28.379  0.00  0.00    +0.325 C 
ATOM     28  O   UNL A   1     -32.233  -1.450  27.252  0.00  0.00    -0.263 OA
ATOM     29  N   UNL A   1     -33.086  -1.177  29.285  0.00  0.00    -0.172 NA
BRANCH  29  30
ATOM     30  C   UNL A   1     -33.020  -0.665  30.638  0.00  0.00    +0.074 A 
ATOM     31  C   UNL A   1     -32.959   0.561  30.797  0.00  0.00    +0.017 A 
ATOM     32  C   UNL A   1     -32.950   1.131  32.154  0.00  0.00    +0.001 A 
ATOM     33  C   UNL A   1     -33.160   0.188  33.194  0.00  0.00    +0.000 A 
ATOM     34  C   UNL A   1     -33.229  -1.647  31.637  0.00  0.00    +0.017 A 
ATOM     35  C   UNL A   1     -33.274  -1.125  32.938  0.00  0.00    +0.001 A 
ENDBRANCH  29  30
ENDBRANCH   8  27
TORSDOF 5
