MODEL 931
MODEL 1
REMARK VINA RESULT:    -7.112      0.000      0.000
REMARK INTER + INTRA:         -10.949
REMARK INTER:                  -9.191
REMARK INTRA:                  -1.758
REMARK UNBOUND:                -1.758
REMARK  Name = No_931-gen_results/8p0m/2024-11-26-14-13-15/
REMARK  5 active torsions:
REMARK  status: ('A' for Active; 'I' for Inactive)
REMARK    1  A    between atoms: C_6  and  C_19
REMARK    2  A    between atoms: C_8  and  C_9
REMARK    3  A    between atoms: N_12  and  C_13
REMARK    4  A    between atoms: C_20  and  O_33
REMARK    5  A    between atoms: O_33  and  C_34
REMARK                            x       y       z     vdW  Elec       q    Type
REMARK                         _______ _______ _______ _____ _____    ______ ____
ROOT
ATOM      1  N   UNL A   1     -19.648 -19.204   5.487  0.00  0.00    -0.227 NA
ATOM      2  C   UNL A   1     -20.624 -19.366   5.966  0.00  0.00    +0.155 A 
ATOM      3  C   UNL A   1     -20.861 -20.298   6.915  0.00  0.00    +0.034 A 
ATOM      4  C   UNL A   1     -19.966 -20.890   7.439  0.00  0.00    +0.004 A 
ATOM      5  C   UNL A   1     -18.517 -19.919   5.994  0.00  0.00    +0.100 A 
ATOM      6  C   UNL A   1     -18.631 -20.826   6.997  0.00  0.00    +0.022 A 
ATOM      7  N   UNL A   1     -21.557 -18.582   5.274  0.00  0.00    -0.153 NA
ATOM      8  C   UNL A   1     -21.995 -17.371   5.709  0.00  0.00    +0.326 C 
ATOM      9  O   UNL A   1     -21.603 -16.956   6.798  0.00  0.00    -0.263 OA
ATOM     10  C   UNL A   1     -22.365 -20.469   7.482  0.00  0.00    +0.003 A 
ATOM     11  C   UNL A   1     -22.795 -21.453   7.929  0.00  0.00    +0.000 A 
ATOM     12  C   UNL A   1     -22.091 -22.672   7.798  0.00  0.00    +0.000 A 
ATOM     13  C   UNL A   1     -22.594 -23.855   8.291  0.00  0.00    +0.000 A 
ATOM     14  C   UNL A   1     -21.742 -24.930   8.126  0.00  0.00    +0.000 A 
ATOM     15  C   UNL A   1     -20.437 -24.866   7.637  0.00  0.00    +0.000 A 
ATOM     16  C   UNL A   1     -19.994 -23.642   7.225  0.00  0.00    +0.000 A 
ATOM     17  C   UNL A   1     -20.808 -22.569   7.302  0.00  0.00    +0.000 A 
ENDROOT
BRANCH   6  18
ATOM     18  C   UNL A   1     -17.500 -21.590   7.489  0.00  0.00    +0.035 A 
ATOM     19  C   UNL A   1     -16.704 -22.283   6.605  0.00  0.00    +0.139 A 
ATOM     20  C   UNL A   1     -17.114 -21.587   8.829  0.00  0.00    +0.003 A 
ATOM     21  C   UNL A   1     -16.095 -22.465   9.276  0.00  0.00    +0.000 A 
ATOM     22  C   UNL A   1     -15.648 -23.154   7.027  0.00  0.00    +0.037 A 
ATOM     23  C   UNL A   1     -15.357 -23.203   8.412  0.00  0.00    +0.003 A 
BRANCH  19  24
ATOM     24  O   UNL A   1     -16.918 -22.267   5.254  0.00  0.00    -0.475 OA
BRANCH  24  25
ATOM     25  C   UNL A   1     -17.388 -23.175   4.541  0.00  0.00    +0.205 C 
ATOM     26  C   UNL A   1     -18.718 -22.973   3.883  0.00  0.00    +0.051 C 
ENDBRANCH  24  25
ENDBRANCH  19  24
ENDBRANCH   6  18
BRANCH   8  27
ATOM     27  C   UNL A   1     -22.681 -16.581   4.796  0.00  0.00    +0.325 C 
ATOM     28  O   UNL A   1     -22.072 -15.763   4.103  0.00  0.00    -0.263 OA
ATOM     29  N   UNL A   1     -24.005 -16.746   4.585  0.00  0.00    -0.172 NA
BRANCH  29  30
ATOM     30  C   UNL A   1     -24.802 -17.695   5.334  0.00  0.00    +0.074 A 
ATOM     31  C   UNL A   1     -25.325 -17.314   6.390  0.00  0.00    +0.017 A 
ATOM     32  C   UNL A   1     -26.192 -18.225   7.155  0.00  0.00    +0.001 A 
ATOM     33  C   UNL A   1     -26.467 -19.460   6.513  0.00  0.00    +0.000 A 
ATOM     34  C   UNL A   1     -25.041 -18.913   4.652  0.00  0.00    +0.017 A 
ATOM     35  C   UNL A   1     -25.904 -19.781   5.337  0.00  0.00    +0.001 A 
ENDBRANCH  29  30
ENDBRANCH   8  27
TORSDOF 5
ENDMDL
ENDMDL
