REMARK  Name = No_932-gen_results/8p0m/2024-11-26-14-13-15/
REMARK  3 active torsions:
REMARK  status: ('A' for Active; 'I' for Inactive)
REMARK    1  A    between atoms: C_4  and  C_8
REMARK    2  A    between atoms: C_8  and  C_9
REMARK    3  A    between atoms: C_12  and  C_14
REMARK                            x       y       z     vdW  Elec       q    Type
REMARK                         _______ _______ _______ _____ _____    ______ ____
ROOT
ATOM      1  C   UNL A   1     -23.596  -0.540  29.104  0.00  0.00    -0.018 A 
ATOM      2  C   UNL A   1     -22.133  -0.573  29.266  0.00  0.00    -0.004 A 
ATOM      3  C   UNL A   1     -24.122   0.227  28.070  0.00  0.00    -0.008 A 
ATOM      4  C   UNL A   1     -23.240   1.115  27.344  0.00  0.00    -0.023 A 
ATOM      5  C   UNL A   1     -21.317   0.234  28.471  0.00  0.00    -0.001 A 
ATOM      6  C   UNL A   1     -21.800   1.079  27.605  0.00  0.00    -0.004 A 
ENDROOT
BRANCH   4   7
ATOM      7  C   UNL A   1     -23.726   2.011  26.312  0.00  0.00    +0.022 C 
ATOM      8  C   UNL A   1     -23.619   3.358  26.433  0.00  0.00    +0.005 C 
ATOM      9  C   UNL A   1     -24.366   1.301  25.257  0.00  0.00    +0.005 C 
ENDBRANCH   4   7
BRANCH   1  10
ATOM     10  C   UNL A   1     -24.377  -1.098  30.069  0.00  0.00    +0.053 C 
BRANCH  10  14
ATOM     11  C   UNL A   1     -28.016  -0.814  28.878  0.00  0.00    +0.029 A 
ATOM     12  C   UNL A   1     -28.469  -0.785  29.829  0.00  0.00    +0.140 A 
ATOM     13  C   UNL A   1     -26.546  -0.876  28.850  0.00  0.00    -0.002 A 
ATOM     14  C   UNL A   1     -25.804  -1.032  30.057  0.00  0.00    -0.018 A 
ATOM     15  C   UNL A   1     -27.944  -0.987  31.207  0.00  0.00    +0.029 A 
ATOM     16  C   UNL A   1     -26.582  -1.039  31.223  0.00  0.00    -0.002 A 
ATOM     17  F   UNL A   1     -29.909  -0.740  29.864  0.00  0.00    -0.204 F 
ENDBRANCH  10  14
ENDBRANCH   1  10
TORSDOF 3
