REMARK  Name = No_933-gen_results/8p0m/2024-11-26-14-13-15/
REMARK  1 active torsions:
REMARK  status: ('A' for Active; 'I' for Inactive)
REMARK    1  A    between atoms: C_2  and  C_9
REMARK                            x       y       z     vdW  Elec       q    Type
REMARK                         _______ _______ _______ _____ _____    ______ ____
ROOT
ATOM      1  C   UNL A   1     -28.016  -0.814  28.878  0.00  0.00    +0.197 A 
ATOM      2  C   UNL A   1     -27.064  -0.119  28.608  0.00  0.00    +0.039 A 
ATOM      3  C   UNL A   1     -27.001   0.691  27.491  0.00  0.00    +0.004 A 
ATOM      4  C   UNL A   1     -28.137   0.736  26.635  0.00  0.00    +0.012 A 
ATOM      5  C   UNL A   1     -29.236   0.076  27.069  0.00  0.00    +0.061 A 
ATOM      6  C   UNL A   1     -29.218  -0.643  28.175  0.00  0.00    +0.053 A 
ATOM      7  O   UNL A   1     -28.033  -1.574  30.042  0.00  0.00    -0.286 OA
ATOM      8 CL   UNL A   1     -30.614   0.162  26.073  0.00  0.00    -0.082 Cl
ENDROOT
BRANCH   2   9
ATOM      9  C   UNL A   1     -25.699  -0.197  29.428  0.00  0.00    +0.003 A 
ATOM     10  C   UNL A   1     -25.270   0.411  30.177  0.00  0.00    +0.000 A 
ATOM     11  C   UNL A   1     -24.217   0.736  30.650  0.00  0.00    +0.000 A 
ATOM     12  C   UNL A   1     -23.154   0.460  30.226  0.00  0.00    +0.000 A 
ATOM     13  C   UNL A   1     -23.234  -0.606  29.163  0.00  0.00    +0.000 A 
ATOM     14  C   UNL A   1     -24.385  -0.450  28.261  0.00  0.00    +0.000 A 
ENDBRANCH   2   9
TORSDOF 1
