MODEL 933
MODEL 1
REMARK VINA RESULT:    -6.219      0.000      0.000
REMARK INTER + INTRA:          -6.642
REMARK INTER:                  -6.582
REMARK INTRA:                  -0.059
REMARK UNBOUND:                -0.059
REMARK  Name = No_933-gen_results/8p0m/2024-11-26-14-13-15/
REMARK  1 active torsions:
REMARK  status: ('A' for Active; 'I' for Inactive)
REMARK    1  A    between atoms: C_2  and  C_9
REMARK                            x       y       z     vdW  Elec       q    Type
REMARK                         _______ _______ _______ _____ _____    ______ ____
ROOT
ATOM      1  C   UNL A   1     -23.695  -0.381  29.446  0.00  0.00    +0.197 A 
ATOM      2  C   UNL A   1     -24.147  -1.208  28.688  0.00  0.00    +0.039 A 
ATOM      3  C   UNL A   1     -24.711  -0.899  27.466  0.00  0.00    +0.004 A 
ATOM      4  C   UNL A   1     -24.723   0.465  27.063  0.00  0.00    +0.012 A 
ATOM      5  C   UNL A   1     -24.056   1.329  27.864  0.00  0.00    +0.061 A 
ATOM      6  C   UNL A   1     -23.509   0.936  28.999  0.00  0.00    +0.053 A 
ATOM      7  O   UNL A   1     -23.102  -0.763  30.643  0.00  0.00    -0.286 OA
ATOM      8 CL   UNL A   1     -24.027   2.956  27.366  0.00  0.00    -0.082 Cl
ENDROOT
BRANCH   2   9
ATOM      9  C   UNL A   1     -24.297  -2.741  29.101  0.00  0.00    +0.003 A 
ATOM     10  C   UNL A   1     -23.925  -3.640  28.692  0.00  0.00    +0.000 A 
ATOM     11  C   UNL A   1     -24.154  -4.814  28.609  0.00  0.00    +0.000 A 
ATOM     12  C   UNL A   1     -25.136  -5.353  28.973  0.00  0.00    +0.000 A 
ATOM     13  C   UNL A   1     -25.985  -4.453  29.832  0.00  0.00    +0.000 A 
ATOM     14  C   UNL A   1     -26.024  -3.059  29.363  0.00  0.00    +0.000 A 
ENDBRANCH   2   9
TORSDOF 1
ENDMDL
ENDMDL
