MODEL 934
MODEL 1
REMARK VINA RESULT:    -6.229      0.000      0.000
REMARK INTER + INTRA:          -6.686
REMARK INTER:                  -6.958
REMARK INTRA:                   0.272
REMARK UNBOUND:                 0.272
REMARK  Name = No_934-gen_results/8p0m/2024-11-26-14-13-15/
REMARK  2 active torsions:
REMARK  status: ('A' for Active; 'I' for Inactive)
REMARK    1  A    between atoms: C_2  and  C_7
REMARK    2  A    between atoms: C_4  and  C_15
REMARK                            x       y       z     vdW  Elec       q    Type
REMARK                         _______ _______ _______ _____ _____    ______ ____
ROOT
ATOM      1  C   UNL A   1     -24.896   0.389  25.212  0.00  0.00    +0.004 A 
ATOM      2  C   UNL A   1     -24.815   1.191  25.891  0.00  0.00    +0.054 A 
ATOM      3  C   UNL A   1     -26.182   0.244  24.512  0.00  0.00    +0.004 A 
ATOM      4  C   UNL A   1     -27.199   1.232  24.654  0.00  0.00    +0.071 A 
ATOM      5  C   UNL A   1     -25.682   2.367  26.175  0.00  0.00    +0.004 A 
ATOM      6  C   UNL A   1     -26.889   2.264  25.550  0.00  0.00    +0.004 A 
ENDROOT
BRANCH   2   7
ATOM      7  C   UNL A   1     -23.431   1.394  26.655  0.00  0.00    +0.249 C 
ATOM      8  O   UNL A   1     -22.625   2.110  26.372  0.00  0.00    -0.270 OA
ATOM      9  N   UNL A   1     -23.276   0.453  27.671  0.00  0.00    -0.276 N 
ATOM     10  C   UNL A   1     -22.033   0.398  28.364  0.00  0.00    +0.094 C 
ATOM     11  C   UNL A   1     -21.974  -0.322  29.240  0.00  0.00    +0.022 C 
ATOM     12  C   UNL A   1     -23.055  -1.273  29.605  0.00  0.00    +0.004 C 
ATOM     13  C   UNL A   1     -24.241  -1.241  28.839  0.00  0.00    +0.022 C 
ATOM     14  C   UNL A   1     -24.386  -0.370  27.929  0.00  0.00    +0.094 C 
ENDBRANCH   2   7
BRANCH   4  15
ATOM     15  C   UNL A   1     -28.436   1.179  23.914  0.00  0.00    +0.419 C 
ATOM     16  F   UNL A   1     -29.447   1.276  24.595  0.00  0.00    -0.166 F 
ATOM     17  F   UNL A   1     -28.476   0.016  23.106  0.00  0.00    -0.166 F 
ATOM     18  F   UNL A   1     -28.441   2.226  23.013  0.00  0.00    -0.166 F 
ENDBRANCH   4  15
TORSDOF 2
ENDMDL
ENDMDL
