MODEL 935
MODEL 1
REMARK VINA RESULT:    -4.347      0.000      0.000
REMARK INTER + INTRA:          -4.347
REMARK INTER:                  -4.347
REMARK INTRA:                   0.000
REMARK UNBOUND:                 0.000
REMARK  Name = No_935-gen_results/8p0m/2024-11-26-14-13-15/
REMARK  0 active torsions:
REMARK  status: ('A' for Active; 'I' for Inactive)
REMARK                            x       y       z     vdW  Elec       q    Type
REMARK                         _______ _______ _______ _____ _____    ______ ____
ROOT
ATOM      1  C   UNL A   1     -24.159  -4.874  28.598  0.00  0.00    +0.000 A 
ATOM      2  C   UNL A   1     -25.008  -5.298  29.056  0.00  0.00    +0.000 A 
ATOM      3  C   UNL A   1     -24.069  -3.419  28.765  0.00  0.00    +0.000 A 
ATOM      4  C   UNL A   1     -25.062  -2.695  29.284  0.00  0.00    +0.000 A 
ATOM      5  C   UNL A   1     -26.199  -4.733  29.643  0.00  0.00    +0.000 A 
ATOM      6  C   UNL A   1     -26.107  -3.378  29.767  0.00  0.00    +0.000 A 
ENDROOT
TORSDOF 0
ENDMDL
ENDMDL
