REMARK  Name = No_936-gen_results/8p0m/2024-11-26-14-13-15/
REMARK  1 active torsions:
REMARK  status: ('A' for Active; 'I' for Inactive)
REMARK    1  A    between atoms: C_1  and  C_3
REMARK                            x       y       z     vdW  Elec       q    Type
REMARK                         _______ _______ _______ _____ _____    ______ ____
ROOT
ATOM      1  C   UNL A   1     -28.016  -0.814  28.878  0.00  0.00    +0.002 A 
ATOM      2  C   UNL A   1     -28.469  -0.785  29.829  0.00  0.00    +0.000 A 
ATOM      3  C   UNL A   1     -29.999  -0.760  29.895  0.00  0.00    +0.002 A 
ATOM      4  C   UNL A   1     -30.569  -0.588  28.685  0.00  0.00    +0.030 A 
ATOM      5  C   UNL A   1     -29.865  -0.351  27.583  0.00  0.00    +0.140 A 
ATOM      6  C   UNL A   1     -28.518  -0.316  27.674  0.00  0.00    +0.030 A 
ATOM      7  F   UNL A   1     -30.414  -0.054  26.410  0.00  0.00    -0.204 F 
ENDROOT
BRANCH   1   8
ATOM      8  C   UNL A   1     -26.504  -0.778  28.877  0.00  0.00    +0.000 A 
ATOM      9  C   UNL A   1     -25.762  -0.002  27.971  0.00  0.00    +0.000 A 
ATOM     10  C   UNL A   1     -24.966   0.797  28.222  0.00  0.00    +0.000 A 
ATOM     11  C   UNL A   1     -23.936   0.555  29.290  0.00  0.00    +0.000 A 
ATOM     12  C   UNL A   1     -24.457  -0.451  30.225  0.00  0.00    +0.000 A 
ATOM     13  C   UNL A   1     -25.714  -1.058  30.096  0.00  0.00    +0.000 A 
ENDBRANCH   1   8
TORSDOF 1
