MODEL 936
MODEL 1
REMARK VINA RESULT:    -6.747      0.000      0.000
REMARK INTER + INTRA:          -7.497
REMARK INTER:                  -7.142
REMARK INTRA:                  -0.355
REMARK UNBOUND:                -0.355
REMARK  Name = No_936-gen_results/8p0m/2024-11-26-14-13-15/
REMARK  1 active torsions:
REMARK  status: ('A' for Active; 'I' for Inactive)
REMARK    1  A    between atoms: C_1  and  C_3
REMARK                            x       y       z     vdW  Elec       q    Type
REMARK                         _______ _______ _______ _____ _____    ______ ____
ROOT
ATOM      1  C   UNL A   1     -24.571  -2.838  28.846  0.00  0.00    +0.002 A 
ATOM      2  C   UNL A   1     -23.839  -3.554  28.599  0.00  0.00    +0.000 A 
ATOM      3  C   UNL A   1     -24.240  -5.032  28.637  0.00  0.00    +0.002 A 
ATOM      4  C   UNL A   1     -25.461  -5.227  29.176  0.00  0.00    +0.030 A 
ATOM      5  C   UNL A   1     -26.176  -4.245  29.716  0.00  0.00    +0.140 A 
ATOM      6  C   UNL A   1     -25.671  -2.992  29.692  0.00  0.00    +0.030 A 
ATOM      7  F   UNL A   1     -27.320  -4.439  30.362  0.00  0.00    -0.204 F 
ENDROOT
BRANCH   1   8
ATOM      8  C   UNL A   1     -24.100  -1.401  28.847  0.00  0.00    +0.000 A 
ATOM      9  C   UNL A   1     -22.898  -0.995  29.450  0.00  0.00    +0.000 A 
ATOM     10  C   UNL A   1     -22.024  -0.424  28.955  0.00  0.00    +0.000 A 
ATOM     11  C   UNL A   1     -22.281   0.738  28.036  0.00  0.00    +0.000 A 
ATOM     12  C   UNL A   1     -23.636   0.609  27.484  0.00  0.00    +0.000 A 
ATOM     13  C   UNL A   1     -24.508  -0.443  27.797  0.00  0.00    +0.000 A 
ENDBRANCH   1   8
TORSDOF 1
ENDMDL
ENDMDL
