REMARK  Name = No_937-gen_results/8p0m/2024-11-26-14-13-15/
REMARK  4 active torsions:
REMARK  status: ('A' for Active; 'I' for Inactive)
REMARK    1  A    between atoms: C_1  and  C_2
REMARK    2  A    between atoms: C_1  and  C_8
REMARK    3  A    between atoms: C_5  and  C_10
REMARK    4  A    between atoms: C_8  and  C_9
REMARK                            x       y       z     vdW  Elec       q    Type
REMARK                         _______ _______ _______ _____ _____    ______ ____
ROOT
ATOM      1  C   UNL A   1     -27.064  -0.119  28.608  0.00  0.00    -0.022 A 
ATOM      2  C   UNL A   1     -26.972   0.714  27.506  0.00  0.00    -0.004 A 
ATOM      3  C   UNL A   1     -25.821   1.491  27.116  0.00  0.00    +0.004 A 
ATOM      4  C   UNL A   1     -24.656   1.424  27.918  0.00  0.00    +0.057 A 
ATOM      5  C   UNL A   1     -24.685   0.590  29.066  0.00  0.00    +0.004 A 
ATOM      6  C   UNL A   1     -25.810  -0.127  29.334  0.00  0.00    -0.004 A 
ENDROOT
BRANCH   4   7
ATOM      7  C   UNL A   1     -23.452   2.189  27.608  0.00  0.00    +0.284 C 
ATOM      8  N   UNL A   1     -22.495   2.196  28.520  0.00  0.00    -0.084 NA
ATOM      9  O   UNL A   1     -23.315   2.694  26.451  0.00  0.00    -0.267 OA
ENDBRANCH   4   7
BRANCH   1  10
ATOM     10  C   UNL A   1     -28.016  -0.814  28.878  0.00  0.00    +0.033 C 
BRANCH  10  11
ATOM     11  C   UNL A   1     -28.694  -0.473  30.159  0.00  0.00    +0.054 C 
BRANCH  11  12
ATOM     12  C   UNL A   1     -29.787  -1.325  30.637  0.00  0.00    +0.096 C 
ATOM     13  N   UNL A   1     -30.036  -2.264  30.058  0.00  0.00    -0.151 NA
ENDBRANCH  11  12
ENDBRANCH  10  11
ENDBRANCH   1  10
TORSDOF 4
