MODEL 938
MODEL 1
REMARK VINA RESULT:    -7.432      0.000      0.000
REMARK INTER + INTRA:          -9.805
REMARK INTER:                  -8.301
REMARK INTRA:                  -1.504
REMARK UNBOUND:                -1.504
REMARK  Name = No_938-gen_results/8p0m/2024-11-26-14-13-15/
REMARK  2 active torsions:
REMARK  status: ('A' for Active; 'I' for Inactive)
REMARK    1  A    between atoms: C_3  and  C_7
REMARK    2  A    between atoms: C_9  and  C_10
REMARK                            x       y       z     vdW  Elec       q    Type
REMARK                         _______ _______ _______ _____ _____    ______ ____
ROOT
ATOM      1  C   UNL A   1     -24.413  -0.706  28.914  0.00  0.00    -0.004 A 
ATOM      2  C   UNL A   1     -24.498  -0.243  27.643  0.00  0.00    -0.022 A 
ATOM      3  C   UNL A   1     -24.031   0.107  29.966  0.00  0.00    -0.000 A 
ATOM      4  C   UNL A   1     -23.037   1.007  29.482  0.00  0.00    -0.000 A 
ATOM      5  C   UNL A   1     -25.366  -0.802  26.661  0.00  0.00    +0.031 C 
ATOM      6  C   UNL A   1     -23.828   0.968  27.259  0.00  0.00    -0.004 A 
ATOM      7  C   UNL A   1     -23.140   1.619  28.261  0.00  0.00    -0.000 A 
ENDROOT
BRANCH   1  10
ATOM      8  C   UNL A   1     -26.123  -2.499  29.631  0.00  0.00    -0.000 A 
ATOM      9  C   UNL A   1     -26.283  -3.539  29.685  0.00  0.00    -0.000 A 
ATOM     10  C   UNL A   1     -24.805  -2.135  29.110  0.00  0.00    -0.000 A 
ATOM     11  C   UNL A   1     -23.889  -3.079  28.717  0.00  0.00    -0.000 A 
ATOM     12  C   UNL A   1     -25.520  -4.740  29.346  0.00  0.00    -0.000 A 
ATOM     13  C   UNL A   1     -24.242  -4.399  28.841  0.00  0.00    -0.000 A 
ENDBRANCH   1  10
BRANCH   3  14
ATOM     14  C   UNL A   1     -23.975  -0.316  31.263  0.00  0.00    -0.000 A 
ATOM     15  C   UNL A   1     -25.026   0.021  32.107  0.00  0.00    -0.000 A 
ATOM     16  C   UNL A   1     -24.997  -0.390  33.459  0.00  0.00    -0.000 A 
ATOM     17  C   UNL A   1     -23.978  -1.157  33.892  0.00  0.00    +0.000 A 
ATOM     18  C   UNL A   1     -22.912  -1.503  33.072  0.00  0.00    -0.000 A 
ATOM     19  C   UNL A   1     -22.886  -1.073  31.811  0.00  0.00    -0.000 A 
ENDBRANCH   3  14
TORSDOF 2
ENDMDL
ENDMDL
