REMARK  Name = No_939-gen_results/8p0m/2024-11-26-14-13-15/
REMARK  1 active torsions:
REMARK  status: ('A' for Active; 'I' for Inactive)
REMARK    1  A    between atoms: C_3  and  C_7
REMARK                            x       y       z     vdW  Elec       q    Type
REMARK                         _______ _______ _______ _____ _____    ______ ____
ROOT
ATOM      1  C   UNL A   1     -28.016  -0.814  28.878  0.00  0.00    +0.011 A 
ATOM      2  C   UNL A   1     -27.064  -0.119  28.608  0.00  0.00    +0.001 A 
ATOM      3  C   UNL A   1     -25.765  -0.390  29.036  0.00  0.00    +0.000 A 
ATOM      4  C   UNL A   1     -25.530  -1.530  29.901  0.00  0.00    +0.001 A 
ATOM      5  C   UNL A   1     -26.658  -2.292  30.203  0.00  0.00    +0.011 A 
ATOM      6  C   UNL A   1     -27.855  -1.956  29.763  0.00  0.00    +0.058 A 
ATOM      7 CL   UNL A   1     -29.200  -2.921  30.239  0.00  0.00    -0.082 Cl
ENDROOT
BRANCH   3   8
ATOM      8  C   UNL A   1     -24.535   0.413  28.743  0.00  0.00    +0.000 A 
ATOM      9  C   UNL A   1     -24.483   1.243  27.740  0.00  0.00    +0.000 A 
ATOM     10  C   UNL A   1     -23.472   1.902  27.384  0.00  0.00    +0.000 A 
ATOM     11  C   UNL A   1     -22.179   1.716  27.929  0.00  0.00    +0.000 A 
ATOM     12  C   UNL A   1     -23.288   0.133  29.428  0.00  0.00    +0.000 A 
ATOM     13  C   UNL A   1     -22.104   0.826  29.005  0.00  0.00    +0.000 A 
ENDBRANCH   3   8
TORSDOF 1
