MODEL 939
MODEL 1
REMARK VINA RESULT:    -6.655      0.000      0.000
REMARK INTER + INTRA:          -7.373
REMARK INTER:                  -7.044
REMARK INTRA:                  -0.330
REMARK UNBOUND:                -0.330
REMARK  Name = No_939-gen_results/8p0m/2024-11-26-14-13-15/
REMARK  1 active torsions:
REMARK  status: ('A' for Active; 'I' for Inactive)
REMARK    1  A    between atoms: C_3  and  C_7
REMARK                            x       y       z     vdW  Elec       q    Type
REMARK                         _______ _______ _______ _____ _____    ______ ____
ROOT
ATOM      1  C   UNL A   1     -23.791   0.539  27.414  0.00  0.00    +0.011 A 
ATOM      2  C   UNL A   1     -24.409  -0.453  27.723  0.00  0.00    +0.001 A 
ATOM      3  C   UNL A   1     -23.948  -1.394  28.643  0.00  0.00    +0.000 A 
ATOM      4  C   UNL A   1     -22.633  -1.222  29.230  0.00  0.00    +0.001 A 
ATOM      5  C   UNL A   1     -21.948  -0.075  28.831  0.00  0.00    +0.011 A 
ATOM      6  C   UNL A   1     -22.456   0.758  27.944  0.00  0.00    +0.058 A 
ATOM      7 CL   UNL A   1     -21.510   2.115  27.464  0.00  0.00    -0.082 Cl
ENDROOT
BRANCH   3   8
ATOM      8  C   UNL A   1     -24.651  -2.641  29.083  0.00  0.00    +0.000 A 
ATOM      9  C   UNL A   1     -24.193  -3.825  28.787  0.00  0.00    +0.000 A 
ATOM     10  C   UNL A   1     -24.754  -4.918  29.057  0.00  0.00    +0.000 A 
ATOM     11  C   UNL A   1     -26.062  -5.021  29.588  0.00  0.00    +0.000 A 
ATOM     12  C   UNL A   1     -25.979  -2.578  29.662  0.00  0.00    +0.000 A 
ATOM     13  C   UNL A   1     -26.669  -3.808  29.927  0.00  0.00    +0.000 A 
ENDBRANCH   3   8
TORSDOF 1
ENDMDL
ENDMDL
