REMARK  Name = No_94-gen_results/8p0m/2024-11-26-14-13-15/
REMARK  2 active torsions:
REMARK  status: ('A' for Active; 'I' for Inactive)
REMARK    1  A    between atoms: N_4  and  C_8
REMARK    2  A    between atoms: C_5  and  C_14
REMARK                            x       y       z     vdW  Elec       q    Type
REMARK                         _______ _______ _______ _____ _____    ______ ____
ROOT
ATOM      1  O   UNL A   1     -28.123  -1.335  28.487  0.00  0.00    -0.275 OA
ATOM      2  C   UNL A   1     -27.481  -0.404  28.709  0.00  0.00    +0.230 C 
ATOM      3  C   UNL A   1     -26.380  -0.087  27.939  0.00  0.00    +0.090 C 
ATOM      4  N   UNL A   1     -27.899   0.646  29.632  0.00  0.00    -0.259 N 
ATOM      5  C   UNL A   1     -25.374   0.747  28.567  0.00  0.00    +0.031 C 
ATOM      6  C   UNL A   1     -25.851   1.882  29.317  0.00  0.00    +0.025 C 
ATOM      7  C   UNL A   1     -26.970   1.533  30.166  0.00  0.00    +0.099 C 
ATOM      8  C   UNL A   1     -24.638   1.541  27.364  0.00  0.00    +0.005 C 
ATOM      9  C   UNL A   1     -24.486   2.779  27.291  0.00  0.00    +0.000 C 
ATOM     10  C   UNL A   1     -25.197   3.728  28.129  0.00  0.00    +0.000 C 
ATOM     11  C   UNL A   1     -25.726   3.279  29.253  0.00  0.00    +0.002 C 
ENDROOT
BRANCH   4  12
ATOM     12  C   UNL A   1     -29.097   0.342  30.328  0.00  0.00    +0.054 A 
ATOM     13  C   UNL A   1     -30.232   0.751  29.618  0.00  0.00    +0.015 A 
ATOM     14  C   UNL A   1     -31.304  -0.022  29.655  0.00  0.00    +0.001 A 
ATOM     15  C   UNL A   1     -31.357  -1.083  30.549  0.00  0.00    +0.000 A 
ATOM     16  C   UNL A   1     -30.222  -1.541  31.235  0.00  0.00    +0.001 A 
ATOM     17  C   UNL A   1     -29.028  -0.738  31.211  0.00  0.00    +0.015 A 
ENDBRANCH   4  12
BRANCH   5  18
ATOM     18  C   UNL A   1     -24.354  -0.035  29.388  0.00  0.00    -0.003 A 
ATOM     19  C   UNL A   1     -24.225  -1.130  29.684  0.00  0.00    -0.001 A 
ATOM     20  C   UNL A   1     -23.090  -1.771  30.398  0.00  0.00    +0.020 A 
ATOM     21  C   UNL A   1     -22.162  -0.802  30.851  0.00  0.00    +0.099 A 
ATOM     22  C   UNL A   1     -23.181   0.947  29.888  0.00  0.00    +0.095 A 
ATOM     23  N   UNL A   1     -22.221   0.490  30.401  0.00  0.00    -0.243 NA
ENDBRANCH   5  18
TORSDOF 2
