REMARK  Name = No_940-gen_results/8p0m/2024-11-26-14-13-15/
REMARK  0 active torsions:
REMARK  status: ('A' for Active; 'I' for Inactive)
REMARK                            x       y       z     vdW  Elec       q    Type
REMARK                         _______ _______ _______ _____ _____    ______ ____
ROOT
ATOM      1  C   UNL A   1     -28.016  -0.814  28.878  0.00  0.00    -0.000 A 
ATOM      2  C   UNL A   1     -28.469  -0.785  29.829  0.00  0.00    -0.000 A 
ATOM      3  C   UNL A   1     -27.136   0.236  28.535  0.00  0.00    -0.000 A 
ATOM      4  C   UNL A   1     -26.335   0.290  27.284  0.00  0.00    -0.000 A 
ATOM      5  C   UNL A   1     -28.369   0.196  30.924  0.00  0.00    +0.000 A 
ATOM      6  C   UNL A   1     -27.516   1.266  30.654  0.00  0.00    +0.000 A 
ATOM      7  C   UNL A   1     -26.841   1.294  29.476  0.00  0.00    +0.000 A 
ATOM      8  C   UNL A   1     -25.361   0.775  26.967  0.00  0.00    -0.004 A 
ATOM      9  C   UNL A   1     -24.831   1.767  28.017  0.00  0.00    +0.006 A 
ATOM     10  C   UNL A   1     -25.567   2.002  29.202  0.00  0.00    +0.001 A 
ATOM     11  C   UNL A   1     -23.620   2.609  27.665  0.00  0.00    +0.035 A 
ATOM     12 BR   UNL A   1     -22.879   3.013  28.869  0.00  0.00    -0.049 Br
ATOM     13  C   UNL A   1     -23.188   2.611  26.305  0.00  0.00    +0.006 A 
ATOM     14  C   UNL A   1     -23.829   1.822  25.253  0.00  0.00    -0.004 A 
ATOM     15  C   UNL A   1     -24.853   0.993  25.626  0.00  0.00    -0.022 A 
ATOM     16  C   UNL A   1     -25.359   0.182  24.600  0.00  0.00    +0.031 C 
ENDROOT
TORSDOF 0
