MODEL 940
MODEL 1
REMARK VINA RESULT:    -7.120      0.000      0.000
REMARK INTER + INTRA:          -7.120
REMARK INTER:                  -7.120
REMARK INTRA:                   0.000
REMARK UNBOUND:                 0.000
REMARK  Name = No_940-gen_results/8p0m/2024-11-26-14-13-15/
REMARK  0 active torsions:
REMARK  status: ('A' for Active; 'I' for Inactive)
REMARK                            x       y       z     vdW  Elec       q    Type
REMARK                         _______ _______ _______ _____ _____    ______ ____
ROOT
ATOM      1  C   UNL A   1     -23.870  -4.357  28.537  0.00  0.00    -0.000 A 
ATOM      2  C   UNL A   1     -24.495  -5.197  28.659  0.00  0.00    -0.000 A 
ATOM      3  C   UNL A   1     -24.312  -3.125  29.066  0.00  0.00    -0.000 A 
ATOM      4  C   UNL A   1     -23.508  -1.875  29.075  0.00  0.00    -0.000 A 
ATOM      5  C   UNL A   1     -25.816  -5.342  29.296  0.00  0.00    +0.000 A 
ATOM      6  C   UNL A   1     -26.318  -4.160  29.840  0.00  0.00    +0.000 A 
ATOM      7  C   UNL A   1     -25.565  -3.032  29.783  0.00  0.00    +0.000 A 
ATOM      8  C   UNL A   1     -23.473  -0.940  29.715  0.00  0.00    -0.004 A 
ATOM      9  C   UNL A   1     -24.660  -0.853  30.691  0.00  0.00    +0.006 A 
ATOM     10  C   UNL A   1     -25.650  -1.863  30.692  0.00  0.00    +0.001 A 
ATOM     11  C   UNL A   1     -24.833   0.417  31.502  0.00  0.00    +0.035 A 
ATOM     12 BR   UNL A   1     -25.554   0.158  32.757  0.00  0.00    -0.049 Br
ATOM     13  C   UNL A   1     -24.037   1.545  31.143  0.00  0.00    +0.006 A 
ATOM     14  C   UNL A   1     -23.047   1.525  30.066  0.00  0.00    -0.004 A 
ATOM     15  C   UNL A   1     -22.842   0.333  29.424  0.00  0.00    -0.022 A 
ATOM     16  C   UNL A   1     -21.809   0.344  28.476  0.00  0.00    +0.031 C 
ENDROOT
TORSDOF 0
ENDMDL
ENDMDL
