REMARK  Name = No_941-gen_results/8p0m/2024-11-26-14-13-15/
REMARK  4 active torsions:
REMARK  status: ('A' for Active; 'I' for Inactive)
REMARK    1  A    between atoms: C_4  and  C_7
REMARK    2  A    between atoms: C_7  and  C_8
REMARK    3  A    between atoms: C_9  and  N_10
REMARK    4  A    between atoms: C_11  and  C_12
REMARK                            x       y       z     vdW  Elec       q    Type
REMARK                         _______ _______ _______ _____ _____    ______ ____
ROOT
ATOM      1  C   UNL A   1     -24.366  -1.113  30.048  0.00  0.00    +0.054 C 
ENDROOT
BRANCH   1   5
ATOM      2  C   UNL A   1     -28.016  -0.814  28.878  0.00  0.00    -0.000 A 
ATOM      3  C   UNL A   1     -28.469  -0.785  29.829  0.00  0.00    -0.000 A 
ATOM      4  C   UNL A   1     -26.546  -0.876  28.850  0.00  0.00    -0.004 A 
ATOM      5  C   UNL A   1     -25.804  -1.032  30.057  0.00  0.00    -0.018 A 
ATOM      6  C   UNL A   1     -26.537  -1.039  31.217  0.00  0.00    -0.004 A 
ATOM      7  C   UNL A   1     -27.884  -0.953  31.186  0.00  0.00    -0.000 A 
ENDBRANCH   1   5
BRANCH   1   8
ATOM      8  C   UNL A   1     -23.692   0.119  29.919  0.00  0.00    -0.001 C 
ATOM      9  C   UNL A   1     -23.986   1.274  30.452  0.00  0.00    +0.095 C 
BRANCH   9  10
ATOM     10  N   UNL A   1     -25.056   1.375  31.232  0.00  0.00    -0.243 NA
ATOM     11  C   UNL A   1     -25.359   2.672  31.777  0.00  0.00    +0.099 C 
BRANCH  11  12
ATOM     12  C   UNL A   1     -26.323   2.788  32.814  0.00  0.00    +0.016 C 
ATOM     13  C   UNL A   1     -27.057   1.799  33.234  0.00  0.00    -0.024 C 
ATOM     14  C   UNL A   1     -26.527   0.562  33.109  0.00  0.00    +0.031 C 
ENDBRANCH  11  12
ENDBRANCH   9  10
ENDBRANCH   1   8
TORSDOF 4
