REMARK  Name = No_942-gen_results/8p0m/2024-11-26-14-13-15/
REMARK  2 active torsions:
REMARK  status: ('A' for Active; 'I' for Inactive)
REMARK    1  A    between atoms: C_5  and  C_6
REMARK    2  A    between atoms: C_11  and  C_15
REMARK                            x       y       z     vdW  Elec       q    Type
REMARK                         _______ _______ _______ _____ _____    ______ ____
ROOT
ATOM      1  C   UNL A   1     -28.016  -0.814  28.878  0.00  0.00    -0.002 A 
ATOM      2  C   UNL A   1     -27.064  -0.119  28.608  0.00  0.00    -0.001 A 
ATOM      3  C   UNL A   1     -26.972   0.714  27.506  0.00  0.00    -0.002 A 
ATOM      4  C   UNL A   1     -28.105   0.774  26.642  0.00  0.00    +0.006 A 
ATOM      5  C   UNL A   1     -29.204   0.118  27.048  0.00  0.00    +0.080 A 
ATOM      6  C   UNL A   1     -29.182  -0.676  28.117  0.00  0.00    +0.006 A 
ATOM      7  C   UNL A   1     -25.669   1.419  27.134  0.00  0.00    +0.008 C 
ATOM      8  C   UNL A   1     -24.529   1.050  27.720  0.00  0.00    +0.097 C 
ATOM      9  C   UNL A   1     -24.281   0.150  28.729  0.00  0.00    +0.005 C 
ATOM     10  C   UNL A   1     -24.929  -0.435  29.265  0.00  0.00    -0.003 C 
ATOM     11  C   UNL A   1     -25.900  -0.564  29.231  0.00  0.00    +0.136 C 
ATOM     12  N   UNL A   1     -26.230  -1.647  30.044  0.00  0.00    -0.123 NA
ENDROOT
BRANCH   5  13
ATOM     13  C   UNL A   1     -30.349   0.257  26.220  0.00  0.00    +0.388 C 
ATOM     14  O   UNL A   1     -30.328  -0.055  25.016  0.00  0.00    -0.241 OA
ATOM     15  O   UNL A   1     -31.541   0.494  26.726  0.00  0.00    -0.241 OA
ENDBRANCH   5  13
BRANCH   8  16
ATOM     16  C   UNL A   1     -23.308   1.876  27.221  0.00  0.00    +0.477 C 
ATOM     17  N   UNL A   1     -22.101   1.572  27.763  0.00  0.00    +0.205 NA
ATOM     18  N   UNL A   1     -23.405   2.842  26.337  0.00  0.00    +0.205 NA
ENDBRANCH   8  16
TORSDOF 2
