MODEL 942
MODEL 1
REMARK VINA RESULT:    -7.139      0.000      0.000
REMARK INTER + INTRA:          -8.182
REMARK INTER:                  -7.973
REMARK INTRA:                  -0.208
REMARK UNBOUND:                -0.208
REMARK  Name = No_942-gen_results/8p0m/2024-11-26-14-13-15/
REMARK  2 active torsions:
REMARK  status: ('A' for Active; 'I' for Inactive)
REMARK    1  A    between atoms: C_5  and  C_6
REMARK    2  A    between atoms: C_11  and  C_15
REMARK                            x       y       z     vdW  Elec       q    Type
REMARK                         _______ _______ _______ _____ _____    ______ ____
ROOT
ATOM      1  C   UNL A   1     -29.956  -9.827  31.980  0.00  0.00    -0.002 A 
ATOM      2  C   UNL A   1     -29.956 -10.453  30.946  0.00  0.00    -0.001 A 
ATOM      3  C   UNL A   1     -29.063 -11.460  30.624  0.00  0.00    -0.002 A 
ATOM      4  C   UNL A   1     -28.087 -11.801  31.607  0.00  0.00    +0.006 A 
ATOM      5  C   UNL A   1     -28.208 -11.203  32.803  0.00  0.00    +0.080 A 
ATOM      6  C   UNL A   1     -29.092 -10.228  33.005  0.00  0.00    +0.006 A 
ATOM      7  C   UNL A   1     -29.011 -12.078  29.227  0.00  0.00    +0.008 C 
ATOM      8  C   UNL A   1     -29.656 -11.486  28.221  0.00  0.00    +0.097 C 
ATOM      9  C   UNL A   1     -30.490 -10.394  28.199  0.00  0.00    +0.005 C 
ATOM     10  C   UNL A   1     -30.811  -9.793  28.965  0.00  0.00    -0.003 C 
ATOM     11  C   UNL A   1     -30.625  -9.778  29.927  0.00  0.00    +0.136 C 
ATOM     12  N   UNL A   1     -31.157  -8.605  30.460  0.00  0.00    -0.123 NA
ENDROOT
BRANCH   5  13
ATOM     13  C   UNL A   1     -27.282 -11.616  33.797  0.00  0.00    +0.388 C 
ATOM     14  O   UNL A   1     -26.728 -12.729  33.755  0.00  0.00    -0.241 OA
ATOM     15  O   UNL A   1     -26.786 -10.766  34.672  0.00  0.00    -0.241 OA
ENDBRANCH   5  13
BRANCH   8  16
ATOM     16  C   UNL A   1     -29.495 -12.253  26.876  0.00  0.00    +0.477 C 
ATOM     17  N   UNL A   1     -29.907 -11.613  25.753  0.00  0.00    +0.205 NA
ATOM     18  N   UNL A   1     -29.008 -13.470  26.796  0.00  0.00    +0.205 NA
ENDBRANCH   8  16
TORSDOF 2
ENDMDL
ENDMDL
