REMARK  Name = No_943-gen_results/8p0m/2024-11-26-14-13-15/
REMARK  4 active torsions:
REMARK  status: ('A' for Active; 'I' for Inactive)
REMARK    1  A    between atoms: C_1  and  C_2
REMARK    2  A    between atoms: C_3  and  C_12
REMARK    3  A    between atoms: C_5  and  C_9
REMARK    4  A    between atoms: C_17  and  C_18
REMARK                            x       y       z     vdW  Elec       q    Type
REMARK                         _______ _______ _______ _____ _____    ______ ____
ROOT
ATOM      1  C   UNL A   1     -27.064  -0.119  28.608  0.00  0.00    -0.006 A 
ATOM      2  C   UNL A   1     -26.972   0.714  27.506  0.00  0.00    -0.003 A 
ATOM      3  C   UNL A   1     -25.820   1.491  27.116  0.00  0.00    -0.001 A 
ATOM      4  C   UNL A   1     -24.656   1.424  27.918  0.00  0.00    +0.025 A 
ATOM      5  C   UNL A   1     -24.685   0.590  29.066  0.00  0.00    -0.001 A 
ATOM      6  C   UNL A   1     -25.810  -0.127  29.334  0.00  0.00    -0.003 A 
ENDROOT
BRANCH   2   7
ATOM      7  C   UNL A   1     -28.065   0.791  26.546  0.00  0.00    -0.000 A 
ATOM      8  C   UNL A   1     -29.314   1.218  27.017  0.00  0.00    -0.000 A 
ATOM      9  C   UNL A   1     -30.383   1.277  26.144  0.00  0.00    +0.004 A 
ATOM     10  C   UNL A   1     -27.921   0.466  25.218  0.00  0.00    -0.000 A 
ATOM     11  C   UNL A   1     -28.954   0.493  24.329  0.00  0.00    +0.004 A 
ATOM     12  C   UNL A   1     -30.186   0.983  24.764  0.00  0.00    +0.071 A 
BRANCH  12  13
ATOM     13  C   UNL A   1     -31.308   1.058  23.843  0.00  0.00    +0.419 C 
ATOM     14  F   UNL A   1     -32.374   1.161  24.540  0.00  0.00    -0.166 F 
ATOM     15  F   UNL A   1     -31.151   2.236  23.086  0.00  0.00    -0.166 F 
ATOM     16  F   UNL A   1     -31.320   0.090  22.970  0.00  0.00    -0.166 F 
ENDBRANCH  12  13
ENDBRANCH   2   7
BRANCH   4  17
ATOM     17  C   UNL A   1     -23.462   2.195  27.609  0.00  0.00    +0.262 C 
ATOM     18 CL   UNL A   1     -22.420   2.462  28.792  0.00  0.00    -0.072 Cl
ATOM     19  F   UNL A   1     -23.191   2.615  26.467  0.00  0.00    -0.214 F 
ENDBRANCH   4  17
BRANCH   1  20
ATOM     20  C   UNL A   1     -28.016  -0.814  28.878  0.00  0.00    +0.121 C 
ATOM     21 CL   UNL A   1     -28.750  -0.700  30.038  0.00  0.00    -0.108 Cl
ENDBRANCH   1  20
TORSDOF 4
