REMARK  Name = No_944-gen_results/8p0m/2024-11-26-14-13-15/
REMARK  2 active torsions:
REMARK  status: ('A' for Active; 'I' for Inactive)
REMARK    1  A    between atoms: C_1  and  C_6
REMARK    2  A    between atoms: C_3  and  C_12
REMARK                            x       y       z     vdW  Elec       q    Type
REMARK                         _______ _______ _______ _____ _____    ______ ____
ROOT
ATOM      1  C   UNL A   1     -28.016  -0.814  28.878  0.00  0.00    +0.072 A 
ATOM      2  C   UNL A   1     -27.064  -0.119  28.608  0.00  0.00    +0.005 A 
ATOM      3  C   UNL A   1     -26.972   0.714  27.506  0.00  0.00    +0.018 A 
ATOM      4  C   UNL A   1     -28.105   0.774  26.642  0.00  0.00    +0.013 A 
ATOM      5  C   UNL A   1     -29.201   0.104  27.053  0.00  0.00    +0.058 A 
ATOM      6  C   UNL A   1     -29.164  -0.639  28.148  0.00  0.00    +0.015 A 
ATOM      7 CL   UNL A   1     -30.578   0.206  26.038  0.00  0.00    -0.082 Cl
ENDROOT
BRANCH   3   8
ATOM      8  C   UNL A   1     -25.691   1.415  27.137  0.00  0.00    +0.081 A 
ATOM      9  N   UNL A   1     -25.436   2.004  26.146  0.00  0.00    -0.244 NA
ATOM     10  C   UNL A   1     -24.147   2.496  25.818  0.00  0.00    +0.099 A 
ATOM     11  C   UNL A   1     -23.128   2.274  26.878  0.00  0.00    +0.021 A 
ATOM     12  C   UNL A   1     -24.446   1.236  27.982  0.00  0.00    +0.019 A 
ATOM     13  C   UNL A   1     -23.342   1.733  27.845  0.00  0.00    +0.003 A 
ENDBRANCH   3   8
BRANCH   1  14
ATOM     14  C   UNL A   1     -28.022  -1.590  30.088  0.00  0.00    +0.419 C 
ATOM     15  F   UNL A   1     -27.143  -2.485  30.153  0.00  0.00    -0.166 F 
ATOM     16  F   UNL A   1     -29.232  -2.282  30.193  0.00  0.00    -0.166 F 
ATOM     17  F   UNL A   1     -27.941  -0.911  31.245  0.00  0.00    -0.166 F 
ENDBRANCH   1  14
TORSDOF 2
