MODEL 944
MODEL 1
REMARK VINA RESULT:    -6.455      0.000      0.000
REMARK INTER + INTRA:          -7.645
REMARK INTER:                  -7.210
REMARK INTRA:                  -0.435
REMARK UNBOUND:                -0.435
REMARK  Name = No_944-gen_results/8p0m/2024-11-26-14-13-15/
REMARK  2 active torsions:
REMARK  status: ('A' for Active; 'I' for Inactive)
REMARK    1  A    between atoms: C_1  and  C_6
REMARK    2  A    between atoms: C_3  and  C_12
REMARK                            x       y       z     vdW  Elec       q    Type
REMARK                         _______ _______ _______ _____ _____    ______ ____
ROOT
ATOM      1  C   UNL A   1     -26.215  -2.519  29.994  0.00  0.00    +0.072 A 
ATOM      2  C   UNL A   1     -25.380  -1.749  29.579  0.00  0.00    +0.005 A 
ATOM      3  C   UNL A   1     -24.197  -2.114  28.960  0.00  0.00    +0.018 A 
ATOM      4  C   UNL A   1     -23.965  -3.509  28.773  0.00  0.00    +0.013 A 
ATOM      5  C   UNL A   1     -24.981  -4.329  29.110  0.00  0.00    +0.058 A 
ATOM      6  C   UNL A   1     -26.078  -3.846  29.673  0.00  0.00    +0.015 A 
ATOM      7 CL   UNL A   1     -24.723  -6.003  28.850  0.00  0.00    -0.082 Cl
ENDROOT
BRANCH   3   8
ATOM      8  C   UNL A   1     -23.124  -1.110  28.628  0.00  0.00    +0.081 A 
ATOM      9  N   UNL A   1     -21.980  -1.134  28.920  0.00  0.00    -0.244 NA
ATOM     10  C   UNL A   1     -21.076  -0.064  28.701  0.00  0.00    +0.099 A 
ATOM     11  C   UNL A   1     -21.675   1.096  27.989  0.00  0.00    +0.021 A 
ATOM     12  C   UNL A   1     -23.487   0.230  28.021  0.00  0.00    +0.019 A 
ATOM     13  C   UNL A   1     -22.759   1.145  27.677  0.00  0.00    +0.003 A 
ENDBRANCH   3   8
BRANCH   1  14
ATOM     14  C   UNL A   1     -27.437  -2.020  30.562  0.00  0.00    +0.419 C 
ATOM     15  F   UNL A   1     -28.105  -1.264  29.813  0.00  0.00    -0.166 F 
ATOM     16  F   UNL A   1     -27.146  -1.234  31.680  0.00  0.00    -0.166 F 
ATOM     17  F   UNL A   1     -28.306  -2.932  31.031  0.00  0.00    -0.166 F 
ENDBRANCH   1  14
TORSDOF 2
ENDMDL
ENDMDL
