REMARK  Name = No_945-gen_results/8p0m/2024-11-26-14-13-15/
REMARK  2 active torsions:
REMARK  status: ('A' for Active; 'I' for Inactive)
REMARK    1  A    between atoms: C_4  and  C_7
REMARK    2  A    between atoms: C_7  and  C_8
REMARK                            x       y       z     vdW  Elec       q    Type
REMARK                         _______ _______ _______ _____ _____    ______ ____
ROOT
ATOM      1  C   UNL A   1     -24.392  -1.740  29.564  0.00  0.00    +0.053 C 
ENDROOT
BRANCH   1   5
ATOM      2  C   UNL A   1     -28.016  -0.814  28.878  0.00  0.00    -0.000 A 
ATOM      3  C   UNL A   1     -28.469  -0.785  29.829  0.00  0.00    -0.000 A 
ATOM      4  C   UNL A   1     -26.603  -1.060  28.538  0.00  0.00    -0.004 A 
ATOM      5  C   UNL A   1     -25.797  -1.449  29.727  0.00  0.00    -0.018 A 
ATOM      6  C   UNL A   1     -26.428  -1.541  30.983  0.00  0.00    -0.004 A 
ATOM      7  C   UNL A   1     -27.756  -1.244  31.075  0.00  0.00    -0.000 A 
ENDBRANCH   1   5
BRANCH   1   8
ATOM      8  C   UNL A   1     -23.410  -0.667  29.603  0.00  0.00    -0.018 A 
ATOM      9  C   UNL A   1     -22.309  -0.667  28.789  0.00  0.00    -0.004 A 
ATOM     10  C   UNL A   1     -23.714   0.441  30.518  0.00  0.00    -0.004 A 
ATOM     11  C   UNL A   1     -21.449   0.459  28.738  0.00  0.00    -0.000 A 
ATOM     12  C   UNL A   1     -22.907   1.679  30.331  0.00  0.00    -0.000 A 
ATOM     13  C   UNL A   1     -21.771   1.624  29.510  0.00  0.00    -0.000 A 
ENDBRANCH   1   8
TORSDOF 2
