MODEL 945
MODEL 1
REMARK VINA RESULT:    -6.450      0.000      0.000
REMARK INTER + INTRA:          -7.657
REMARK INTER:                  -7.205
REMARK INTRA:                  -0.452
REMARK UNBOUND:                -0.452
REMARK  Name = No_945-gen_results/8p0m/2024-11-26-14-13-15/
REMARK  2 active torsions:
REMARK  status: ('A' for Active; 'I' for Inactive)
REMARK    1  A    between atoms: C_4  and  C_7
REMARK    2  A    between atoms: C_7  and  C_8
REMARK                            x       y       z     vdW  Elec       q    Type
REMARK                         _______ _______ _______ _____ _____    ______ ____
ROOT
ATOM      1  C   UNL A   1     -24.372  -1.049  29.672  0.00  0.00    +0.053 C 
ENDROOT
BRANCH   1   5
ATOM      2  C   UNL A   1     -26.183  -4.393  29.669  0.00  0.00    -0.000 A 
ATOM      3  C   UNL A   1     -25.487  -5.073  29.265  0.00  0.00    -0.000 A 
ATOM      4  C   UNL A   1     -26.005  -2.960  29.964  0.00  0.00    -0.004 A 
ATOM      5  C   UNL A   1     -24.698  -2.442  29.475  0.00  0.00    -0.018 A 
ATOM      6  C   UNL A   1     -23.817  -3.319  28.814  0.00  0.00    -0.004 A 
ATOM      7  C   UNL A   1     -24.178  -4.626  28.667  0.00  0.00    -0.000 A 
ENDBRANCH   1   5
BRANCH   1   8
ATOM      8  C   UNL A   1     -23.918  -0.235  28.555  0.00  0.00    -0.018 A 
ATOM      9  C   UNL A   1     -24.695  -0.038  27.444  0.00  0.00    -0.004 A 
ATOM     10  C   UNL A   1     -22.611   0.411  28.728  0.00  0.00    -0.004 A 
ATOM     11  C   UNL A   1     -24.296   0.878  26.438  0.00  0.00    -0.000 A 
ATOM     12  C   UNL A   1     -22.286   1.492  27.755  0.00  0.00    -0.000 A 
ATOM     13  C   UNL A   1     -23.093   1.639  26.618  0.00  0.00    -0.000 A 
ENDBRANCH   1   8
TORSDOF 2
ENDMDL
ENDMDL
