REMARK  Name = No_946-gen_results/8p0m/2024-11-26-14-13-15/
REMARK  2 active torsions:
REMARK  status: ('A' for Active; 'I' for Inactive)
REMARK    1  A    between atoms: C_7  and  C_9
REMARK    2  A    between atoms: C_11  and  C_14
REMARK                            x       y       z     vdW  Elec       q    Type
REMARK                         _______ _______ _______ _____ _____    ______ ____
ROOT
ATOM      1  C   UNL A   1     -27.222   0.762  31.315  0.00  0.00    +0.082 A 
ATOM      2  N   UNL A   1     -27.434  -0.061  31.916  0.00  0.00    -0.241 NA
ATOM      3  C   UNL A   1     -28.215  -0.161  33.059  0.00  0.00    +0.153 A 
ATOM      4  C   UNL A   1     -27.762   2.089  31.692  0.00  0.00    +0.019 A 
ATOM      5  C   UNL A   1     -28.491   2.201  32.856  0.00  0.00    +0.003 A 
ATOM      6  C   UNL A   1     -28.690   0.987  33.585  0.00  0.00    +0.023 A 
ENDROOT
BRANCH   1  13
ATOM      7 CL   UNL A   1     -28.149  -0.820  28.908  0.00  0.00    -0.082 Cl
ATOM      8  C   UNL A   1     -26.912  -0.080  28.945  0.00  0.00    +0.060 A 
ATOM      9  C   UNL A   1     -26.049  -0.072  27.859  0.00  0.00    +0.023 A 
ATOM     10  C   UNL A   1     -25.229   1.013  27.620  0.00  0.00    +0.059 A 
ATOM     11  C   UNL A   1     -24.746   1.800  28.692  0.00  0.00    +0.011 A 
ATOM     12  C   UNL A   1     -25.458   1.662  29.863  0.00  0.00    +0.003 A 
ATOM     13  C   UNL A   1     -26.479   0.796  30.004  0.00  0.00    +0.028 A 
ATOM     14 CL   UNL A   1     -24.216   1.087  26.198  0.00  0.00    -0.082 Cl
ENDBRANCH   1  13
BRANCH   3  15
ATOM     15  C   UNL A   1     -28.464  -1.427  33.778  0.00  0.00    +0.435 C 
ATOM     16  F   UNL A   1     -29.866  -1.559  33.994  0.00  0.00    -0.164 F 
ATOM     17  F   UNL A   1     -27.813  -1.431  34.916  0.00  0.00    -0.164 F 
ATOM     18  F   UNL A   1     -28.117  -2.446  32.997  0.00  0.00    -0.164 F 
ENDBRANCH   3  15
TORSDOF 2
