REMARK  Name = No_947-gen_results/8p0m/2024-11-26-14-13-15/
REMARK  6 active torsions:
REMARK  status: ('A' for Active; 'I' for Inactive)
REMARK    1  A    between atoms: C_1  and  C_3
REMARK    2  A    between atoms: C_8  and  C_13
REMARK    3  A    between atoms: N_14  and  C_16
REMARK    4  A    between atoms: C_17  and  C_18
REMARK    5  A    between atoms: C_19  and  C_21
REMARK    6  A    between atoms: C_22  and  C_23
REMARK                            x       y       z     vdW  Elec       q    Type
REMARK                         _______ _______ _______ _____ _____    ______ ____
ROOT
ATOM      1  C   UNL A   1     -28.016  -0.814  28.878  0.00  0.00    +0.000 A 
ATOM      2  C   UNL A   1     -28.469  -0.785  29.829  0.00  0.00    +0.000 A 
ATOM      3  C   UNL A   1     -28.308  -1.988  30.863  0.00  0.00    +0.000 A 
ATOM      4  C   UNL A   1     -27.528  -3.019  30.360  0.00  0.00    +0.005 A 
ATOM      5  C   UNL A   1     -26.739  -2.848  29.272  0.00  0.00    +0.055 A 
ATOM      6  C   UNL A   1     -26.909  -1.658  28.534  0.00  0.00    +0.005 A 
ENDROOT
BRANCH   1   7
ATOM      7  C   UNL A   1     -28.182   0.428  28.113  0.00  0.00    +0.000 A 
ATOM      8  C   UNL A   1     -27.450   0.643  26.850  0.00  0.00    +0.000 A 
ATOM      9  C   UNL A   1     -27.860   1.457  25.908  0.00  0.00    +0.000 A 
ATOM     10  C   UNL A   1     -28.956   2.352  26.093  0.00  0.00    +0.000 A 
ATOM     11  C   UNL A   1     -29.616   2.233  27.310  0.00  0.00    +0.000 A 
ATOM     12  C   UNL A   1     -29.278   1.238  28.255  0.00  0.00    +0.000 A 
ENDBRANCH   1   7
BRANCH   5  13
ATOM     13  C   UNL A   1     -25.689  -3.822  28.994  0.00  0.00    +0.271 C 
ATOM     14  N   UNL A   1     -24.369  -3.392  28.802  0.00  0.00    -0.147 NA
ATOM     15  O   UNL A   1     -25.845  -5.024  29.179  0.00  0.00    -0.268 OA
BRANCH  14  16
ATOM     16  C   UNL A   1     -23.901  -2.064  28.806  0.00  0.00    +0.215 C 
ATOM     17  C   UNL A   1     -22.715  -1.776  29.543  0.00  0.00    +0.047 C 
ATOM     18  F   UNL A   1     -24.375  -1.224  28.023  0.00  0.00    -0.186 F 
BRANCH  17  19
ATOM     19  C   UNL A   1     -22.207  -0.439  29.287  0.00  0.00    +0.004 C 
ATOM     20  C   UNL A   1     -22.798   0.490  28.444  0.00  0.00    +0.000 C 
BRANCH  20  21
ATOM     21  C   UNL A   1     -22.236   1.850  28.239  0.00  0.00    +0.000 C 
ATOM     22  C   UNL A   1     -23.057   2.617  27.438  0.00  0.00    +0.000 C 
BRANCH  22  23
ATOM     23  C   UNL A   1     -24.342   2.057  26.942  0.00  0.00    +0.000 C 
ATOM     24  C   UNL A   1     -24.673   0.786  27.190  0.00  0.00    +0.000 C 
ENDBRANCH  22  23
ENDBRANCH  20  21
ENDBRANCH  17  19
ENDBRANCH  14  16
ENDBRANCH   5  13
TORSDOF 6
