MODEL 947
MODEL 1
REMARK VINA RESULT:    -6.777      0.000      0.000
REMARK INTER + INTRA:         -11.688
REMARK INTER:                  -9.154
REMARK INTRA:                  -2.534
REMARK UNBOUND:                -2.534
REMARK  Name = No_947-gen_results/8p0m/2024-11-26-14-13-15/
REMARK  6 active torsions:
REMARK  status: ('A' for Active; 'I' for Inactive)
REMARK    1  A    between atoms: C_1  and  C_3
REMARK    2  A    between atoms: C_8  and  C_13
REMARK    3  A    between atoms: N_14  and  C_16
REMARK    4  A    between atoms: C_17  and  C_18
REMARK    5  A    between atoms: C_19  and  C_21
REMARK    6  A    between atoms: C_22  and  C_23
REMARK                            x       y       z     vdW  Elec       q    Type
REMARK                         _______ _______ _______ _____ _____    ______ ____
ROOT
ATOM      1  C   UNL A   1     -23.670  -1.536  28.573  0.00  0.00    +0.000 A 
ATOM      2  C   UNL A   1     -22.871  -1.548  29.259  0.00  0.00    +0.000 A 
ATOM      3  C   UNL A   1     -21.842  -0.334  29.358  0.00  0.00    +0.000 A 
ATOM      4  C   UNL A   1     -22.136   0.684  28.462  0.00  0.00    +0.005 A 
ATOM      5  C   UNL A   1     -23.338   0.762  27.843  0.00  0.00    +0.055 A 
ATOM      6  C   UNL A   1     -24.198  -0.350  27.966  0.00  0.00    +0.005 A 
ENDROOT
BRANCH   1   7
ATOM      7  C   UNL A   1     -24.573  -2.686  28.707  0.00  0.00    +0.000 A 
ATOM      8  C   UNL A   1     -24.087  -4.061  28.479  0.00  0.00    +0.000 A 
ATOM      9  C   UNL A   1     -24.651  -5.122  29.002  0.00  0.00    +0.000 A 
ATOM     10  C   UNL A   1     -25.900  -5.063  29.691  0.00  0.00    +0.000 A 
ATOM     11  C   UNL A   1     -26.428  -3.788  29.849  0.00  0.00    +0.000 A 
ATOM     12  C   UNL A   1     -25.733  -2.629  29.433  0.00  0.00    +0.000 A 
ENDBRANCH   1   7
BRANCH   5  13
ATOM     13  C   UNL A   1     -23.728   2.012  27.200  0.00  0.00    +0.271 C 
ATOM     14  N   UNL A   1     -24.627   2.876  27.838  0.00  0.00    -0.147 NA
ATOM     15  O   UNL A   1     -23.112   2.478  26.248  0.00  0.00    -0.268 OA
BRANCH  14  16
ATOM     16  C   UNL A   1     -25.270   2.670  29.074  0.00  0.00    +0.215 C 
ATOM     17  C   UNL A   1     -26.599   2.153  29.058  0.00  0.00    +0.047 C 
ATOM     18  F   UNL A   1     -24.629   2.726  30.137  0.00  0.00    -0.186 F 
BRANCH  17  19
ATOM     19  C   UNL A   1     -27.066   1.769  30.379  0.00  0.00    +0.004 C 
ATOM     20  C   UNL A   1     -26.991   0.490  30.910  0.00  0.00    +0.000 C 
BRANCH  20  21
ATOM     21  C   UNL A   1     -27.473   0.166  32.278  0.00  0.00    +0.000 C 
ATOM     22  C   UNL A   1     -26.423  -0.128  33.123  0.00  0.00    +0.000 C 
BRANCH  22  23
ATOM     23  C   UNL A   1     -25.025  -0.050  32.624  0.00  0.00    +0.000 C 
ATOM     24  C   UNL A   1     -24.188  -1.082  32.773  0.00  0.00    +0.000 C 
ENDBRANCH  22  23
ENDBRANCH  20  21
ENDBRANCH  17  19
ENDBRANCH  14  16
ENDBRANCH   5  13
TORSDOF 6
ENDMDL
ENDMDL
