REMARK  Name = No_948-gen_results/8p0m/2024-11-26-14-13-15/
REMARK  2 active torsions:
REMARK  status: ('A' for Active; 'I' for Inactive)
REMARK    1  A    between atoms: C_5  and  C_9
REMARK    2  A    between atoms: C_9  and  C_11
REMARK                            x       y       z     vdW  Elec       q    Type
REMARK                         _______ _______ _______ _____ _____    ______ ____
ROOT
ATOM      1  C   UNL A   1     -28.016  -0.814  28.878  0.00  0.00    +0.094 A 
ATOM      2  C   UNL A   1     -27.064  -0.119  28.608  0.00  0.00    -0.007 A 
ATOM      3  C   UNL A   1     -26.876   1.133  28.913  0.00  0.00    -0.023 A 
ATOM      4  C   UNL A   1     -25.688   1.952  28.567  0.00  0.00    +0.030 C 
ATOM      5  C   UNL A   1     -24.639   1.283  27.875  0.00  0.00    +0.028 C 
ATOM      6  C   UNL A   1     -24.807  -0.051  27.604  0.00  0.00    +0.009 C 
ATOM      7  C   UNL A   1     -25.902  -0.767  27.951  0.00  0.00    +0.028 C 
ATOM      8  N   UNL A   1     -28.720  -0.602  30.046  0.00  0.00    -0.243 NA
ATOM      9  C   UNL A   1     -28.451   0.089  30.812  0.00  0.00    +0.099 A 
ATOM     10  C   UNL A   1     -27.589   1.277  30.518  0.00  0.00    +0.016 A 
ENDROOT
BRANCH   5  11
ATOM     11  C   UNL A   1     -23.618   2.169  27.425  0.00  0.00    +0.021 C 
ATOM     12  C   UNL A   1     -23.663   2.810  26.314  0.00  0.00    -0.004 C 
BRANCH  11  13
ATOM     13  C   UNL A   1     -22.264   1.915  28.001  0.00  0.00    +0.337 C 
ATOM     14  F   UNL A   1     -22.164   1.481  29.166  0.00  0.00    -0.194 F 
ATOM     15  F   UNL A   1     -21.622   1.022  27.149  0.00  0.00    -0.194 F 
ENDBRANCH  11  13
ENDBRANCH   5  11
TORSDOF 2
