MODEL 948
MODEL 1
REMARK VINA RESULT:    -5.863      0.000      0.000
REMARK INTER + INTRA:          -6.914
REMARK INTER:                  -6.549
REMARK INTRA:                  -0.365
REMARK UNBOUND:                -0.365
REMARK  Name = No_948-gen_results/8p0m/2024-11-26-14-13-15/
REMARK  2 active torsions:
REMARK  status: ('A' for Active; 'I' for Inactive)
REMARK    1  A    between atoms: C_5  and  C_9
REMARK    2  A    between atoms: C_9  and  C_11
REMARK                            x       y       z     vdW  Elec       q    Type
REMARK                         _______ _______ _______ _____ _____    ______ ____
ROOT
ATOM      1  C   UNL A   1     -23.490  -1.773  29.611  0.00  0.00    +0.094 A 
ATOM      2  C   UNL A   1     -23.550  -0.891  28.786  0.00  0.00    -0.007 A 
ATOM      3  C   UNL A   1     -24.515  -0.645  27.947  0.00  0.00    -0.023 A 
ATOM      4  C   UNL A   1     -24.552   0.454  26.951  0.00  0.00    +0.030 C 
ATOM      5  C   UNL A   1     -23.443   1.347  26.952  0.00  0.00    +0.028 C 
ATOM      6  C   UNL A   1     -22.452   1.127  27.874  0.00  0.00    +0.009 C 
ATOM      7  C   UNL A   1     -22.463   0.119  28.778  0.00  0.00    +0.028 C 
ATOM      8  N   UNL A   1     -24.642  -2.235  30.217  0.00  0.00    -0.243 NA
ATOM      9  C   UNL A   1     -25.615  -1.820  30.088  0.00  0.00    +0.099 A 
ATOM     10  C   UNL A   1     -25.968  -1.030  28.866  0.00  0.00    +0.016 A 
ENDROOT
BRANCH   5  11
ATOM     11  C   UNL A   1     -23.466   2.262  25.860  0.00  0.00    +0.021 C 
ATOM     12  C   UNL A   1     -22.545   2.340  24.970  0.00  0.00    -0.004 C 
BRANCH  11  13
ATOM     13  C   UNL A   1     -24.296   3.483  26.079  0.00  0.00    +0.337 C 
ATOM     14  F   UNL A   1     -24.318   4.017  27.206  0.00  0.00    -0.194 F 
ATOM     15  F   UNL A   1     -23.869   4.434  25.157  0.00  0.00    -0.194 F 
ENDBRANCH  11  13
ENDBRANCH   5  11
TORSDOF 2
ENDMDL
ENDMDL
