MODEL 949
MODEL 1
REMARK VINA RESULT:    -6.425      0.000      0.000
REMARK INTER + INTRA:          -7.134
REMARK INTER:                  -6.801
REMARK INTRA:                  -0.334
REMARK UNBOUND:                -0.334
REMARK  Name = No_949-gen_results/8p0m/2024-11-26-14-13-15/
REMARK  1 active torsions:
REMARK  status: ('A' for Active; 'I' for Inactive)
REMARK    1  A    between atoms: C_3  and  C_4
REMARK                            x       y       z     vdW  Elec       q    Type
REMARK                         _______ _______ _______ _____ _____    ______ ____
ROOT
ATOM      1  C   UNL A   1     -24.290  -4.902  28.655  0.00  0.00    +0.000 A 
ATOM      2  C   UNL A   1     -23.872  -3.770  28.587  0.00  0.00    +0.000 A 
ATOM      3  C   UNL A   1     -24.556  -2.681  29.022  0.00  0.00    +0.000 A 
ATOM      4  C   UNL A   1     -25.599  -5.157  29.287  0.00  0.00    +0.000 A 
ATOM      5  C   UNL A   1     -26.344  -4.145  29.714  0.00  0.00    +0.000 A 
ATOM      6  C   UNL A   1     -25.844  -2.854  29.616  0.00  0.00    +0.000 A 
ENDROOT
BRANCH   3   7
ATOM      7  C   UNL A   1     -24.057  -1.290  28.947  0.00  0.00    +0.000 A 
ATOM      8  C   UNL A   1     -22.638  -1.104  29.035  0.00  0.00    +0.000 A 
ATOM      9  C   UNL A   1     -22.068   0.178  29.009  0.00  0.00    +0.000 A 
ATOM     10  C   UNL A   1     -24.530  -0.495  27.710  0.00  0.00    +0.000 A 
ATOM     11  C   UNL A   1     -22.533   0.938  27.850  0.00  0.00    +0.000 A 
ATOM     12  C   UNL A   1     -23.962   0.875  27.582  0.00  0.00    +0.000 A 
ENDBRANCH   3   7
TORSDOF 1
ENDMDL
ENDMDL
