MODEL 94
MODEL 1
REMARK VINA RESULT:    -8.247      0.000      0.000
REMARK INTER + INTRA:          -9.853
REMARK INTER:                  -9.212
REMARK INTRA:                  -0.641
REMARK UNBOUND:                -0.641
REMARK  Name = No_94-gen_results/8p0m/2024-11-26-14-13-15/
REMARK  2 active torsions:
REMARK  status: ('A' for Active; 'I' for Inactive)
REMARK    1  A    between atoms: N_4  and  C_8
REMARK    2  A    between atoms: C_5  and  C_14
REMARK                            x       y       z     vdW  Elec       q    Type
REMARK                         _______ _______ _______ _____ _____    ______ ____
ROOT
ATOM      1  O   UNL A   1     -22.604  -1.027  30.124  0.00  0.00    -0.275 OA
ATOM      2  C   UNL A   1     -23.224  -0.656  29.226  0.00  0.00    +0.230 C 
ATOM      3  C   UNL A   1     -22.868   0.479  28.524  0.00  0.00    +0.090 C 
ATOM      4  N   UNL A   1     -24.263  -1.460  28.593  0.00  0.00    -0.259 N 
ATOM      5  C   UNL A   1     -23.930   1.141  27.791  0.00  0.00    +0.031 C 
ATOM      6  C   UNL A   1     -24.817   0.295  27.032  0.00  0.00    +0.025 C 
ATOM      7  C   UNL A   1     -25.232  -0.866  27.792  0.00  0.00    +0.099 C 
ATOM      8  C   UNL A   1     -23.211   1.907  26.559  0.00  0.00    +0.005 C 
ATOM      9  C   UNL A   1     -23.518   1.800  25.353  0.00  0.00    +0.000 C 
ATOM     10  C   UNL A   1     -24.378   0.753  24.831  0.00  0.00    +0.000 C 
ATOM     11  C   UNL A   1     -25.169   0.126  25.684  0.00  0.00    +0.002 C 
ENDROOT
BRANCH   4  12
ATOM     12  C   UNL A   1     -24.529  -2.676  29.273  0.00  0.00    +0.054 A 
ATOM     13  C   UNL A   1     -25.780  -2.661  29.900  0.00  0.00    +0.015 A 
ATOM     14  C   UNL A   1     -26.492  -3.776  29.902  0.00  0.00    +0.001 A 
ATOM     15  C   UNL A   1     -25.908  -4.965  29.486  0.00  0.00    +0.000 A 
ATOM     16  C   UNL A   1     -24.678  -5.000  28.813  0.00  0.00    +0.001 A 
ATOM     17  C   UNL A   1     -23.876  -3.806  28.775  0.00  0.00    +0.015 A 
ENDBRANCH   4  12
BRANCH   5  18
ATOM     18  C   UNL A   1     -24.734   2.127  28.632  0.00  0.00    -0.003 A 
ATOM     19  C   UNL A   1     -25.164   2.122  29.689  0.00  0.00    -0.001 A 
ATOM     20  C   UNL A   1     -25.830   3.229  30.424  0.00  0.00    +0.020 A 
ATOM     21  C   UNL A   1     -26.037   4.348  29.582  0.00  0.00    +0.099 A 
ATOM     22  C   UNL A   1     -24.957   3.494  27.812  0.00  0.00    +0.095 A 
ATOM     23  N   UNL A   1     -25.419   4.431  28.362  0.00  0.00    -0.243 NA
ENDBRANCH   5  18
TORSDOF 2
ENDMDL
ENDMDL
