REMARK  Name = No_95-gen_results/8p0m/2024-11-26-14-13-15/
REMARK  2 active torsions:
REMARK  status: ('A' for Active; 'I' for Inactive)
REMARK    1  A    between atoms: C_1  and  C_2
REMARK    2  A    between atoms: N_8  and  C_9
REMARK                            x       y       z     vdW  Elec       q    Type
REMARK                         _______ _______ _______ _____ _____    ______ ____
ROOT
ATOM      1  C   UNL A   1     -28.016  -0.814  28.878  0.00  0.00    +0.269 C 
ATOM      2  N   UNL A   1     -29.207  -0.151  29.066  0.00  0.00    -0.175 NA
ATOM      3  O   UNL A   1     -27.910  -1.937  29.415  0.00  0.00    -0.268 OA
ENDROOT
BRANCH   1   4
ATOM      4  C   UNL A   1     -27.064  -0.119  28.608  0.00  0.00    +0.055 A 
ATOM      5  C   UNL A   1     -27.001   0.691  27.491  0.00  0.00    +0.005 A 
ATOM      6  C   UNL A   1     -25.855   1.482  27.083  0.00  0.00    +0.000 A 
ATOM      7  C   UNL A   1     -24.690   1.453  27.881  0.00  0.00    +0.000 A 
ATOM      8  C   UNL A   1     -24.738   0.601  29.042  0.00  0.00    +0.000 A 
ATOM      9  C   UNL A   1     -25.823  -0.169  29.389  0.00  0.00    +0.005 A 
ENDBRANCH   1   4
BRANCH   2  10
ATOM     10  C   UNL A   1     -29.747   0.555  28.431  0.00  0.00    +0.074 A 
ATOM     11  C   UNL A   1     -30.511   0.454  27.716  0.00  0.00    +0.017 A 
ATOM     12  C   UNL A   1     -31.113   1.401  26.738  0.00  0.00    +0.001 A 
ATOM     13  C   UNL A   1     -30.608   2.719  26.911  0.00  0.00    +0.000 A 
ATOM     14  C   UNL A   1     -29.633   3.000  27.769  0.00  0.00    +0.001 A 
ATOM     15  C   UNL A   1     -29.151   2.001  28.517  0.00  0.00    +0.017 A 
ENDBRANCH   2  10
TORSDOF 2
