REMARK  Name = No_950-gen_results/8p0m/2024-11-26-14-13-15/
REMARK  3 active torsions:
REMARK  status: ('A' for Active; 'I' for Inactive)
REMARK    1  A    between atoms: C_4  and  C_6
REMARK    2  A    between atoms: C_8  and  C_9
REMARK    3  A    between atoms: C_10  and  C_11
REMARK                            x       y       z     vdW  Elec       q    Type
REMARK                         _______ _______ _______ _____ _____    ______ ____
ROOT
ATOM      1  C   UNL A   1     -28.016  -0.814  28.878  0.00  0.00    +0.000 A 
ATOM      2  C   UNL A   1     -28.469  -0.785  29.829  0.00  0.00    +0.000 A 
ATOM      3  C   UNL A   1     -27.136   0.236  28.535  0.00  0.00    +0.000 A 
ATOM      4  C   UNL A   1     -26.875   1.282  29.398  0.00  0.00    +0.000 A 
ATOM      5  C   UNL A   1     -28.361   0.199  30.924  0.00  0.00    +0.000 A 
ATOM      6  C   UNL A   1     -27.512   1.232  30.632  0.00  0.00    +0.000 A 
ENDROOT
BRANCH   4   7
ATOM      7  C   UNL A   1     -25.972   2.385  29.104  0.00  0.00    +0.000 C 
ATOM      8  C   UNL A   1     -25.270   2.458  28.025  0.00  0.00    +0.000 C 
BRANCH   8   9
ATOM      9  C   UNL A   1     -24.403   1.524  27.616  0.00  0.00    +0.000 C 
ATOM     10  C   UNL A   1     -23.779   0.641  28.525  0.00  0.00    +0.000 C 
BRANCH  10  11
ATOM     11  C   UNL A   1     -22.877   0.345  29.209  0.00  0.00    +0.000 C 
ATOM     12  C   UNL A   1     -21.671   1.135  29.117  0.00  0.00    +0.000 C 
ENDBRANCH  10  11
ENDBRANCH   8   9
ENDBRANCH   4   7
TORSDOF 3
