MODEL 950
MODEL 1
REMARK VINA RESULT:    -5.957      0.000      0.000
REMARK INTER + INTRA:          -7.360
REMARK INTER:                  -7.001
REMARK INTRA:                  -0.359
REMARK UNBOUND:                -0.359
REMARK  Name = No_950-gen_results/8p0m/2024-11-26-14-13-15/
REMARK  3 active torsions:
REMARK  status: ('A' for Active; 'I' for Inactive)
REMARK    1  A    between atoms: C_4  and  C_6
REMARK    2  A    between atoms: C_8  and  C_9
REMARK    3  A    between atoms: C_10  and  C_11
REMARK                            x       y       z     vdW  Elec       q    Type
REMARK                         _______ _______ _______ _____ _____    ______ ____
ROOT
ATOM      1  C   UNL A   1     -26.459  -3.805  30.004  0.00  0.00    +0.000 A 
ATOM      2  C   UNL A   1     -26.169  -4.748  29.634  0.00  0.00    +0.000 A 
ATOM      3  C   UNL A   1     -25.572  -2.723  29.817  0.00  0.00    +0.000 A 
ATOM      4  C   UNL A   1     -24.354  -2.877  29.185  0.00  0.00    +0.000 A 
ATOM      5  C   UNL A   1     -24.945  -5.178  28.930  0.00  0.00    +0.000 A 
ATOM      6  C   UNL A   1     -24.060  -4.154  28.725  0.00  0.00    +0.000 A 
ENDROOT
BRANCH   4   7
ATOM      7  C   UNL A   1     -23.404  -1.798  28.956  0.00  0.00    +0.000 C 
ATOM      8  C   UNL A   1     -23.756  -0.601  28.631  0.00  0.00    +0.000 C 
BRANCH   8   9
ATOM      9  C   UNL A   1     -24.500  -0.290  27.563  0.00  0.00    +0.000 C 
ATOM     10  C   UNL A   1     -24.098   0.701  26.640  0.00  0.00    +0.000 C 
BRANCH  10  11
ATOM     11  C   UNL A   1     -24.120   1.803  26.247  0.00  0.00    +0.000 C 
ATOM     12  C   UNL A   1     -22.936   2.311  25.593  0.00  0.00    +0.000 C 
ENDBRANCH  10  11
ENDBRANCH   8   9
ENDBRANCH   4   7
TORSDOF 3
ENDMDL
ENDMDL
