REMARK  Name = No_951-gen_results/8p0m/2024-11-26-14-13-15/
REMARK  7 active torsions:
REMARK  status: ('A' for Active; 'I' for Inactive)
REMARK    1  A    between atoms: C_1  and  C_2
REMARK    2  A    between atoms: C_1  and  N_8
REMARK    3  A    between atoms: C_5  and  C_12
REMARK    4  A    between atoms: C_7  and  C_25
REMARK    5  A    between atoms: C_15  and  N_18
REMARK    6  A    between atoms: N_31  and  C_32
REMARK    7  A    between atoms: N_31  and  C_33
REMARK                            x       y       z     vdW  Elec       q    Type
REMARK                         _______ _______ _______ _____ _____    ______ ____
ROOT
ATOM      1  N   UNL A   1     -28.657  -0.553  30.096  0.00  0.00    -0.199 NA
ATOM      2  C   UNL A   1     -29.565  -0.526  30.535  0.00  0.00    +0.239 A 
ATOM      3  N   UNL A   1     -30.736  -0.688  29.788  0.00  0.00    -0.197 NA
ATOM      4  N   UNL A   1     -29.841  -0.458  31.941  0.00  0.00    -0.197 NA
ATOM      5  C   UNL A   1     -32.059  -0.689  30.325  0.00  0.00    +0.144 A 
ATOM      6  C   UNL A   1     -31.119  -0.433  32.488  0.00  0.00    +0.145 A 
ATOM      7  C   UNL A   1     -32.195  -0.559  31.658  0.00  0.00    +0.070 A 
ATOM      8  N   UNL A   1     -31.261  -0.303  33.831  0.00  0.00    -0.248 N 
ENDROOT
BRANCH   5   9
ATOM      9  N   UNL A   1     -33.039  -0.786  29.450  0.00  0.00    -0.227 N 
ATOM     10  C   UNL A   1     -32.997  -0.083  28.340  0.00  0.00    +0.103 C 
ATOM     11  C   UNL A   1     -33.929  -0.376  27.320  0.00  0.00    +0.045 C 
ATOM     12  C   UNL A   1     -34.049  -1.696  29.595  0.00  0.00    +0.328 C 
ATOM     13  O   UNL A   1     -34.068  -2.443  30.629  0.00  0.00    -0.250 OA
ATOM     14  N   UNL A   1     -35.010  -1.892  28.727  0.00  0.00    -0.188 NA
ATOM     15  C   UNL A   1     -35.033  -1.065  27.570  0.00  0.00    +0.119 C 
ENDBRANCH   5   9
BRANCH   8  16
ATOM     16  C   UNL A   1     -30.256  -0.001  34.635  0.00  0.00    +0.071 C 
ATOM     17  C   UNL A   1     -30.518  -0.261  36.078  0.00  0.00    +0.018 C 
ENDBRANCH   8  16
BRANCH   8  18
ATOM     18  C   UNL A   1     -32.563  -0.496  34.371  0.00  0.00    +0.071 C 
ATOM     19  C   UNL A   1     -32.831  -0.809  35.410  0.00  0.00    +0.018 C 
ENDBRANCH   8  18
BRANCH   1  20
ATOM     20  C   UNL A   1     -28.016  -0.814  28.878  0.00  0.00    +0.142 C 
BRANCH  20  21
ATOM     21  C   UNL A   1     -27.064  -0.119  28.608  0.00  0.00    -0.001 A 
ATOM     22  C   UNL A   1     -25.792  -0.430  29.076  0.00  0.00    -0.002 A 
ATOM     23  C   UNL A   1     -24.546   0.349  28.823  0.00  0.00    +0.008 A 
ATOM     24  C   UNL A   1     -24.659   1.420  27.888  0.00  0.00    +0.098 A 
ATOM     25  C   UNL A   1     -25.947   1.681  27.379  0.00  0.00    +0.008 A 
ATOM     26  C   UNL A   1     -27.044   0.974  27.687  0.00  0.00    -0.002 A 
BRANCH  26  27
ATOM     27  C   UNL A   1     -28.327   1.318  27.074  0.00  0.00    -0.000 A 
ATOM     28  C   UNL A   1     -28.355   1.721  25.832  0.00  0.00    -0.000 A 
ATOM     29  C   UNL A   1     -29.576   2.028  25.139  0.00  0.00    -0.000 A 
ATOM     30  C   UNL A   1     -30.736   1.865  25.843  0.00  0.00    -0.000 A 
ATOM     31  C   UNL A   1     -30.655   1.426  27.232  0.00  0.00    -0.000 A 
ATOM     32  C   UNL A   1     -29.439   1.161  27.816  0.00  0.00    -0.000 A 
ENDBRANCH  26  27
BRANCH  24  33
ATOM     33  C   UNL A   1     -23.462   2.157  27.579  0.00  0.00    +0.477 C 
ATOM     34  N   UNL A   1     -22.273   1.757  28.060  0.00  0.00    +0.205 NA
ATOM     35  N   UNL A   1     -23.419   2.772  26.365  0.00  0.00    +0.205 NA
ENDBRANCH  24  33
ENDBRANCH  20  21
ENDBRANCH   1  20
TORSDOF 7
