MODEL 951
MODEL 1
REMARK VINA RESULT:    -8.061      0.000      0.000
REMARK INTER + INTRA:         -12.078
REMARK INTER:                 -11.360
REMARK INTRA:                  -0.719
REMARK UNBOUND:                -0.719
REMARK  Name = No_951-gen_results/8p0m/2024-11-26-14-13-15/
REMARK  7 active torsions:
REMARK  status: ('A' for Active; 'I' for Inactive)
REMARK    1  A    between atoms: C_1  and  C_2
REMARK    2  A    between atoms: C_1  and  N_8
REMARK    3  A    between atoms: C_5  and  C_12
REMARK    4  A    between atoms: C_7  and  C_25
REMARK    5  A    between atoms: C_15  and  N_18
REMARK    6  A    between atoms: N_31  and  C_32
REMARK    7  A    between atoms: N_31  and  C_33
REMARK                            x       y       z     vdW  Elec       q    Type
REMARK                         _______ _______ _______ _____ _____    ______ ____
ROOT
ATOM      1  N   UNL A   1     -23.182  -1.129  31.771  0.00  0.00    -0.199 NA
ATOM      2  C   UNL A   1     -23.874  -0.565  32.241  0.00  0.00    +0.239 A 
ATOM      3  N   UNL A   1     -24.449   0.546  31.617  0.00  0.00    -0.197 NA
ATOM      4  N   UNL A   1     -24.485  -0.832  33.512  0.00  0.00    -0.197 NA
ATOM      5  C   UNL A   1     -25.450   1.386  32.194  0.00  0.00    +0.144 A 
ATOM      6  C   UNL A   1     -25.443  -0.018  34.106  0.00  0.00    +0.145 A 
ATOM      7  C   UNL A   1     -25.905   1.067  33.421  0.00  0.00    +0.070 A 
ATOM      8  N   UNL A   1     -25.905  -0.336  35.342  0.00  0.00    -0.248 N 
ENDROOT
BRANCH   5   9
ATOM      9  N   UNL A   1     -25.818   2.427  31.476  0.00  0.00    -0.227 N 
ATOM     10  C   UNL A   1     -26.916   2.370  30.756  0.00  0.00    +0.103 C 
ATOM     11  C   UNL A   1     -27.411   3.564  30.186  0.00  0.00    +0.045 C 
ATOM     12  C   UNL A   1     -25.160   3.623  31.550  0.00  0.00    +0.328 C 
ATOM     13  O   UNL A   1     -24.135   3.723  32.302  0.00  0.00    -0.250 OA
ATOM     14  N   UNL A   1     -25.518   4.714  30.919  0.00  0.00    -0.188 NA
ATOM     15  C   UNL A   1     -26.645   4.637  30.055  0.00  0.00    +0.119 C 
ENDBRANCH   5   9
BRANCH   8  16
ATOM     16  C   UNL A   1     -25.353  -1.268  36.099  0.00  0.00    +0.071 C 
ATOM     17  C   UNL A   1     -24.633  -0.748  37.295  0.00  0.00    +0.018 C 
ENDBRANCH   8  16
BRANCH   8  18
ATOM     18  C   UNL A   1     -27.030   0.389  35.824  0.00  0.00    +0.071 C 
ATOM     19  C   UNL A   1     -28.066   0.006  35.996  0.00  0.00    +0.018 C 
ENDBRANCH   8  18
BRANCH   1  20
ATOM     20  C   UNL A   1     -22.550  -1.314  30.535  0.00  0.00    +0.142 C 
BRANCH  20  21
ATOM     21  C   UNL A   1     -23.011  -0.709  29.595  0.00  0.00    -0.001 A 
ATOM     22  C   UNL A   1     -22.465   0.502  29.183  0.00  0.00    -0.002 A 
ATOM     23  C   UNL A   1     -22.947   1.346  28.052  0.00  0.00    +0.008 A 
ATOM     24  C   UNL A   1     -23.962   0.769  27.232  0.00  0.00    +0.098 A 
ATOM     25  C   UNL A   1     -24.460  -0.487  27.633  0.00  0.00    +0.008 A 
ATOM     26  C   UNL A   1     -24.020  -1.175  28.696  0.00  0.00    -0.002 A 
BRANCH  26  27
ATOM     27  C   UNL A   1     -24.591  -2.487  29.001  0.00  0.00    -0.000 A 
ATOM     28  C   UNL A   1     -25.756  -2.557  29.589  0.00  0.00    -0.000 A 
ATOM     29  C   UNL A   1     -26.411  -3.803  29.876  0.00  0.00    -0.000 A 
ATOM     30  C   UNL A   1     -25.759  -4.940  29.489  0.00  0.00    -0.000 A 
ATOM     31  C   UNL A   1     -24.454  -4.814  28.849  0.00  0.00    -0.000 A 
ATOM     32  C   UNL A   1     -23.900  -3.577  28.619  0.00  0.00    -0.000 A 
ENDBRANCH  26  27
BRANCH  24  33
ATOM     33  C   UNL A   1     -24.410   1.534  26.098  0.00  0.00    +0.477 C 
ATOM     34  N   UNL A   1     -23.637   2.504  25.583  0.00  0.00    +0.205 NA
ATOM     35  N   UNL A   1     -25.205   0.888  25.201  0.00  0.00    +0.205 NA
ENDBRANCH  24  33
ENDBRANCH  20  21
ENDBRANCH   1  20
TORSDOF 7
ENDMDL
ENDMDL
