REMARK  Name = No_952-gen_results/8p0m/2024-11-26-14-13-15/
REMARK  1 active torsions:
REMARK  status: ('A' for Active; 'I' for Inactive)
REMARK    1  A    between atoms: C_11  and  C_12
REMARK                            x       y       z     vdW  Elec       q    Type
REMARK                         _______ _______ _______ _____ _____    ______ ____
ROOT
ATOM      1  C   UNL A   1     -28.016  -0.814  28.878  0.00  0.00    -0.003 A 
ATOM      2  C   UNL A   1     -28.469  -0.785  29.829  0.00  0.00    -0.000 A 
ATOM      3  C   UNL A   1     -27.136   0.236  28.535  0.00  0.00    -0.002 A 
ATOM      4  C   UNL A   1     -26.335   0.290  27.284  0.00  0.00    +0.151 C 
ATOM      5  C   UNL A   1     -28.369   0.196  30.924  0.00  0.00    -0.000 A 
ATOM      6  C   UNL A   1     -27.516   1.266  30.654  0.00  0.00    -0.004 A 
ATOM      7  C   UNL A   1     -26.841   1.294  29.476  0.00  0.00    -0.018 A 
ATOM      8  N   UNL A   1     -25.808   1.453  26.940  0.00  0.00    -0.269 NA
ATOM      9  C   UNL A   1     -24.703   1.904  27.573  0.00  0.00    +0.068 C 
ATOM     10  C   UNL A   1     -24.884   2.470  28.931  0.00  0.00    +0.057 C 
ATOM     11  C   UNL A   1     -25.756   2.261  29.564  0.00  0.00    +0.071 C 
ENDROOT
BRANCH  11  12
ATOM     12  C   UNL A   1     -25.817   3.038  30.914  0.00  0.00    +0.100 C 
ATOM     13  N   UNL A   1     -26.624   2.745  31.810  0.00  0.00    -0.151 NA
ENDBRANCH  11  12
TORSDOF 1
