REMARK  Name = No_953-gen_results/8p0m/2024-11-26-14-13-15/
REMARK  1 active torsions:
REMARK  status: ('A' for Active; 'I' for Inactive)
REMARK    1  A    between atoms: C_3  and  C_7
REMARK                            x       y       z     vdW  Elec       q    Type
REMARK                         _______ _______ _______ _____ _____    ______ ____
ROOT
ATOM      1  C   UNL A   1     -28.016  -0.814  28.878  0.00  0.00    +0.011 A 
ATOM      2  C   UNL A   1     -28.469  -0.785  29.829  0.00  0.00    +0.058 A 
ATOM      3  C   UNL A   1     -28.182   0.428  28.113  0.00  0.00    +0.003 A 
ATOM      4  C   UNL A   1     -28.984   1.415  28.515  0.00  0.00    +0.000 A 
ATOM      5  C   UNL A   1     -29.380   0.138  30.461  0.00  0.00    +0.011 A 
ATOM      6  C   UNL A   1     -29.541   1.274  29.724  0.00  0.00    +0.001 A 
ATOM      7 CL   UNL A   1     -28.261  -2.297  30.874  0.00  0.00    -0.082 Cl
ENDROOT
BRANCH   3   8
ATOM      8  C   UNL A   1     -27.459   0.493  26.770  0.00  0.00    +0.028 A 
ATOM      9  C   UNL A   1     -27.920   0.718  25.751  0.00  0.00    +0.140 A 
ATOM     10  C   UNL A   1     -27.138   0.689  24.486  0.00  0.00    +0.030 A 
ATOM     11  C   UNL A   1     -26.030   0.224  26.823  0.00  0.00    +0.002 A 
ATOM     12  C   UNL A   1     -25.176   0.296  25.759  0.00  0.00    +0.000 A 
ATOM     13  C   UNL A   1     -25.779   0.491  24.562  0.00  0.00    +0.002 A 
ATOM     14  F   UNL A   1     -29.219   0.899  25.486  0.00  0.00    -0.204 F 
ENDBRANCH   3   8
TORSDOF 1
