MODEL 953
MODEL 1
REMARK VINA RESULT:    -6.842      0.000      0.000
REMARK INTER + INTRA:          -7.646
REMARK INTER:                  -7.242
REMARK INTRA:                  -0.404
REMARK UNBOUND:                -0.404
REMARK  Name = No_953-gen_results/8p0m/2024-11-26-14-13-15/
REMARK  1 active torsions:
REMARK  status: ('A' for Active; 'I' for Inactive)
REMARK    1  A    between atoms: C_3  and  C_7
REMARK                            x       y       z     vdW  Elec       q    Type
REMARK                         _______ _______ _______ _____ _____    ______ ____
ROOT
ATOM      1  C   UNL A   1     -25.878  -2.655  29.694  0.00  0.00    +0.011 A 
ATOM      2  C   UNL A   1     -26.334  -3.596  29.825  0.00  0.00    +0.058 A 
ATOM      3  C   UNL A   1     -24.608  -2.718  28.960  0.00  0.00    +0.003 A 
ATOM      4  C   UNL A   1     -24.010  -3.872  28.660  0.00  0.00    +0.000 A 
ATOM      5  C   UNL A   1     -25.884  -4.950  29.610  0.00  0.00    +0.011 A 
ATOM      6  C   UNL A   1     -24.691  -4.987  28.950  0.00  0.00    +0.001 A 
ATOM      7 CL   UNL A   1     -27.964  -3.594  30.698  0.00  0.00    -0.082 Cl
ENDROOT
BRANCH   3   8
ATOM      8  C   UNL A   1     -23.948  -1.378  28.642  0.00  0.00    +0.028 A 
ATOM      9  C   UNL A   1     -24.373  -0.539  27.997  0.00  0.00    +0.140 A 
ATOM     10  C   UNL A   1     -23.618   0.705  27.689  0.00  0.00    +0.030 A 
ATOM     11  C   UNL A   1     -22.631  -1.183  29.228  0.00  0.00    +0.002 A 
ATOM     12  C   UNL A   1     -21.890  -0.039  29.134  0.00  0.00    +0.000 A 
ATOM     13  C   UNL A   1     -22.400   0.898  28.299  0.00  0.00    +0.002 A 
ATOM     14  F   UNL A   1     -25.517  -0.567  27.304  0.00  0.00    -0.204 F 
ENDBRANCH   3   8
TORSDOF 1
ENDMDL
ENDMDL
