REMARK  Name = No_954-gen_results/8p0m/2024-11-26-14-13-15/
REMARK  5 active torsions:
REMARK  status: ('A' for Active; 'I' for Inactive)
REMARK    1  A    between atoms: C_1  and  C_6
REMARK    2  A    between atoms: C_4  and  C_12
REMARK    3  A    between atoms: C_12  and  C_13
REMARK    4  A    between atoms: C_15  and  C_16
REMARK    5  A    between atoms: C_17  and  C_18
REMARK                            x       y       z     vdW  Elec       q    Type
REMARK                         _______ _______ _______ _____ _____    ______ ____
ROOT
ATOM      1  C   UNL A   1     -28.016  -0.814  28.878  0.00  0.00    +0.057 A 
ATOM      2  C   UNL A   1     -27.064  -0.119  28.608  0.00  0.00    +0.004 A 
ATOM      3  C   UNL A   1     -26.972   0.714  27.506  0.00  0.00    -0.002 A 
ATOM      4  C   UNL A   1     -28.105   0.774  26.642  0.00  0.00    +0.009 A 
ATOM      5  C   UNL A   1     -29.201   0.104  27.053  0.00  0.00    +0.137 A 
ATOM      6  C   UNL A   1     -29.164  -0.639  28.148  0.00  0.00    +0.034 A 
ATOM      7  F   UNL A   1     -30.288   0.195  26.289  0.00  0.00    -0.204 F 
ENDROOT
BRANCH   1   8
ATOM      8  C   UNL A   1     -28.022  -1.590  30.088  0.00  0.00    +0.265 C 
ATOM      9  N   UNL A   1     -28.838  -1.898  30.766  0.00  0.00    -0.200 NA
ATOM     10  O   UNL A   1     -26.830  -2.258  30.341  0.00  0.00    -0.268 OA
ATOM     11  C   UNL A   1     -28.843  -2.920  31.845  0.00  0.00    +0.139 C 
ENDBRANCH   1   8
BRANCH   4  12
ATOM     12  C   UNL A   1     -28.029   1.683  25.472  0.00  0.00    +0.046 C 
ATOM     13  C   UNL A   1     -28.082   1.038  24.178  0.00  0.00    +0.009 C 
BRANCH  12  14
ATOM     14  C   UNL A   1     -28.083   2.904  25.639  0.00  0.00    -0.022 C 
ATOM     15  C   UNL A   1     -27.305   3.674  26.500  0.00  0.00    -0.004 C 
BRANCH  15  16
ATOM     16  C   UNL A   1     -27.491   5.036  26.842  0.00  0.00    -0.000 C 
ATOM     17  C   UNL A   1     -26.657   5.720  27.702  0.00  0.00    -0.000 C 
BRANCH  17  18
ATOM     18  C   UNL A   1     -25.488   5.027  28.201  0.00  0.00    -0.000 C 
ATOM     19  C   UNL A   1     -25.179   3.758  27.782  0.00  0.00    -0.000 C 
ENDBRANCH  17  18
ENDBRANCH  15  16
ENDBRANCH  12  14
ENDBRANCH   4  12
TORSDOF 5
