REMARK  Name = No_955-gen_results/8p0m/2024-11-26-14-13-15/
REMARK  7 active torsions:
REMARK  status: ('A' for Active; 'I' for Inactive)
REMARK    1  A    between atoms: C_2  and  O_7
REMARK    2  A    between atoms: C_4  and  C_14
REMARK    3  A    between atoms: O_7  and  C_8
REMARK    4  A    between atoms: C_14  and  C_15
REMARK    5  A    between atoms: C_15  and  C_16
REMARK    6  A    between atoms: C_25  and  C_27
REMARK    7  A    between atoms: C_32  and  C_33
REMARK                            x       y       z     vdW  Elec       q    Type
REMARK                         _______ _______ _______ _____ _____    ______ ____
ROOT
ATOM      1  C   UNL A   1     -30.612   0.317  30.120  0.00  0.00    +0.145 A 
ATOM      2  C   UNL A   1     -31.537   0.704  29.387  0.00  0.00    +0.037 A 
ATOM      3  C   UNL A   1     -32.297   1.899  29.753  0.00  0.00    +0.003 A 
ATOM      4  C   UNL A   1     -31.941   2.548  30.962  0.00  0.00    +0.000 A 
ATOM      5  C   UNL A   1     -30.896   2.040  31.700  0.00  0.00    +0.003 A 
ATOM      6  C   UNL A   1     -30.187   0.972  31.333  0.00  0.00    +0.037 A 
ATOM      7  C   UNL A   1     -33.419   2.346  28.942  0.00  0.00    +0.000 A 
ATOM      8  C   UNL A   1     -33.895   3.497  29.072  0.00  0.00    +0.000 A 
ATOM      9  C   UNL A   1     -33.635   4.235  30.308  0.00  0.00    +0.000 A 
ATOM     10  C   UNL A   1     -32.620   3.817  31.172  0.00  0.00    +0.000 A 
ENDROOT
BRANCH   9  11
ATOM     11  C   UNL A   1     -34.325   5.517  30.596  0.00  0.00    -0.000 A 
ATOM     12  C   UNL A   1     -33.606   6.532  30.879  0.00  0.00    -0.000 A 
ATOM     13  C   UNL A   1     -35.713   5.487  30.498  0.00  0.00    -0.000 A 
ATOM     14  C   UNL A   1     -34.148   7.796  31.113  0.00  0.00    -0.000 A 
ATOM     15  C   UNL A   1     -36.339   6.762  30.742  0.00  0.00    -0.000 A 
ATOM     16  C   UNL A   1     -35.565   7.880  31.058  0.00  0.00    -0.000 A 
BRANCH  16  17
ATOM     17  C   UNL A   1     -36.234   9.172  31.306  0.00  0.00    -0.005 C 
ATOM     18  C   UNL A   1     -36.629   9.996  30.783  0.00  0.00    -0.026 C 
ATOM     19  C   UNL A   1     -37.167  11.072  30.816  0.00  0.00    +0.031 C 
ENDBRANCH  16  17
ENDBRANCH   9  11
BRANCH   1  20
ATOM     20  O   UNL A   1     -29.934  -0.755  29.686  0.00  0.00    -0.454 OA
BRANCH  20  22
ATOM     21  C   UNL A   1     -28.016  -0.814  28.878  0.00  0.00    +0.037 A 
ATOM     22  C   UNL A   1     -28.469  -0.785  29.829  0.00  0.00    +0.145 A 
ATOM     23  C   UNL A   1     -26.504  -0.778  28.877  0.00  0.00    -0.001 A 
ATOM     24  C   UNL A   1     -25.810  -0.853  30.103  0.00  0.00    -0.022 A 
ATOM     25  C   UNL A   1     -27.991  -0.892  31.226  0.00  0.00    +0.037 A 
ATOM     26  C   UNL A   1     -26.604  -0.868  31.265  0.00  0.00    -0.001 A 
BRANCH  24  27
ATOM     27  C   UNL A   1     -24.386  -0.891  30.141  0.00  0.00    +0.031 C 
BRANCH  27  28
ATOM     28  C   UNL A   1     -23.791   0.381  29.931  0.00  0.00    +0.027 C 
ATOM     29  C   UNL A   1     -23.756   1.270  31.116  0.00  0.00    +0.005 C 
BRANCH  28  30
ATOM     30  C   UNL A   1     -23.486   0.818  28.680  0.00  0.00    -0.022 A 
ATOM     31  C   UNL A   1     -24.252   1.191  27.804  0.00  0.00    -0.004 A 
ATOM     32  C   UNL A   1     -23.811   1.683  26.523  0.00  0.00    -0.000 A 
ATOM     33  C   UNL A   1     -22.434   1.959  26.355  0.00  0.00    -0.000 A 
ATOM     34  C   UNL A   1     -21.559   1.657  27.367  0.00  0.00    -0.000 A 
ATOM     35  C   UNL A   1     -22.011   1.178  28.593  0.00  0.00    -0.004 A 
ENDBRANCH  28  30
ENDBRANCH  27  28
ENDBRANCH  24  27
ENDBRANCH  20  22
ENDBRANCH   1  20
TORSDOF 7
