MODEL 955
MODEL 1
REMARK VINA RESULT:    -8.384      0.000      0.000
REMARK INTER + INTRA:         -13.748
REMARK INTER:                 -11.815
REMARK INTRA:                  -1.933
REMARK UNBOUND:                -1.933
REMARK  Name = No_955-gen_results/8p0m/2024-11-26-14-13-15/
REMARK  7 active torsions:
REMARK  status: ('A' for Active; 'I' for Inactive)
REMARK    1  A    between atoms: C_2  and  O_7
REMARK    2  A    between atoms: C_4  and  C_14
REMARK    3  A    between atoms: O_7  and  C_8
REMARK    4  A    between atoms: C_14  and  C_15
REMARK    5  A    between atoms: C_15  and  C_16
REMARK    6  A    between atoms: C_25  and  C_27
REMARK    7  A    between atoms: C_32  and  C_33
REMARK                            x       y       z     vdW  Elec       q    Type
REMARK                         _______ _______ _______ _____ _____    ______ ____
ROOT
ATOM      1  C   UNL A   1     -25.013   2.076  25.832  0.00  0.00    +0.145 A 
ATOM      2  C   UNL A   1     -25.952   2.879  25.703  0.00  0.00    +0.037 A 
ATOM      3  C   UNL A   1     -27.138   2.487  24.942  0.00  0.00    +0.003 A 
ATOM      4  C   UNL A   1     -27.138   1.193  24.363  0.00  0.00    +0.000 A 
ATOM      5  C   UNL A   1     -26.048   0.378  24.571  0.00  0.00    +0.003 A 
ATOM      6  C   UNL A   1     -24.991   0.736  25.300  0.00  0.00    +0.037 A 
ATOM      7  C   UNL A   1     -28.230   3.425  24.729  0.00  0.00    +0.000 A 
ATOM      8  C   UNL A   1     -29.353   3.033  24.334  0.00  0.00    +0.000 A 
ATOM      9  C   UNL A   1     -29.456   1.733  23.671  0.00  0.00    +0.000 A 
ATOM     10  C   UNL A   1     -28.411   0.812  23.772  0.00  0.00    +0.000 A 
ENDROOT
BRANCH   9  11
ATOM     11  C   UNL A   1     -30.717   1.304  23.017  0.00  0.00    -0.000 A 
ATOM     12  C   UNL A   1     -31.222   0.186  23.369  0.00  0.00    -0.000 A 
ATOM     13  C   UNL A   1     -31.246   2.195  22.089  0.00  0.00    -0.000 A 
ATOM     14  C   UNL A   1     -32.430  -0.287  22.858  0.00  0.00    -0.000 A 
ATOM     15  C   UNL A   1     -32.492   1.759  21.511  0.00  0.00    -0.000 A 
ATOM     16  C   UNL A   1     -33.053   0.536  21.883  0.00  0.00    -0.000 A 
BRANCH  16  17
ATOM     17  C   UNL A   1     -34.329   0.114  21.272  0.00  0.00    -0.005 C 
ATOM     18  C   UNL A   1     -34.968   0.361  20.472  0.00  0.00    -0.026 C 
ATOM     19  C   UNL A   1     -35.986   0.148  19.867  0.00  0.00    +0.031 C 
ENDBRANCH  16  17
ENDBRANCH   9  11
BRANCH   1  20
ATOM     20  O   UNL A   1     -23.988   2.496  26.587  0.00  0.00    -0.454 OA
BRANCH  20  22
ATOM     21  C   UNL A   1     -24.295   1.961  28.575  0.00  0.00    +0.037 A 
ATOM     22  C   UNL A   1     -23.625   1.735  27.794  0.00  0.00    +0.145 A 
ATOM     23  C   UNL A   1     -24.078   1.193  29.860  0.00  0.00    -0.001 A 
ATOM     24  C   UNL A   1     -22.948   0.357  29.984  0.00  0.00    -0.022 A 
ATOM     25  C   UNL A   1     -22.374   0.952  27.674  0.00  0.00    +0.037 A 
ATOM     26  C   UNL A   1     -22.139   0.236  28.839  0.00  0.00    -0.001 A 
BRANCH  24  27
ATOM     27  C   UNL A   1     -22.672  -0.331  31.201  0.00  0.00    +0.031 C 
BRANCH  27  28
ATOM     28  C   UNL A   1     -23.740  -1.166  31.621  0.00  0.00    +0.027 C 
ATOM     29  C   UNL A   1     -23.933  -1.261  33.087  0.00  0.00    +0.005 C 
BRANCH  28  30
ATOM     30  C   UNL A   1     -24.382  -1.983  30.745  0.00  0.00    -0.022 A 
ATOM     31  C   UNL A   1     -23.904  -2.867  30.049  0.00  0.00    -0.004 A 
ATOM     32  C   UNL A   1     -24.694  -3.710  29.186  0.00  0.00    -0.000 A 
ATOM     33  C   UNL A   1     -26.101  -3.664  29.319  0.00  0.00    -0.000 A 
ATOM     34  C   UNL A   1     -26.667  -2.758  30.179  0.00  0.00    -0.000 A 
ATOM     35  C   UNL A   1     -25.881  -1.953  30.998  0.00  0.00    -0.004 A 
ENDBRANCH  28  30
ENDBRANCH  27  28
ENDBRANCH  24  27
ENDBRANCH  20  22
ENDBRANCH   1  20
TORSDOF 7
ENDMDL
ENDMDL
