REMARK  Name = No_956-gen_results/8p0m/2024-11-26-14-13-15/
REMARK  6 active torsions:
REMARK  status: ('A' for Active; 'I' for Inactive)
REMARK    1  A    between atoms: C_1  and  C_2
REMARK    2  A    between atoms: C_1  and  C_8
REMARK    3  A    between atoms: C_4  and  C_19
REMARK    4  A    between atoms: C_19  and  C_20
REMARK    5  A    between atoms: C_21  and  C_22
REMARK    6  A    between atoms: C_23  and  C_24
REMARK                            x       y       z     vdW  Elec       q    Type
REMARK                         _______ _______ _______ _____ _____    ______ ____
ROOT
ATOM      1  C   UNL A   1     -27.064  -0.119  28.608  0.00  0.00    -0.018 A 
ATOM      2  C   UNL A   1     -27.001   0.691  27.491  0.00  0.00    -0.007 A 
ATOM      3  C   UNL A   1     -25.855   1.482  27.083  0.00  0.00    -0.008 A 
ATOM      4  C   UNL A   1     -24.690   1.453  27.881  0.00  0.00    +0.050 A 
ATOM      5  C   UNL A   1     -24.738   0.601  29.042  0.00  0.00    -0.017 A 
ATOM      6  C   UNL A   1     -25.823  -0.169  29.389  0.00  0.00    -0.029 A 
ATOM      7 CL   UNL A   1     -23.348   2.394  27.551  0.00  0.00    -0.083 Cl
ATOM      8  C   UNL A   1     -23.472   0.556  29.887  0.00  0.00    +0.019 C 
ATOM      9  C   UNL A   1     -22.346   0.004  29.316  0.00  0.00    +0.004 C 
ATOM     10  C   UNL A   1     -23.881  -0.128  31.210  0.00  0.00    +0.004 C 
ATOM     11  C   UNL A   1     -23.165   2.070  30.405  0.00  0.00    +0.004 C 
ATOM     12  C   UNL A   1     -24.599  -1.224  31.224  0.00  0.00    +0.005 C 
ATOM     13  C   UNL A   1     -25.997  -0.880  30.676  0.00  0.00    +0.026 C 
ENDROOT
BRANCH   1  14
ATOM     14  C   UNL A   1     -28.016  -0.814  28.878  0.00  0.00    +0.129 C 
BRANCH  14  15
ATOM     15  C   UNL A   1     -29.225  -0.047  29.280  0.00  0.00    +0.402 C 
ATOM     16  F   UNL A   1     -29.681   0.667  28.450  0.00  0.00    -0.170 F 
ATOM     17  F   UNL A   1     -30.267  -0.961  29.652  0.00  0.00    -0.170 F 
ATOM     18  F   UNL A   1     -29.032   0.726  30.384  0.00  0.00    -0.170 F 
ENDBRANCH  14  15
ENDBRANCH   1  14
BRANCH   3  19
ATOM     19  C   UNL A   1     -25.919   2.303  25.904  0.00  0.00    +0.053 C 
BRANCH  19  20
ATOM     20  C   UNL A   1     -26.925   3.187  25.828  0.00  0.00    -0.021 C 
ATOM     21  C   UNL A   1     -26.933   4.364  26.593  0.00  0.00    -0.004 C 
BRANCH  21  22
ATOM     22  C   UNL A   1     -28.095   5.218  26.580  0.00  0.00    -0.000 C 
ATOM     23  C   UNL A   1     -28.184   6.389  27.336  0.00  0.00    -0.000 C 
BRANCH  23  24
ATOM     24  C   UNL A   1     -27.049   6.717  28.091  0.00  0.00    -0.000 C 
ATOM     25  C   UNL A   1     -25.894   5.919  28.125  0.00  0.00    -0.000 C 
ENDBRANCH  23  24
ENDBRANCH  21  22
ENDBRANCH  19  20
ENDBRANCH   3  19
TORSDOF 6
