MODEL 956
MODEL 1
REMARK VINA RESULT:    -6.769      0.000      0.000
REMARK INTER + INTRA:         -10.365
REMARK INTER:                  -9.143
REMARK INTRA:                  -1.222
REMARK UNBOUND:                -1.222
REMARK  Name = No_956-gen_results/8p0m/2024-11-26-14-13-15/
REMARK  6 active torsions:
REMARK  status: ('A' for Active; 'I' for Inactive)
REMARK    1  A    between atoms: C_1  and  C_2
REMARK    2  A    between atoms: C_1  and  C_8
REMARK    3  A    between atoms: C_4  and  C_19
REMARK    4  A    between atoms: C_19  and  C_20
REMARK    5  A    between atoms: C_21  and  C_22
REMARK    6  A    between atoms: C_23  and  C_24
REMARK                            x       y       z     vdW  Elec       q    Type
REMARK                         _______ _______ _______ _____ _____    ______ ____
ROOT
ATOM      1  C   UNL A   1     -24.044   1.739  27.484  0.00  0.00    -0.018 A 
ATOM      2  C   UNL A   1     -25.420   1.800  27.372  0.00  0.00    -0.007 A 
ATOM      3  C   UNL A   1     -26.359   0.865  27.965  0.00  0.00    -0.008 A 
ATOM      4  C   UNL A   1     -25.856  -0.218  28.718  0.00  0.00    +0.050 A 
ATOM      5  C   UNL A   1     -24.423  -0.285  28.854  0.00  0.00    -0.017 A 
ATOM      6  C   UNL A   1     -23.554   0.633  28.315  0.00  0.00    -0.029 A 
ATOM      7 CL   UNL A   1     -26.845  -1.400  29.367  0.00  0.00    -0.083 Cl
ATOM      8  C   UNL A   1     -23.887  -1.443  29.686  0.00  0.00    +0.019 C 
ATOM      9  C   UNL A   1     -24.188  -1.451  31.031  0.00  0.00    +0.004 C 
ATOM     10  C   UNL A   1     -22.370  -1.490  29.401  0.00  0.00    +0.004 C 
ATOM     11  C   UNL A   1     -24.376  -2.829  28.984  0.00  0.00    +0.004 C 
ATOM     12  C   UNL A   1     -21.634  -0.406  29.415  0.00  0.00    +0.005 C 
ATOM     13  C   UNL A   1     -22.082   0.485  28.242  0.00  0.00    +0.026 C 
ENDROOT
BRANCH   1  14
ATOM     14  C   UNL A   1     -23.298   2.575  27.030  0.00  0.00    +0.129 C 
BRANCH  14  15
ATOM     15  C   UNL A   1     -23.203   2.552  25.546  0.00  0.00    +0.402 C 
ATOM     16  F   UNL A   1     -23.652   3.497  24.987  0.00  0.00    -0.170 F 
ATOM     17  F   UNL A   1     -21.824   2.464  25.159  0.00  0.00    -0.170 F 
ATOM     18  F   UNL A   1     -23.791   1.461  24.984  0.00  0.00    -0.170 F 
ENDBRANCH  14  15
ENDBRANCH   1  14
BRANCH   3  19
ATOM     19  C   UNL A   1     -27.773   1.026  27.760  0.00  0.00    +0.053 C 
BRANCH  19  20
ATOM     20  C   UNL A   1     -28.181   1.327  26.518  0.00  0.00    -0.021 C 
ATOM     21  C   UNL A   1     -28.082   0.404  25.465  0.00  0.00    -0.004 C 
BRANCH  21  22
ATOM     22  C   UNL A   1     -28.407   0.814  24.121  0.00  0.00    -0.000 C 
ATOM     23  C   UNL A   1     -28.975  -0.049  23.181  0.00  0.00    -0.000 C 
BRANCH  23  24
ATOM     24  C   UNL A   1     -29.253  -1.347  23.633  0.00  0.00    -0.000 C 
ATOM     25  C   UNL A   1     -30.523  -1.748  24.077  0.00  0.00    -0.000 C 
ENDBRANCH  23  24
ENDBRANCH  21  22
ENDBRANCH  19  20
ENDBRANCH   3  19
TORSDOF 6
ENDMDL
ENDMDL
