REMARK  Name = No_957-gen_results/8p0m/2024-11-26-14-13-15/
REMARK  5 active torsions:
REMARK  status: ('A' for Active; 'I' for Inactive)
REMARK    1  A    between atoms: C_2  and  C_9
REMARK    2  A    between atoms: C_3  and  C_4
REMARK    3  A    between atoms: C_4  and  C_12
REMARK    4  A    between atoms: C_13  and  C_14
REMARK    5  A    between atoms: C_14  and  C_15
REMARK                            x       y       z     vdW  Elec       q    Type
REMARK                         _______ _______ _______ _____ _____    ______ ____
ROOT
ATOM      1  C   UNL A   1     -28.016  -0.814  28.878  0.00  0.00    +0.004 A 
ATOM      2  C   UNL A   1     -28.469  -0.785  29.829  0.00  0.00    +0.080 A 
ATOM      3  C   UNL A   1     -26.504  -0.778  28.877  0.00  0.00    -0.003 A 
ATOM      4  C   UNL A   1     -27.918  -0.937  31.182  0.00  0.00    +0.007 A 
ATOM      5  C   UNL A   1     -26.542  -0.940  31.261  0.00  0.00    -0.000 A 
ATOM      6  C   UNL A   1     -25.783  -0.893  30.120  0.00  0.00    -0.003 A 
ENDROOT
BRANCH   2   7
ATOM      7  C   UNL A   1     -30.063  -0.836  29.897  0.00  0.00    +0.388 C 
ATOM      8  O   UNL A   1     -30.690  -0.402  29.143  0.00  0.00    -0.241 OA
ATOM      9  O   UNL A   1     -30.665  -1.460  30.954  0.00  0.00    -0.241 OA
ENDBRANCH   2   7
BRANCH   3  10
ATOM     10  C   UNL A   1     -25.654  -0.660  27.719  0.00  0.00    +0.124 C 
ATOM     11 CL   UNL A   1     -24.832   0.621  27.515  0.00  0.00    -0.105 Cl
BRANCH  10  12
ATOM     12  C   UNL A   1     -26.467  -0.544  26.550  0.00  0.00    -0.008 C 
ATOM     13  C   UNL A   1     -25.821  -0.128  25.316  0.00  0.00    +0.005 C 
BRANCH  13  14
ATOM     14  C   UNL A   1     -24.672   0.604  25.733  0.00  0.00    +0.183 C 
ATOM     15  F   UNL A   1     -23.590   0.277  25.191  0.00  0.00    -0.233 F 
BRANCH  14  16
ATOM     16  C   UNL A   1     -24.566   2.028  25.322  0.00  0.00    +0.040 C 
ATOM     17  C   UNL A   1     -25.510   2.905  25.947  0.00  0.00    +0.003 C 
ENDBRANCH  14  16
ENDBRANCH  13  14
ENDBRANCH  10  12
ENDBRANCH   3  10
TORSDOF 5
