REMARK  Name = No_958-gen_results/8p0m/2024-11-26-14-13-15/
REMARK  3 active torsions:
REMARK  status: ('A' for Active; 'I' for Inactive)
REMARK    1  A    between atoms: C_2  and  C_7
REMARK    2  A    between atoms: C_10  and  C_19
REMARK    3  A    between atoms: C_11  and  C_13
REMARK                            x       y       z     vdW  Elec       q    Type
REMARK                         _______ _______ _______ _____ _____    ______ ____
ROOT
ATOM      1  C   UNL A   1     -30.042  -0.769  29.653  0.00  0.00    +0.081 A 
ATOM      2  N   UNL A   1     -30.697   0.239  30.202  0.00  0.00    -0.244 NA
ATOM      3  C   UNL A   1     -31.865   0.453  30.127  0.00  0.00    +0.103 A 
ATOM      4  C   UNL A   1     -32.692  -0.466  29.432  0.00  0.00    +0.074 A 
ATOM      5  C   UNL A   1     -32.020  -1.574  28.858  0.00  0.00    +0.007 A 
ATOM      6  C   UNL A   1     -30.668  -1.758  29.046  0.00  0.00    +0.019 A 
ENDROOT
BRANCH   1   8
ATOM      7  C   UNL A   1     -28.016  -0.814  28.878  0.00  0.00    +0.002 A 
ATOM      8  C   UNL A   1     -28.469  -0.785  29.829  0.00  0.00    +0.018 A 
ATOM      9  C   UNL A   1     -26.504  -0.778  28.877  0.00  0.00    +0.000 A 
ATOM     10  C   UNL A   1     -25.810  -0.853  30.103  0.00  0.00    +0.000 A 
ATOM     11  C   UNL A   1     -27.991  -0.892  31.226  0.00  0.00    +0.002 A 
ATOM     12  C   UNL A   1     -26.604  -0.868  31.265  0.00  0.00    +0.000 A 
ENDBRANCH   1   8
BRANCH   5  13
ATOM     13  C   UNL A   1     -32.747  -2.614  28.098  0.00  0.00    +0.000 A 
ATOM     14  C   UNL A   1     -32.559  -2.605  26.729  0.00  0.00    +0.000 A 
ATOM     15  C   UNL A   1     -32.609  -3.817  26.033  0.00  0.00    +0.000 A 
ATOM     16  C   UNL A   1     -33.077  -4.990  26.661  0.00  0.00    +0.000 A 
ATOM     17  C   UNL A   1     -33.267  -4.948  28.023  0.00  0.00    +0.000 A 
ATOM     18  C   UNL A   1     -32.950  -3.816  28.773  0.00  0.00    +0.000 A 
ENDBRANCH   5  13
BRANCH   4  19
ATOM     19  C   UNL A   1     -34.089  -0.327  29.252  0.00  0.00    +0.266 C 
ATOM     20  N   UNL A   1     -34.634   0.599  29.290  0.00  0.00    -0.200 NA
ATOM     21  O   UNL A   1     -34.745  -1.440  29.074  0.00  0.00    -0.268 OA
ATOM     22  C   UNL A   1     -36.083   0.889  29.202  0.00  0.00    +0.139 C 
ENDBRANCH   4  19
TORSDOF 3
