MODEL 958
MODEL 1
REMARK VINA RESULT:    -7.469      0.000      0.000
REMARK INTER + INTRA:          -9.683
REMARK INTER:                  -8.779
REMARK INTRA:                  -0.903
REMARK UNBOUND:                -0.903
REMARK  Name = No_958-gen_results/8p0m/2024-11-26-14-13-15/
REMARK  3 active torsions:
REMARK  status: ('A' for Active; 'I' for Inactive)
REMARK    1  A    between atoms: C_2  and  C_7
REMARK    2  A    between atoms: C_10  and  C_19
REMARK    3  A    between atoms: C_11  and  C_13
REMARK                            x       y       z     vdW  Elec       q    Type
REMARK                         _______ _______ _______ _____ _____    ______ ____
ROOT
ATOM      1  C   UNL A   1     -25.288  -1.354  29.169  0.00  0.00    +0.081 A 
ATOM      2  N   UNL A   1     -26.148  -0.820  30.018  0.00  0.00    -0.244 NA
ATOM      3  C   UNL A   1     -26.307   0.339  30.234  0.00  0.00    +0.103 A 
ATOM      4  C   UNL A   1     -25.557   1.289  29.494  0.00  0.00    +0.074 A 
ATOM      5  C   UNL A   1     -24.647   0.744  28.554  0.00  0.00    +0.007 A 
ATOM      6  C   UNL A   1     -24.575  -0.615  28.342  0.00  0.00    +0.019 A 
ENDROOT
BRANCH   1   8
ATOM      7  C   UNL A   1     -26.031  -3.335  29.648  0.00  0.00    +0.002 A 
ATOM      8  C   UNL A   1     -25.208  -2.934  29.125  0.00  0.00    +0.018 A 
ATOM      9  C   UNL A   1     -26.127  -4.845  29.649  0.00  0.00    +0.000 A 
ATOM     10  C   UNL A   1     -25.073  -5.605  29.098  0.00  0.00    +0.000 A 
ATOM     11  C   UNL A   1     -23.981  -3.488  28.510  0.00  0.00    +0.002 A 
ATOM     12  C   UNL A   1     -24.030  -4.875  28.498  0.00  0.00    +0.000 A 
ENDBRANCH   1   8
BRANCH   5  13
ATOM     13  C   UNL A   1     -23.791   1.609  27.712  0.00  0.00    +0.000 A 
ATOM     14  C   UNL A   1     -22.440   1.588  28.002  0.00  0.00    +0.000 A 
ATOM     15  C   UNL A   1     -21.524   1.782  26.964  0.00  0.00    +0.000 A 
ATOM     16  C   UNL A   1     -21.954   2.227  25.696  0.00  0.00    +0.000 A 
ATOM     17  C   UNL A   1     -23.309   2.247  25.457  0.00  0.00    +0.000 A 
ATOM     18  C   UNL A   1     -24.227   1.786  26.401  0.00  0.00    +0.000 A 
ENDBRANCH   5  13
BRANCH   4  19
ATOM     19  C   UNL A   1     -25.634   2.692  29.660  0.00  0.00    +0.266 C 
ATOM     20  N   UNL A   1     -26.269   3.353  29.098  0.00  0.00    -0.200 NA
ATOM     21  O   UNL A   1     -24.818   3.198  30.542  0.00  0.00    -0.268 OA
ATOM     22  C   UNL A   1     -26.399   4.828  29.103  0.00  0.00    +0.139 C 
ENDBRANCH   4  19
TORSDOF 3
ENDMDL
ENDMDL
