MODEL 959
MODEL 1
REMARK VINA RESULT:    -5.259      0.000      0.000
REMARK INTER + INTRA:          -5.696
REMARK INTER:                  -5.567
REMARK INTRA:                  -0.129
REMARK UNBOUND:                -0.129
REMARK  Name = No_959-gen_results/8p0m/2024-11-26-14-13-15/
REMARK  1 active torsions:
REMARK  status: ('A' for Active; 'I' for Inactive)
REMARK    1  A    between atoms: C_3  and  C_7
REMARK                            x       y       z     vdW  Elec       q    Type
REMARK                         _______ _______ _______ _____ _____    ______ ____
ROOT
ATOM      1  C   UNL A   1     -25.980  -3.002  29.663  0.00  0.00    +0.011 A 
ATOM      2  C   UNL A   1     -26.183  -4.035  29.708  0.00  0.00    +0.035 A 
ATOM      3  C   UNL A   1     -24.693  -2.685  29.045  0.00  0.00    +0.072 A 
ATOM      4  C   UNL A   1     -23.857  -3.659  28.558  0.00  0.00    +0.004 A 
ATOM      5  C   UNL A   1     -25.507  -5.260  29.282  0.00  0.00    +0.007 A 
ATOM      6  C   UNL A   1     -24.260  -4.964  28.681  0.00  0.00    +0.000 A 
ATOM      7 BR   UNL A   1     -28.007  -4.395  30.431  0.00  0.00    -0.049 Br
ENDROOT
BRANCH   3   8
ATOM      8  C   UNL A   1     -24.246  -1.274  28.855  0.00  0.00    +0.419 C 
ATOM      9  F   UNL A   1     -24.518  -0.512  29.724  0.00  0.00    -0.166 F 
ATOM     10  F   UNL A   1     -22.824  -1.235  28.738  0.00  0.00    -0.166 F 
ATOM     11  F   UNL A   1     -24.629  -0.852  27.570  0.00  0.00    -0.166 F 
ENDBRANCH   3   8
TORSDOF 1
ENDMDL
ENDMDL
