MODEL 95
MODEL 1
REMARK VINA RESULT:    -5.875      0.000      0.000
REMARK INTER + INTRA:          -6.870
REMARK INTER:                  -6.562
REMARK INTRA:                  -0.307
REMARK UNBOUND:                -0.307
REMARK  Name = No_95-gen_results/8p0m/2024-11-26-14-13-15/
REMARK  2 active torsions:
REMARK  status: ('A' for Active; 'I' for Inactive)
REMARK    1  A    between atoms: C_1  and  C_2
REMARK    2  A    between atoms: N_8  and  C_9
REMARK                            x       y       z     vdW  Elec       q    Type
REMARK                         _______ _______ _______ _____ _____    ______ ____
ROOT
ATOM      1  C   UNL A   1     -29.938 -14.594  12.146  0.00  0.00    +0.269 C 
ATOM      2  N   UNL A   1     -29.428 -13.316  12.146  0.00  0.00    -0.175 NA
ATOM      3  O   UNL A   1     -29.608 -15.328  13.102  0.00  0.00    -0.268 OA
ENDROOT
BRANCH   1   4
ATOM      4  C   UNL A   1     -30.276 -15.025  11.069  0.00  0.00    +0.055 A 
ATOM      5  C   UNL A   1     -29.391 -15.526  10.134  0.00  0.00    +0.005 A 
ATOM      6  C   UNL A   1     -29.736 -15.983   8.801  0.00  0.00    +0.000 A 
ATOM      7  C   UNL A   1     -31.088 -15.935   8.395  0.00  0.00    +0.000 A 
ATOM      8  C   UNL A   1     -32.020 -15.402   9.356  0.00  0.00    +0.000 A 
ATOM      9  C   UNL A   1     -31.664 -14.940  10.601  0.00  0.00    +0.005 A 
ENDBRANCH   1   4
BRANCH   2  10
ATOM     10  C   UNL A   1     -29.833 -12.378  11.760  0.00  0.00    +0.074 A 
ATOM     11  C   UNL A   1     -30.687 -11.806  11.985  0.00  0.00    +0.017 A 
ATOM     12  C   UNL A   1     -31.314 -10.624  11.333  0.00  0.00    +0.001 A 
ATOM     13  C   UNL A   1     -30.512 -10.133  10.266  0.00  0.00    +0.000 A 
ATOM     14  C   UNL A   1     -29.411 -10.755   9.859  0.00  0.00    +0.001 A 
ATOM     15  C   UNL A   1     -29.036 -11.858  10.516  0.00  0.00    +0.017 A 
ENDBRANCH   2  10
TORSDOF 2
ENDMDL
ENDMDL
