REMARK  Name = No_96-gen_results/8p0m/2024-11-26-14-13-15/
REMARK  16 active torsions:
REMARK  status: ('A' for Active; 'I' for Inactive)
REMARK    1  A    between atoms: C_2  and  C_7
REMARK    2  A    between atoms: C_4  and  C_24
REMARK    3  A    between atoms: C_5  and  O_15
REMARK    4  A    between atoms: C_6  and  O_14
REMARK    5  A    between atoms: C_7  and  C_8
REMARK    6  A    between atoms: O_14  and  C_20
REMARK    7  A    between atoms: O_15  and  C_16
REMARK    8  A    between atoms: C_16  and  C_17
REMARK    9  A    between atoms: C_20  and  C_21
REMARK   10  A    between atoms: C_24  and  O_26
REMARK   11  A    between atoms: O_26  and  C_27
REMARK   12  A    between atoms: C_27  and  C_28
REMARK   13  A    between atoms: C_28  and  C_29
REMARK   14  A    between atoms: C_28  and  C_33
REMARK   15  A    between atoms: C_29  and  C_30
REMARK   16  A    between atoms: C_30  and  C_31
REMARK                            x       y       z     vdW  Elec       q    Type
REMARK                         _______ _______ _______ _____ _____    ______ ____
ROOT
ATOM      1  C   UNL A   1     -28.016  -0.814  28.878  0.00  0.00    +0.036 A 
ATOM      2  C   UNL A   1     -27.064  -0.119  28.608  0.00  0.00    -0.014 A 
ATOM      3  C   UNL A   1     -26.929   1.171  29.008  0.00  0.00    +0.006 A 
ATOM      4  C   UNL A   1     -27.956   1.741  29.784  0.00  0.00    +0.112 A 
ATOM      5  C   UNL A   1     -29.057  -0.327  29.747  0.00  0.00    +0.173 A 
ATOM      6  C   UNL A   1     -28.983   0.972  30.152  0.00  0.00    +0.179 A 
ENDROOT
BRANCH   4   7
ATOM      7  C   UNL A   1     -27.850   3.161  30.216  0.00  0.00    +0.344 C 
ATOM      8  O   UNL A   1     -27.482   3.896  29.480  0.00  0.00    -0.245 OA
BRANCH   7   9
ATOM      9  O   UNL A   1     -28.149   3.416  31.456  0.00  0.00    -0.445 OA
BRANCH   9  10
ATOM     10  C   UNL A   1     -27.249   3.397  32.483  0.00  0.00    +0.214 C 
BRANCH  10  11
ATOM     11  C   UNL A   1     -27.101   2.414  33.241  0.00  0.00    +0.111 C 
BRANCH  11  12
ATOM     12  C   UNL A   1     -26.973   2.901  34.821  0.00  0.00    +0.322 C 
ATOM     13  F   UNL A   1     -26.805   1.778  35.511  0.00  0.00    -0.198 F 
ATOM     14  F   UNL A   1     -25.901   3.615  35.086  0.00  0.00    -0.198 F 
ENDBRANCH  11  12
BRANCH  11  15
ATOM     15  C   UNL A   1     -26.057   1.479  32.972  0.00  0.00    +0.011 C 
BRANCH  15  16
ATOM     16  C   UNL A   1     -26.426   0.252  32.483  0.00  0.00    +0.021 C 
BRANCH  16  17
ATOM     17  C   UNL A   1     -25.597  -0.750  33.064  0.00  0.00    +0.109 C 
ATOM     18  N   UNL A   1     -24.339  -0.671  32.448  0.00  0.00    -0.131 NA
ENDBRANCH  16  17
ENDBRANCH  15  16
ENDBRANCH  11  15
ENDBRANCH  10  11
ENDBRANCH   9  10
ENDBRANCH   7   9
ENDBRANCH   4   7
BRANCH   5  19
ATOM     19  O   UNL A   1     -29.834  -1.271  30.265  0.00  0.00    -0.461 OA
BRANCH  19  20
ATOM     20  C   UNL A   1     -29.314  -2.314  30.912  0.00  0.00    +0.319 C 
BRANCH  20  21
ATOM     21  C   UNL A   1     -29.673  -3.602  30.377  0.00  0.00    +0.408 C 
ATOM     22  O   UNL A   1     -28.733  -4.483  30.434  0.00  0.00    -0.241 OA
ATOM     23  O   UNL A   1     -30.742  -3.809  29.909  0.00  0.00    -0.241 OA
ENDBRANCH  20  21
ENDBRANCH  19  20
ENDBRANCH   5  19
BRANCH   6  24
ATOM     24  O   UNL A   1     -30.037   1.447  30.942  0.00  0.00    -0.460 OA
BRANCH  24  25
ATOM     25  C   UNL A   1     -31.210   1.515  30.447  0.00  0.00    +0.319 C 
BRANCH  25  26
ATOM     26  C   UNL A   1     -32.203   0.932  31.212  0.00  0.00    +0.408 C 
ATOM     27  O   UNL A   1     -33.061   1.420  31.442  0.00  0.00    -0.241 OA
ATOM     28  O   UNL A   1     -31.984  -0.360  31.564  0.00  0.00    -0.241 OA
ENDBRANCH  25  26
ENDBRANCH  24  25
ENDBRANCH   6  24
BRANCH   2  29
ATOM     29  C   UNL A   1     -25.881  -0.626  27.794  0.00  0.00    +0.053 C 
BRANCH  29  30
ATOM     30  C   UNL A   1     -24.697  -1.057  28.624  0.00  0.00    -0.018 A 
ATOM     31  C   UNL A   1     -24.643  -2.255  29.104  0.00  0.00    -0.004 A 
ATOM     32  C   UNL A   1     -23.623  -0.151  28.789  0.00  0.00    -0.004 A 
ATOM     33  C   UNL A   1     -22.451  -0.639  29.503  0.00  0.00    -0.000 A 
ATOM     34  C   UNL A   1     -23.435  -2.740  29.763  0.00  0.00    -0.000 A 
ATOM     35  C   UNL A   1     -22.391  -1.858  29.959  0.00  0.00    -0.000 A 
ENDBRANCH  29  30
ENDBRANCH   2  29
TORSDOF 16
