REMARK  Name = No_960-gen_results/8p0m/2024-11-26-14-13-15/
REMARK  3 active torsions:
REMARK  status: ('A' for Active; 'I' for Inactive)
REMARK    1  A    between atoms: C_1  and  C_2
REMARK    2  A    between atoms: C_5  and  C_10
REMARK    3  A    between atoms: N_11  and  C_14
REMARK                            x       y       z     vdW  Elec       q    Type
REMARK                         _______ _______ _______ _____ _____    ______ ____
ROOT
ATOM      1  C   UNL A   1     -27.064  -0.119  28.608  0.00  0.00    +0.071 A 
ATOM      2  C   UNL A   1     -26.929   1.171  29.008  0.00  0.00    +0.004 A 
ATOM      3  C   UNL A   1     -25.770   2.034  28.688  0.00  0.00    +0.004 A 
ATOM      4  C   UNL A   1     -24.714   1.443  27.919  0.00  0.00    +0.055 A 
ATOM      5  C   UNL A   1     -24.859   0.078  27.584  0.00  0.00    +0.004 A 
ATOM      6  C   UNL A   1     -25.965  -0.661  27.916  0.00  0.00    +0.004 A 
ENDROOT
BRANCH   1   7
ATOM      7  C   UNL A   1     -28.016  -0.814  28.878  0.00  0.00    +0.419 C 
ATOM      8  F   UNL A   1     -27.815  -2.022  29.481  0.00  0.00    -0.166 F 
ATOM      9  F   UNL A   1     -28.889  -0.205  29.835  0.00  0.00    -0.166 F 
ATOM     10  F   UNL A   1     -28.894  -0.864  27.821  0.00  0.00    -0.166 F 
ENDBRANCH   1   7
BRANCH   4  11
ATOM     11  C   UNL A   1     -23.531   2.145  27.555  0.00  0.00    +0.269 C 
ATOM     12  N   UNL A   1     -22.453   1.648  27.099  0.00  0.00    -0.173 NA
ATOM     13  O   UNL A   1     -23.755   3.398  27.221  0.00  0.00    -0.268 OA
BRANCH  12  14
ATOM     14  C   UNL A   1     -21.806   0.628  27.915  0.00  0.00    +0.108 C 
ATOM     15  C   UNL A   1     -20.441   0.867  28.346  0.00  0.00    +0.124 C 
ATOM     16  N   UNL A   1     -20.128  -0.324  29.019  0.00  0.00    -0.125 NA
ENDBRANCH  12  14
ENDBRANCH   4  11
TORSDOF 3
