MODEL 960
MODEL 1
REMARK VINA RESULT:    -6.182      0.000      0.000
REMARK INTER + INTRA:          -7.610
REMARK INTER:                  -7.266
REMARK INTRA:                  -0.343
REMARK UNBOUND:                -0.343
REMARK  Name = No_960-gen_results/8p0m/2024-11-26-14-13-15/
REMARK  3 active torsions:
REMARK  status: ('A' for Active; 'I' for Inactive)
REMARK    1  A    between atoms: C_1  and  C_2
REMARK    2  A    between atoms: C_5  and  C_10
REMARK    3  A    between atoms: N_11  and  C_14
REMARK                            x       y       z     vdW  Elec       q    Type
REMARK                         _______ _______ _______ _____ _____    ______ ____
ROOT
ATOM      1  C   UNL A   1     -10.161 -21.809  22.266  0.00  0.00    +0.071 A 
ATOM      2  C   UNL A   1     -10.176 -22.335  21.015  0.00  0.00    +0.004 A 
ATOM      3  C   UNL A   1     -11.232 -22.083  20.009  0.00  0.00    +0.004 A 
ATOM      4  C   UNL A   1     -12.320 -21.238  20.408  0.00  0.00    +0.055 A 
ATOM      5  C   UNL A   1     -12.304 -20.769  21.741  0.00  0.00    +0.004 A 
ATOM      6  C   UNL A   1     -11.288 -21.045  22.620  0.00  0.00    +0.004 A 
ENDROOT
BRANCH   1   7
ATOM      7  C   UNL A   1      -9.292 -22.025  23.079  0.00  0.00    +0.419 C 
ATOM      8  F   UNL A   1      -8.069 -21.440  22.925  0.00  0.00    -0.166 F 
ATOM      9  F   UNL A   1      -9.630 -21.546  24.386  0.00  0.00    -0.166 F 
ATOM     10  F   UNL A   1      -9.229 -23.366  23.376  0.00  0.00    -0.166 F 
ENDBRANCH   1   7
BRANCH   4  11
ATOM     11  C   UNL A   1     -13.414 -20.925  19.555  0.00  0.00    +0.269 C 
ATOM     12  N   UNL A   1     -13.390 -20.798  18.290  0.00  0.00    -0.173 NA
ATOM     13  O   UNL A   1     -14.579 -21.270  20.060  0.00  0.00    -0.268 OA
BRANCH  12  14
ATOM     14  C   UNL A   1     -12.460 -19.814  17.749  0.00  0.00    +0.108 C 
ATOM     15  C   UNL A   1     -11.458 -20.273  16.805  0.00  0.00    +0.124 C 
ATOM     16  N   UNL A   1     -10.714 -19.106  16.569  0.00  0.00    -0.125 NA
ENDBRANCH  12  14
ENDBRANCH   4  11
TORSDOF 3
ENDMDL
ENDMDL
