MODEL 961
MODEL 1
REMARK VINA RESULT:    -5.932      0.000      0.000
REMARK INTER + INTRA:          -6.440
REMARK INTER:                  -6.279
REMARK INTRA:                  -0.160
REMARK UNBOUND:                -0.160
REMARK  Name = No_961-gen_results/8p0m/2024-11-26-14-13-15/
REMARK  1 active torsions:
REMARK  status: ('A' for Active; 'I' for Inactive)
REMARK    1  A    between atoms: C_5  and  C_11
REMARK                            x       y       z     vdW  Elec       q    Type
REMARK                         _______ _______ _______ _____ _____    ______ ____
ROOT
ATOM      1  C   UNL A   1     -22.427   1.468  27.953  0.00  0.00    +0.099 A 
ATOM      2  C   UNL A   1     -23.073   0.462  28.139  0.00  0.00    +0.019 A 
ATOM      3  C   UNL A   1     -24.227   0.147  27.625  0.00  0.00    +0.003 A 
ATOM      4  C   UNL A   1     -24.987  -1.103  27.874  0.00  0.00    -0.003 A 
ATOM      5  C   UNL A   1     -24.365  -2.063  28.721  0.00  0.00    -0.007 A 
ATOM      6  C   UNL A   1     -23.092  -1.748  29.208  0.00  0.00    -0.003 A 
ATOM      7  C   UNL A   1     -22.448  -0.585  28.933  0.00  0.00    +0.001 A 
ATOM      8  N   UNL A   1     -22.475   2.131  26.743  0.00  0.00    -0.242 NA
ATOM      9  C   UNL A   1     -23.177   1.976  25.985  0.00  0.00    +0.099 A 
ATOM     10  C   UNL A   1     -24.358   1.049  26.045  0.00  0.00    +0.021 A 
ENDROOT
BRANCH   5  11
ATOM     11  C   UNL A   1     -25.056  -3.225  29.159  0.00  0.00    +0.102 C 
ATOM     12 CL   UNL A   1     -26.144  -3.535  29.835  0.00  0.00    -0.110 Cl
ATOM     13  C   UNL A   1     -24.238  -4.468  28.626  0.00  0.00    +0.022 C 
ENDBRANCH   5  11
TORSDOF 1
ENDMDL
ENDMDL
