MODEL 962
MODEL 1
REMARK VINA RESULT:    -3.513      0.000      0.000
REMARK INTER + INTRA:          -4.051
REMARK INTER:                  -3.923
REMARK INTRA:                  -0.127
REMARK UNBOUND:                -0.127
REMARK  Name = No_962-gen_results/8p0m/2024-11-26-14-13-15/
REMARK  2 active torsions:
REMARK  status: ('A' for Active; 'I' for Inactive)
REMARK    1  A    between atoms: C_2  and  C_3
REMARK    2  A    between atoms: C_3  and  C_4
REMARK                            x       y       z     vdW  Elec       q    Type
REMARK                         _______ _______ _______ _____ _____    ______ ____
ROOT
ATOM      1  C   UNL A   1     -24.373  -3.199  29.261  0.00  0.00    +0.103 C 
ENDROOT
BRANCH   1   2
ATOM      2  C   UNL A   1     -23.617  -2.052  28.923  0.00  0.00    -0.017 C 
ATOM      3  C   UNL A   1     -23.196  -1.396  29.558  0.00  0.00    -0.029 C 
ATOM      4  C   UNL A   1     -23.683  -1.334  31.025  0.00  0.00    +0.030 C 
ENDBRANCH   1   2
BRANCH   1   6
ATOM      5  C   UNL A   1     -24.861  -5.490  28.981  0.00  0.00    -0.014 C 
ATOM      6  C   UNL A   1     -24.205  -4.499  28.760  0.00  0.00    -0.073 C 
ENDBRANCH   1   6
TORSDOF 2
ENDMDL
ENDMDL
