REMARK  Name = No_963-gen_results/8p0m/2024-11-26-14-13-15/
REMARK  0 active torsions:
REMARK  status: ('A' for Active; 'I' for Inactive)
REMARK                            x       y       z     vdW  Elec       q    Type
REMARK                         _______ _______ _______ _____ _____    ______ ____
ROOT
ATOM      1  C   UNL A   1     -28.016  -0.814  28.878  0.00  0.00    +0.000 A 
ATOM      2  C   UNL A   1     -28.469  -0.785  29.829  0.00  0.00    +0.000 A 
ATOM      3  C   UNL A   1     -28.182   0.428  28.113  0.00  0.00    +0.000 A 
ATOM      4  C   UNL A   1     -28.984   1.415  28.515  0.00  0.00    +0.000 A 
ATOM      5  C   UNL A   1     -29.380   0.138  30.461  0.00  0.00    +0.000 A 
ATOM      6  C   UNL A   1     -29.541   1.274  29.724  0.00  0.00    +0.000 A 
ENDROOT
TORSDOF 0
