MODEL 963
MODEL 1
REMARK VINA RESULT:    -4.345      0.000      0.000
REMARK INTER + INTRA:          -4.345
REMARK INTER:                  -4.345
REMARK INTRA:                   0.000
REMARK UNBOUND:                 0.000
REMARK  Name = No_963-gen_results/8p0m/2024-11-26-14-13-15/
REMARK  0 active torsions:
REMARK  status: ('A' for Active; 'I' for Inactive)
REMARK                            x       y       z     vdW  Elec       q    Type
REMARK                         _______ _______ _______ _____ _____    ______ ____
ROOT
ATOM      1  C   UNL A   1     -24.140  -4.861  28.602  0.00  0.00    +0.000 A 
ATOM      2  C   UNL A   1     -24.982  -5.300  29.058  0.00  0.00    +0.000 A 
ATOM      3  C   UNL A   1     -24.077  -3.404  28.772  0.00  0.00    +0.000 A 
ATOM      4  C   UNL A   1     -25.085  -2.699  29.290  0.00  0.00    +0.000 A 
ATOM      5  C   UNL A   1     -26.184  -4.758  29.643  0.00  0.00    +0.000 A 
ATOM      6  C   UNL A   1     -26.118  -3.402  29.769  0.00  0.00    +0.000 A 
ENDROOT
TORSDOF 0
ENDMDL
ENDMDL
