REMARK  Name = No_964-gen_results/8p0m/2024-11-26-14-13-15/
REMARK  2 active torsions:
REMARK  status: ('A' for Active; 'I' for Inactive)
REMARK    1  A    between atoms: C_1  and  C_2
REMARK    2  A    between atoms: C_1  and  N_8
REMARK                            x       y       z     vdW  Elec       q    Type
REMARK                         _______ _______ _______ _____ _____    ______ ____
ROOT
ATOM      1  C   UNL A   1     -27.064  -0.119  28.608  0.00  0.00    +0.000 A 
ATOM      2  C   UNL A   1     -25.792  -0.430  29.076  0.00  0.00    -0.002 A 
ATOM      3  C   UNL A   1     -24.546   0.349  28.823  0.00  0.00    +0.011 A 
ATOM      4  C   UNL A   1     -24.659   1.420  27.888  0.00  0.00    +0.058 A 
ATOM      5  C   UNL A   1     -25.947   1.681  27.379  0.00  0.00    +0.011 A 
ATOM      6  C   UNL A   1     -27.044   0.974  27.687  0.00  0.00    -0.002 A 
ATOM      7 CL   UNL A   1     -23.276   2.306  27.534  0.00  0.00    -0.082 Cl
ENDROOT
BRANCH   1   8
ATOM      8  C   UNL A   1     -28.016  -0.814  28.878  0.00  0.00    +0.133 C 
BRANCH   8   9
ATOM      9  N   UNL A   1     -29.188  -0.147  29.092  0.00  0.00    -0.321 N 
ATOM     10  C   UNL A   1     -29.759   0.526  28.463  0.00  0.00    +0.076 A 
ATOM     11  C   UNL A   1     -31.109   0.912  28.833  0.00  0.00    +0.020 A 
ATOM     12  C   UNL A   1     -30.103  -0.821  30.099  0.00  0.00    +0.076 A 
ATOM     13  C   UNL A   1     -31.256  -0.016  29.938  0.00  0.00    +0.020 A 
ENDBRANCH   8   9
ENDBRANCH   1   8
TORSDOF 2
