MODEL 964
MODEL 1
REMARK VINA RESULT:    -5.707      0.000      0.000
REMARK INTER + INTRA:          -6.600
REMARK INTER:                  -6.374
REMARK INTRA:                  -0.226
REMARK UNBOUND:                -0.226
REMARK  Name = No_964-gen_results/8p0m/2024-11-26-14-13-15/
REMARK  2 active torsions:
REMARK  status: ('A' for Active; 'I' for Inactive)
REMARK    1  A    between atoms: C_1  and  C_2
REMARK    2  A    between atoms: C_1  and  N_8
REMARK                            x       y       z     vdW  Elec       q    Type
REMARK                         _______ _______ _______ _____ _____    ______ ____
ROOT
ATOM      1  C   UNL A   1     -23.773  -0.647  28.875  0.00  0.00    +0.000 A 
ATOM      2  C   UNL A   1     -22.598   0.092  28.781  0.00  0.00    -0.002 A 
ATOM      3  C   UNL A   1     -22.301   1.146  27.770  0.00  0.00    +0.011 A 
ATOM      4  C   UNL A   1     -23.254   1.289  26.719  0.00  0.00    +0.058 A 
ATOM      5  C   UNL A   1     -24.410   0.487  26.801  0.00  0.00    +0.011 A 
ATOM      6  C   UNL A   1     -24.646  -0.410  27.769  0.00  0.00    -0.002 A 
ATOM      7 CL   UNL A   1     -22.948   2.435  25.529  0.00  0.00    -0.082 Cl
ENDROOT
BRANCH   1   8
ATOM      8  C   UNL A   1     -23.920  -1.478  29.742  0.00  0.00    +0.133 C 
BRANCH   8   9
ATOM      9  N   UNL A   1     -24.396  -2.686  29.322  0.00  0.00    -0.321 N 
ATOM     10  C   UNL A   1     -23.890  -3.577  28.968  0.00  0.00    +0.076 A 
ATOM     11  C   UNL A   1     -24.616  -4.825  28.814  0.00  0.00    +0.020 A 
ATOM     12  C   UNL A   1     -25.744  -3.055  29.917  0.00  0.00    +0.076 A 
ATOM     13  C   UNL A   1     -25.843  -4.389  29.454  0.00  0.00    +0.020 A 
ENDBRANCH   8   9
ENDBRANCH   1   8
TORSDOF 2
ENDMDL
ENDMDL
