REMARK  Name = No_965-gen_results/8p0m/2024-11-26-14-13-15/
REMARK  1 active torsions:
REMARK  status: ('A' for Active; 'I' for Inactive)
REMARK    1  A    between atoms: C_7  and  C_12
REMARK                            x       y       z     vdW  Elec       q    Type
REMARK                         _______ _______ _______ _____ _____    ______ ____
ROOT
ATOM      1  C   UNL A   1     -28.016  -0.814  28.878  0.00  0.00    +0.001 A 
ATOM      2  C   UNL A   1     -28.469  -0.785  29.829  0.00  0.00    -0.000 A 
ATOM      3  C   UNL A   1     -28.196   0.348  28.055  0.00  0.00    +0.011 A 
ATOM      4  C   UNL A   1     -27.442   0.510  26.795  0.00  0.00    +0.058 A 
ATOM      5  C   UNL A   1     -27.843   1.333  25.806  0.00  0.00    +0.011 A 
ATOM      6  C   UNL A   1     -29.472   0.121  30.352  0.00  0.00    +0.004 A 
ATOM      7  C   UNL A   1     -29.707   1.185  29.596  0.00  0.00    +0.071 A 
ATOM      8  C   UNL A   1     -29.036   1.367  28.402  0.00  0.00    +0.005 A 
ATOM      9  C   UNL A   1     -28.808   2.394  26.152  0.00  0.00    +0.001 A 
ATOM     10  C   UNL A   1     -29.345   2.367  27.430  0.00  0.00    +0.000 A 
ATOM     11 CL   UNL A   1     -26.163  -0.599  26.393  0.00  0.00    -0.082 Cl
ENDROOT
BRANCH   7  12
ATOM     12  C   UNL A   1     -30.680   2.238  30.001  0.00  0.00    +0.419 C 
ATOM     13  F   UNL A   1     -31.233   1.966  31.128  0.00  0.00    -0.166 F 
ATOM     14  F   UNL A   1     -29.950   3.338  30.112  0.00  0.00    -0.166 F 
ATOM     15  F   UNL A   1     -31.593   2.365  29.034  0.00  0.00    -0.166 F 
ENDBRANCH   7  12
TORSDOF 1
