MODEL 965
MODEL 1
REMARK VINA RESULT:    -6.274      0.000      0.000
REMARK INTER + INTRA:          -6.433
REMARK INTER:                  -6.641
REMARK INTRA:                   0.209
REMARK UNBOUND:                 0.209
REMARK  Name = No_965-gen_results/8p0m/2024-11-26-14-13-15/
REMARK  1 active torsions:
REMARK  status: ('A' for Active; 'I' for Inactive)
REMARK    1  A    between atoms: C_7  and  C_12
REMARK                            x       y       z     vdW  Elec       q    Type
REMARK                         _______ _______ _______ _____ _____    ______ ____
ROOT
ATOM      1  C   UNL A   1     -21.966   1.177  27.689  0.00  0.00    +0.001 A 
ATOM      2  C   UNL A   1     -21.585   0.728  28.563  0.00  0.00    -0.000 A 
ATOM      3  C   UNL A   1     -23.291   0.785  27.301  0.00  0.00    +0.011 A 
ATOM      4  C   UNL A   1     -24.007   1.495  26.221  0.00  0.00    +0.058 A 
ATOM      5  C   UNL A   1     -25.039   0.948  25.549  0.00  0.00    +0.011 A 
ATOM      6  C   UNL A   1     -22.066  -0.425  29.299  0.00  0.00    +0.004 A 
ATOM      7  C   UNL A   1     -23.268  -0.852  28.937  0.00  0.00    +0.071 A 
ATOM      8  C   UNL A   1     -23.965  -0.228  27.921  0.00  0.00    +0.005 A 
ATOM      9  C   UNL A   1     -25.730  -0.195  26.174  0.00  0.00    +0.001 A 
ATOM     10  C   UNL A   1     -25.170  -0.717  27.330  0.00  0.00    +0.000 A 
ATOM     11 CL   UNL A   1     -23.346   2.956  25.547  0.00  0.00    -0.082 Cl
ENDROOT
BRANCH   7  12
ATOM     12  C   UNL A   1     -23.930  -2.002  29.614  0.00  0.00    +0.419 C 
ATOM     13  F   UNL A   1     -25.210  -1.906  29.572  0.00  0.00    -0.166 F 
ATOM     14  F   UNL A   1     -23.535  -3.064  28.926  0.00  0.00    -0.166 F 
ATOM     15  F   UNL A   1     -23.492  -2.060  30.875  0.00  0.00    -0.166 F 
ENDBRANCH   7  12
TORSDOF 1
ENDMDL
ENDMDL
