REMARK  Name = No_966-gen_results/8p0m/2024-11-26-14-13-15/
REMARK  3 active torsions:
REMARK  status: ('A' for Active; 'I' for Inactive)
REMARK    1  A    between atoms: C_5  and  C_9
REMARK    2  A    between atoms: C_17  and  C_22
REMARK    3  A    between atoms: C_22  and  C_23
REMARK                            x       y       z     vdW  Elec       q    Type
REMARK                         _______ _______ _______ _____ _____    ______ ____
ROOT
ATOM      1  C   UNL A   1     -28.016  -0.814  28.878  0.00  0.00    +0.115 C 
ATOM      2  C   UNL A   1     -27.064  -0.119  28.608  0.00  0.00    -0.006 A 
ATOM      3  C   UNL A   1     -25.765  -0.390  29.036  0.00  0.00    +0.004 A 
ATOM      4  C   UNL A   1     -24.552   0.406  28.765  0.00  0.00    -0.002 A 
ATOM      5  C   UNL A   1     -24.696   1.448  27.799  0.00  0.00    -0.004 A 
ATOM      6  C   UNL A   1     -25.976   1.725  27.308  0.00  0.00    -0.001 A 
ATOM      7  C   UNL A   1     -27.072   1.013  27.654  0.00  0.00    -0.003 A 
ATOM      8  N   UNL A   1     -28.625  -0.580  30.097  0.00  0.00    -0.215 NA
ATOM      9  C   UNL A   1     -28.211   0.268  30.864  0.00  0.00    +0.076 C 
ATOM     10  C   UNL A   1     -28.463   0.791  31.891  0.00  0.00    +0.018 C 
ATOM     11  C   UNL A   1     -28.220   1.660  32.529  0.00  0.00    +0.001 C 
ATOM     12  C   UNL A   1     -26.997   2.490  32.130  0.00  0.00    +0.000 C 
ATOM     13  C   UNL A   1     -26.442   2.003  30.951  0.00  0.00    +0.004 C 
ATOM     14  C   UNL A   1     -26.972   1.015  30.355  0.00  0.00    +0.047 C 
ATOM     15  C   UNL A   1     -26.213   0.568  29.510  0.00  0.00    +0.153 C 
ATOM     16  F   UNL A   1     -26.386   1.569  29.382  0.00  0.00    -0.235 F 
ATOM     17  C   UNL A   1     -24.975   2.424  30.979  0.00  0.00    +0.000 C 
ATOM     18  C   UNL A   1     -26.062  -0.638  30.696  0.00  0.00    +0.040 C 
ENDROOT
BRANCH   5  19
ATOM     19  C   UNL A   1     -23.494   2.168  27.476  0.00  0.00    -0.022 C 
ATOM     20  C   UNL A   1     -23.050   3.006  28.353  0.00  0.00    -0.005 C 
ATOM     21  C   UNL A   1     -22.964   2.076  26.130  0.00  0.00    +0.031 C 
ENDBRANCH   5  19
BRANCH  14  22
ATOM     22  C   UNL A   1     -27.767   1.938  30.508  0.00  0.00    +0.022 C 
BRANCH  22  23
ATOM     23  C   UNL A   1     -28.626   2.771  29.948  0.00  0.00    +0.095 C 
ATOM     24 CL   UNL A   1     -28.765   2.819  30.571  0.00  0.00    -0.114 Cl
ENDBRANCH  22  23
ENDBRANCH  14  22
TORSDOF 3
