MODEL 967
MODEL 1
REMARK VINA RESULT:    -4.376      0.000      0.000
REMARK INTER + INTRA:          -4.376
REMARK INTER:                  -4.376
REMARK INTRA:                   0.000
REMARK UNBOUND:                 0.000
REMARK  Name = No_967-gen_results/8p0m/2024-11-26-14-13-15/
REMARK  0 active torsions:
REMARK  status: ('A' for Active; 'I' for Inactive)
REMARK                            x       y       z     vdW  Elec       q    Type
REMARK                         _______ _______ _______ _____ _____    ______ ____
ROOT
ATOM      1  C   UNL A   1     -23.926  -3.421  28.955  0.00  0.00    +0.024 A 
ATOM      2  C   UNL A   1     -24.810  -3.958  29.154  0.00  0.00    +0.059 A 
ATOM      3  C   UNL A   1     -23.892  -2.054  29.306  0.00  0.00    +0.069 A 
ATOM      4  C   UNL A   1     -24.977  -1.419  29.880  0.00  0.00    +0.068 A 
ATOM      5  C   UNL A   1     -26.090  -3.530  29.752  0.00  0.00    +0.012 A 
ATOM      6  C   UNL A   1     -26.101  -2.225  30.101  0.00  0.00    +0.013 A 
ATOM      7 CL   UNL A   1     -22.486  -1.077  29.075  0.00  0.00    -0.081 Cl
ATOM      8 CL   UNL A   1     -24.880  -5.737  28.795  0.00  0.00    -0.082 Cl
ATOM      9 CL   UNL A   1     -24.976   0.249  30.315  0.00  0.00    -0.081 Cl
ENDROOT
TORSDOF 0
ENDMDL
ENDMDL
