MODEL 968
MODEL 1
REMARK VINA RESULT:    -4.493      0.000      0.000
REMARK INTER + INTRA:          -4.493
REMARK INTER:                  -4.493
REMARK INTRA:                   0.000
REMARK UNBOUND:                 0.000
REMARK  Name = No_968-gen_results/8p0m/2024-11-26-14-13-15/
REMARK  0 active torsions:
REMARK  status: ('A' for Active; 'I' for Inactive)
REMARK                            x       y       z     vdW  Elec       q    Type
REMARK                         _______ _______ _______ _____ _____    ______ ____
ROOT
ATOM      1  C   UNL A   1      -9.215  -9.201  20.029  0.00  0.00    +0.011 A 
ATOM      2  C   UNL A   1      -8.229  -9.893  19.924  0.00  0.00    +0.058 A 
ATOM      3  C   UNL A   1      -8.056 -10.738  18.833  0.00  0.00    +0.011 A 
ATOM      4  C   UNL A   1      -9.070 -10.851  17.816  0.00  0.00    +0.001 A 
ATOM      5  C   UNL A   1     -10.188 -10.034  18.028  0.00  0.00    +0.000 A 
ATOM      6  C   UNL A   1     -10.310  -9.264  19.086  0.00  0.00    +0.001 A 
ATOM      7 CL   UNL A   1      -6.949  -9.922  21.061  0.00  0.00    -0.082 Cl
ENDROOT
TORSDOF 0
ENDMDL
ENDMDL
