MODEL 969
MODEL 1
REMARK VINA RESULT:    -5.194      0.000      0.000
REMARK INTER + INTRA:          -6.001
REMARK INTER:                  -5.801
REMARK INTRA:                  -0.200
REMARK UNBOUND:                -0.200
REMARK  Name = No_969-gen_results/8p0m/2024-11-26-14-13-15/
REMARK  2 active torsions:
REMARK  status: ('A' for Active; 'I' for Inactive)
REMARK    1  A    between atoms: C_3  and  C_7
REMARK    2  A    between atoms: C_7  and  C_9
REMARK                            x       y       z     vdW  Elec       q    Type
REMARK                         _______ _______ _______ _____ _____    ______ ____
ROOT
ATOM      1  C   UNL A   1     -24.473  -4.902  28.878  0.00  0.00    -0.000 A 
ATOM      2  C   UNL A   1     -23.901  -3.854  28.687  0.00  0.00    -0.003 A 
ATOM      3  C   UNL A   1     -24.429  -2.612  29.035  0.00  0.00    -0.007 A 
ATOM      4  C   UNL A   1     -25.761  -2.546  29.606  0.00  0.00    -0.003 A 
ATOM      5  C   UNL A   1     -26.371  -3.807  29.792  0.00  0.00    -0.000 A 
ATOM      6  C   UNL A   1     -25.796  -4.925  29.426  0.00  0.00    -0.000 A 
ENDROOT
BRANCH   3   7
ATOM      7  C   UNL A   1     -23.780  -1.289  28.842  0.00  0.00    +0.102 C 
ATOM      8 CL   UNL A   1     -24.338  -0.331  27.771  0.00  0.00    -0.110 Cl
BRANCH   7   9
ATOM      9  C   UNL A   1     -22.548  -0.920  29.523  0.00  0.00    +0.021 C 
ATOM     10  C   UNL A   1     -21.642  -0.186  28.814  0.00  0.00    +0.002 C 
ENDBRANCH   7   9
ENDBRANCH   3   7
TORSDOF 2
ENDMDL
ENDMDL
