MODEL 96
MODEL 1
REMARK VINA RESULT:    -6.392      0.000      0.000
REMARK INTER + INTRA:         -14.673
REMARK INTER:                 -12.371
REMARK INTRA:                  -2.302
REMARK UNBOUND:                -2.302
REMARK  Name = No_96-gen_results/8p0m/2024-11-26-14-13-15/
REMARK  16 active torsions:
REMARK  status: ('A' for Active; 'I' for Inactive)
REMARK    1  A    between atoms: C_2  and  C_7
REMARK    2  A    between atoms: C_4  and  C_24
REMARK    3  A    between atoms: C_5  and  O_15
REMARK    4  A    between atoms: C_6  and  O_14
REMARK    5  A    between atoms: C_7  and  C_8
REMARK    6  A    between atoms: O_14  and  C_20
REMARK    7  A    between atoms: O_15  and  C_16
REMARK    8  A    between atoms: C_16  and  C_17
REMARK    9  A    between atoms: C_20  and  C_21
REMARK   10  A    between atoms: C_24  and  O_26
REMARK   11  A    between atoms: O_26  and  C_27
REMARK   12  A    between atoms: C_27  and  C_28
REMARK   13  A    between atoms: C_28  and  C_29
REMARK   14  A    between atoms: C_28  and  C_33
REMARK   15  A    between atoms: C_29  and  C_30
REMARK   16  A    between atoms: C_30  and  C_31
REMARK                            x       y       z     vdW  Elec       q    Type
REMARK                         _______ _______ _______ _____ _____    ______ ____
ROOT
ATOM      1  C   UNL A   1     -23.741   0.268  29.994  0.00  0.00    +0.036 A 
ATOM      2  C   UNL A   1     -23.582  -0.488  29.064  0.00  0.00    -0.014 A 
ATOM      3  C   UNL A   1     -23.771  -0.142  27.765  0.00  0.00    +0.006 A 
ATOM      4  C   UNL A   1     -24.177   1.174  27.476  0.00  0.00    +0.112 A 
ATOM      5  C   UNL A   1     -24.063   1.654  29.767  0.00  0.00    +0.173 A 
ATOM      6  C   UNL A   1     -24.292   2.045  28.482  0.00  0.00    +0.179 A 
ENDROOT
BRANCH   4   7
ATOM      7  C   UNL A   1     -24.418   1.577  26.064  0.00  0.00    +0.344 C 
ATOM      8  O   UNL A   1     -23.554   1.927  25.475  0.00  0.00    -0.245 OA
BRANCH   7   9
ATOM      9  O   UNL A   1     -25.651   1.536  25.649  0.00  0.00    -0.445 OA
BRANCH   9  10
ATOM     10  C   UNL A   1     -26.153   0.567  24.828  0.00  0.00    +0.214 C 
BRANCH  10  11
ATOM     11  C   UNL A   1     -27.267   0.659  24.268  0.00  0.00    +0.111 C 
BRANCH  11  12
ATOM     12  C   UNL A   1     -27.836   2.215  24.339  0.00  0.00    +0.322 C 
ATOM     13  F   UNL A   1     -28.278   2.473  23.112  0.00  0.00    -0.198 F 
ATOM     14  F   UNL A   1     -28.889   2.376  25.109  0.00  0.00    -0.198 F 
ENDBRANCH  11  12
BRANCH  11  15
ATOM     15  C   UNL A   1     -28.318  -0.223  24.660  0.00  0.00    +0.011 C 
BRANCH  15  16
ATOM     16  C   UNL A   1     -29.165  -0.664  23.676  0.00  0.00    +0.021 C 
BRANCH  16  17
ATOM     17  C   UNL A   1     -30.506  -0.606  24.154  0.00  0.00    +0.109 C 
ATOM     18  N   UNL A   1     -31.301  -1.363  23.282  0.00  0.00    -0.131 NA
ENDBRANCH  16  17
ENDBRANCH  15  16
ENDBRANCH  11  15
ENDBRANCH  10  11
ENDBRANCH   9  10
ENDBRANCH   7   9
ENDBRANCH   4   7
BRANCH   5  19
ATOM     19  O   UNL A   1     -23.848   2.452  30.806  0.00  0.00    -0.461 OA
BRANCH  19  20
ATOM     20  C   UNL A   1     -24.690   2.482  31.839  0.00  0.00    +0.319 C 
BRANCH  20  21
ATOM     21  C   UNL A   1     -25.028   3.800  32.310  0.00  0.00    +0.408 C 
ATOM     22  O   UNL A   1     -24.018   4.589  32.455  0.00  0.00    -0.241 OA
ATOM     23  O   UNL A   1     -26.146   4.109  32.556  0.00  0.00    -0.241 OA
ENDBRANCH  20  21
ENDBRANCH  19  20
ENDBRANCH   5  19
BRANCH   6  24
ATOM     24  O   UNL A   1     -24.668   3.379  28.286  0.00  0.00    -0.460 OA
BRANCH  24  25
ATOM     25  C   UNL A   1     -25.884   3.720  28.461  0.00  0.00    +0.319 C 
BRANCH  25  26
ATOM     26  C   UNL A   1     -26.066   4.965  29.033  0.00  0.00    +0.408 C 
ATOM     27  O   UNL A   1     -25.291   5.592  29.217  0.00  0.00    -0.241 OA
ATOM     28  O   UNL A   1     -27.357   5.320  29.257  0.00  0.00    -0.241 OA
ENDBRANCH  25  26
ENDBRANCH  24  25
ENDBRANCH   6  24
BRANCH   2  29
ATOM     29  C   UNL A   1     -23.125  -1.929  29.246  0.00  0.00    +0.053 C 
BRANCH  29  30
ATOM     30  C   UNL A   1     -24.249  -2.934  29.294  0.00  0.00    -0.018 A 
ATOM     31  C   UNL A   1     -24.059  -4.140  28.871  0.00  0.00    -0.004 A 
ATOM     32  C   UNL A   1     -25.474  -2.548  29.886  0.00  0.00    -0.004 A 
ATOM     33  C   UNL A   1     -26.498  -3.576  30.015  0.00  0.00    -0.000 A 
ATOM     34  C   UNL A   1     -25.078  -5.166  29.065  0.00  0.00    -0.000 A 
ATOM     35  C   UNL A   1     -26.290  -4.798  29.613  0.00  0.00    -0.000 A 
ENDBRANCH  29  30
ENDBRANCH   2  29
TORSDOF 16
ENDMDL
ENDMDL
