REMARK  Name = No_97-gen_results/8p0m/2024-11-26-14-13-15/
REMARK  3 active torsions:
REMARK  status: ('A' for Active; 'I' for Inactive)
REMARK    1  A    between atoms: C_2  and  C_7
REMARK    2  A    between atoms: C_7  and  N_8
REMARK    3  A    between atoms: N_8  and  C_10
REMARK                            x       y       z     vdW  Elec       q    Type
REMARK                         _______ _______ _______ _____ _____    ______ ____
ROOT
ATOM      1  C   UNL A   1     -28.016  -0.814  28.878  0.00  0.00    -0.003 A 
ATOM      2  C   UNL A   1     -27.064  -0.119  28.608  0.00  0.00    -0.003 A 
ATOM      3  C   UNL A   1     -25.792  -0.430  29.076  0.00  0.00    -0.003 A 
ATOM      4  C   UNL A   1     -25.576  -1.565  29.936  0.00  0.00    -0.000 A 
ATOM      5  C   UNL A   1     -26.735  -2.300  30.217  0.00  0.00    -0.000 A 
ATOM      6  C   UNL A   1     -27.918  -1.954  29.763  0.00  0.00    -0.000 A 
ENDROOT
BRANCH   2   7
ATOM      7  C   UNL A   1     -27.324   1.085  27.819  0.00  0.00    +0.115 C 
ATOM      8  C   UNL A   1     -28.070   0.748  26.537  0.00  0.00    +0.028 C 
BRANCH   7   9
ATOM      9  N   UNL A   1     -26.339   1.844  27.483  0.00  0.00    -0.234 NA
BRANCH   9  10
ATOM     10  C   UNL A   1     -25.684   2.692  28.390  0.00  0.00    +0.080 C 
ATOM     11  C   UNL A   1     -24.484   3.426  27.934  0.00  0.00    +0.019 C 
ENDBRANCH   9  10
ENDBRANCH   7   9
ENDBRANCH   2   7
TORSDOF 3
