REMARK  Name = No_970-gen_results/8p0m/2024-11-26-14-13-15/
REMARK  1 active torsions:
REMARK  status: ('A' for Active; 'I' for Inactive)
REMARK    1  A    between atoms: C_3  and  C_4
REMARK                            x       y       z     vdW  Elec       q    Type
REMARK                         _______ _______ _______ _____ _____    ______ ____
ROOT
ATOM      1  C   UNL A   1     -28.016  -0.814  28.878  0.00  0.00    +0.000 A 
ATOM      2  C   UNL A   1     -28.469  -0.785  29.829  0.00  0.00    +0.000 A 
ATOM      3  C   UNL A   1     -28.196   0.348  28.055  0.00  0.00    +0.000 A 
ATOM      4  C   UNL A   1     -29.496   0.109  30.345  0.00  0.00    +0.000 A 
ATOM      5  C   UNL A   1     -29.728   1.187  29.569  0.00  0.00    +0.000 A 
ATOM      6  C   UNL A   1     -29.042   1.367  28.372  0.00  0.00    +0.000 A 
ENDROOT
BRANCH   3   7
ATOM      7  C   UNL A   1     -27.442   0.510  26.795  0.00  0.00    +0.000 A 
ATOM      8  C   UNL A   1     -27.843   1.333  25.806  0.00  0.00    +0.000 A 
ATOM      9  C   UNL A   1     -25.938   0.828  27.023  0.00  0.00    +0.000 A 
ATOM     10  C   UNL A   1     -25.158   1.438  26.254  0.00  0.00    +0.000 A 
ATOM     11  C   UNL A   1     -25.725   2.236  25.175  0.00  0.00    +0.000 A 
ATOM     12  C   UNL A   1     -27.252   2.186  25.328  0.00  0.00    +0.000 A 
ENDBRANCH   3   7
TORSDOF 1
