MODEL 970
MODEL 1
REMARK VINA RESULT:    -6.389      0.000      0.000
REMARK INTER + INTRA:          -7.218
REMARK INTER:                  -6.762
REMARK INTRA:                  -0.456
REMARK UNBOUND:                -0.456
REMARK  Name = No_970-gen_results/8p0m/2024-11-26-14-13-15/
REMARK  1 active torsions:
REMARK  status: ('A' for Active; 'I' for Inactive)
REMARK    1  A    between atoms: C_3  and  C_4
REMARK                            x       y       z     vdW  Elec       q    Type
REMARK                         _______ _______ _______ _____ _____    ______ ____
ROOT
ATOM      1  C   UNL A   1     -23.847  -3.761  28.557  0.00  0.00    +0.000 A 
ATOM      2  C   UNL A   1     -24.169  -4.755  28.693  0.00  0.00    +0.000 A 
ATOM      3  C   UNL A   1     -24.640  -2.745  29.188  0.00  0.00    +0.000 A 
ATOM      4  C   UNL A   1     -25.450  -5.262  29.166  0.00  0.00    +0.000 A 
ATOM      5  C   UNL A   1     -26.243  -4.323  29.720  0.00  0.00    +0.000 A 
ATOM      6  C   UNL A   1     -25.841  -2.993  29.780  0.00  0.00    +0.000 A 
ENDROOT
BRANCH   3   7
ATOM      7  C   UNL A   1     -24.176  -1.344  29.242  0.00  0.00    +0.000 A 
ATOM      8  C   UNL A   1     -22.920  -1.005  29.594  0.00  0.00    +0.000 A 
ATOM      9  C   UNL A   1     -24.476  -0.553  27.939  0.00  0.00    +0.000 A 
ATOM     10  C   UNL A   1     -23.862   0.443  27.488  0.00  0.00    +0.000 A 
ATOM     11  C   UNL A   1     -22.535   0.740  28.011  0.00  0.00    +0.000 A 
ATOM     12  C   UNL A   1     -22.173  -0.383  28.993  0.00  0.00    +0.000 A 
ENDBRANCH   3   7
TORSDOF 1
ENDMDL
ENDMDL
