REMARK  Name = No_971-gen_results/8p0m/2024-11-26-14-13-15/
REMARK  10 active torsions:
REMARK  status: ('A' for Active; 'I' for Inactive)
REMARK    1  A    between atoms: C_2  and  C_34
REMARK    2  A    between atoms: C_3  and  C_7
REMARK    3  A    between atoms: C_6  and  C_26
REMARK    4  A    between atoms: C_7  and  C_8
REMARK    5  A    between atoms: C_7  and  C_9
REMARK    6  A    between atoms: C_8  and  C_11
REMARK    7  A    between atoms: C_9  and  C_12
REMARK    8  A    between atoms: C_12  and  C_19
REMARK    9  A    between atoms: C_12  and  C_25
REMARK   10  A    between atoms: C_22  and  C_30
REMARK                            x       y       z     vdW  Elec       q    Type
REMARK                         _______ _______ _______ _____ _____    ______ ____
ROOT
ATOM      1  C   UNL A   1     -26.418   0.076  27.258  0.00  0.00    +0.027 C 
ENDROOT
BRANCH   1   4
ATOM      2  C   UNL A   1     -28.016  -0.814  28.878  0.00  0.00    -0.001 A 
ATOM      3  C   UNL A   1     -28.469  -0.785  29.829  0.00  0.00    +0.042 A 
ATOM      4  C   UNL A   1     -27.136   0.236  28.535  0.00  0.00    -0.022 A 
ATOM      5  C   UNL A   1     -26.875   1.282  29.398  0.00  0.00    +0.002 A 
ATOM      6  C   UNL A   1     -28.361   0.199  30.924  0.00  0.00    +0.010 A 
ATOM      7  C   UNL A   1     -27.528   1.223  30.636  0.00  0.00    +0.080 A 
BRANCH   7   8
ATOM      8  C   UNL A   1     -27.328   2.378  31.604  0.00  0.00    +0.388 C 
ATOM      9  O   UNL A   1     -27.904   2.709  32.362  0.00  0.00    -0.241 OA
ATOM     10  O   UNL A   1     -26.017   2.824  31.443  0.00  0.00    -0.241 OA
ENDBRANCH   7   8
BRANCH   3  11
ATOM     11  C   UNL A   1     -29.533  -1.926  30.343  0.00  0.00    +0.234 C 
ATOM     12  O   UNL A   1     -30.553  -1.673  30.656  0.00  0.00    -0.283 OA
ENDBRANCH   3  11
ENDBRANCH   1   4
BRANCH   1  13
ATOM     13  C   UNL A   1     -27.006   0.295  26.006  0.00  0.00    +0.013 C 
ATOM     14  C   UNL A   1     -26.288   0.199  24.854  0.00  0.00    +0.001 C 
BRANCH  13  15
ATOM     15  C   UNL A   1     -28.371   0.563  25.880  0.00  0.00    +0.045 C 
BRANCH  15  16
ATOM     16  C   UNL A   1     -29.127   1.294  26.721  0.00  0.00    -0.018 A 
ATOM     17  C   UNL A   1     -28.687   2.681  26.866  0.00  0.00    -0.004 A 
ATOM     18  C   UNL A   1     -30.318   0.904  27.378  0.00  0.00    +0.001 A 
ATOM     19  C   UNL A   1     -30.984   1.782  28.229  0.00  0.00    +0.055 A 
ATOM     20  C   UNL A   1     -30.613   3.119  28.272  0.00  0.00    +0.004 A 
ATOM     21  C   UNL A   1     -29.375   3.580  27.755  0.00  0.00    -0.000 A 
BRANCH  19  22
ATOM     22  C   UNL A   1     -32.217   1.324  28.897  0.00  0.00    +0.265 C 
ATOM     23  N   UNL A   1     -33.307   1.326  28.436  0.00  0.00    -0.200 NA
ATOM     24  O   UNL A   1     -32.026   0.874  30.146  0.00  0.00    -0.268 OA
ATOM     25  C   UNL A   1     -34.385   0.763  28.807  0.00  0.00    +0.139 C 
ENDBRANCH  19  22
ENDBRANCH  15  16
BRANCH  15  26
ATOM     26  C   UNL A   1     -29.093  -0.078  24.811  0.00  0.00    -0.022 C 
ATOM     27  C   UNL A   1     -30.090   0.609  24.261  0.00  0.00    -0.005 C 
ENDBRANCH  15  26
ENDBRANCH  13  15
ENDBRANCH   1  13
BRANCH   1  28
ATOM     28  C   UNL A   1     -25.014   0.039  27.332  0.00  0.00    +0.032 C 
BRANCH  28  29
ATOM     29  C   UNL A   1     -24.340  -0.164  28.602  0.00  0.00    -0.005 A 
ATOM     30  C   UNL A   1     -24.231  -1.242  29.152  0.00  0.00    -0.003 A 
ATOM     31  C   UNL A   1     -23.492  -1.386  30.406  0.00  0.00    -0.000 A 
ATOM     32  C   UNL A   1     -22.950  -0.249  30.982  0.00  0.00    +0.001 A 
ATOM     33  C   UNL A   1     -23.710   0.995  29.268  0.00  0.00    +0.085 A 
ATOM     34  N   UNL A   1     -23.763   2.282  28.657  0.00  0.00    -0.128 NA
ATOM     35  C   UNL A   1     -23.033   0.927  30.459  0.00  0.00    +0.018 A 
ENDBRANCH  28  29
ENDBRANCH   1  28
TORSDOF 10
