MODEL 971
MODEL 1
REMARK VINA RESULT:    -8.170      0.000      0.000
REMARK INTER + INTRA:         -16.004
REMARK INTER:                 -12.947
REMARK INTRA:                  -3.057
REMARK UNBOUND:                -3.057
REMARK  Name = No_971-gen_results/8p0m/2024-11-26-14-13-15/
REMARK  10 active torsions:
REMARK  status: ('A' for Active; 'I' for Inactive)
REMARK    1  A    between atoms: C_2  and  C_34
REMARK    2  A    between atoms: C_3  and  C_7
REMARK    3  A    between atoms: C_6  and  C_26
REMARK    4  A    between atoms: C_7  and  C_8
REMARK    5  A    between atoms: C_7  and  C_9
REMARK    6  A    between atoms: C_8  and  C_11
REMARK    7  A    between atoms: C_9  and  C_12
REMARK    8  A    between atoms: C_12  and  C_19
REMARK    9  A    between atoms: C_12  and  C_25
REMARK   10  A    between atoms: C_22  and  C_30
REMARK                            x       y       z     vdW  Elec       q    Type
REMARK                         _______ _______ _______ _____ _____    ______ ____
ROOT
ATOM      1  C   UNL A   1     -10.009   1.333  36.770  0.00  0.00    +0.027 C 
ENDROOT
BRANCH   1   4
ATOM      2  C   UNL A   1     -12.235   2.268  37.144  0.00  0.00    -0.001 A 
ATOM      3  C   UNL A   1     -13.156   2.618  36.770  0.00  0.00    +0.042 A 
ATOM      4  C   UNL A   1     -11.337   1.673  36.230  0.00  0.00    -0.022 A 
ATOM      5  C   UNL A   1     -11.644   1.532  34.891  0.00  0.00    +0.002 A 
ATOM      6  C   UNL A   1     -13.721   2.594  35.407  0.00  0.00    +0.010 A 
ATOM      7  C   UNL A   1     -12.893   2.030  34.500  0.00  0.00    +0.080 A 
BRANCH   7   8
ATOM      8  C   UNL A   1     -13.312   1.848  33.050  0.00  0.00    +0.388 C 
ATOM      9  O   UNL A   1     -14.026   2.309  32.508  0.00  0.00    -0.241 OA
ATOM     10  O   UNL A   1     -12.344   1.051  32.442  0.00  0.00    -0.241 OA
ENDBRANCH   7   8
BRANCH   3  11
ATOM     11  C   UNL A   1     -14.302   3.303  37.728  0.00  0.00    +0.234 C 
ATOM     12  O   UNL A   1     -14.415   3.035  38.785  0.00  0.00    -0.283 OA
ENDBRANCH   3  11
ENDBRANCH   1   4
BRANCH   1  13
ATOM     13  C   UNL A   1      -8.823   1.956  36.359  0.00  0.00    +0.013 C 
ATOM     14  C   UNL A   1      -8.249   2.949  37.090  0.00  0.00    +0.001 C 
BRANCH  13  15
ATOM     15  C   UNL A   1      -8.146   1.543  35.209  0.00  0.00    +0.045 C 
BRANCH  15  16
ATOM     16  C   UNL A   1      -7.213   0.576  35.131  0.00  0.00    -0.018 A 
ATOM     17  C   UNL A   1      -7.701  -0.679  34.560  0.00  0.00    -0.004 A 
ATOM     18  C   UNL A   1      -5.835   0.672  35.438  0.00  0.00    +0.001 A 
ATOM     19  C   UNL A   1      -4.996  -0.432  35.310  0.00  0.00    +0.055 A 
ATOM     20  C   UNL A   1      -5.452  -1.577  34.671  0.00  0.00    +0.004 A 
ATOM     21  C   UNL A   1      -6.831  -1.819  34.439  0.00  0.00    -0.000 A 
BRANCH  19  22
ATOM     22  C   UNL A   1      -3.569  -0.282  35.651  0.00  0.00    +0.265 C 
ATOM     23  N   UNL A   1      -2.686  -0.062  34.894  0.00  0.00    -0.200 NA
ATOM     24  O   UNL A   1      -3.303  -0.419  36.959  0.00  0.00    -0.268 OA
ATOM     25  C   UNL A   1      -1.483   0.307  35.079  0.00  0.00    +0.139 C 
ENDBRANCH  19  22
ENDBRANCH  15  16
BRANCH  15  26
ATOM     26  C   UNL A   1      -8.368   2.277  33.990  0.00  0.00    -0.022 C 
ATOM     27  C   UNL A   1      -7.544   3.290  33.737  0.00  0.00    -0.005 C 
ENDBRANCH  15  26
ENDBRANCH  13  15
ENDBRANCH   1  13
BRANCH   1  28
ATOM     28  C   UNL A   1      -9.991   0.608  37.975  0.00  0.00    +0.032 C 
BRANCH  28  29
ATOM     29  C   UNL A   1     -10.771  -0.608  38.123  0.00  0.00    -0.005 A 
ATOM     30  C   UNL A   1     -10.794  -1.508  37.308  0.00  0.00    -0.003 A 
ATOM     31  C   UNL A   1     -11.560  -2.732  37.544  0.00  0.00    -0.000 A 
ATOM     32  C   UNL A   1     -12.301  -2.826  38.710  0.00  0.00    +0.001 A 
ATOM     33  C   UNL A   1     -11.568  -0.798  39.353  0.00  0.00    +0.085 A 
ATOM     34  N   UNL A   1     -11.553   0.200  40.371  0.00  0.00    -0.128 NA
ATOM     35  C   UNL A   1     -12.330  -1.908  39.616  0.00  0.00    +0.018 A 
ENDBRANCH  28  29
ENDBRANCH   1  28
TORSDOF 10
ENDMDL
ENDMDL
