REMARK  Name = No_972-gen_results/8p0m/2024-11-26-14-13-15/
REMARK  6 active torsions:
REMARK  status: ('A' for Active; 'I' for Inactive)
REMARK    1  A    between atoms: C_8  and  C_15
REMARK    2  A    between atoms: C_10  and  C_11
REMARK    3  A    between atoms: C_11  and  O_12
REMARK    4  A    between atoms: O_12  and  C_22
REMARK    5  A    between atoms: C_22  and  C_23
REMARK    6  A    between atoms: N_26  and  C_29
REMARK                            x       y       z     vdW  Elec       q    Type
REMARK                         _______ _______ _______ _____ _____    ______ ____
ROOT
ATOM      1  C   UNL A   1     -28.016  -0.814  28.878  0.00  0.00    +0.011 A 
ATOM      2  C   UNL A   1     -28.469  -0.785  29.829  0.00  0.00    +0.058 A 
ATOM      3  C   UNL A   1     -27.087   0.290  28.638  0.00  0.00    +0.001 A 
ATOM      4  C   UNL A   1     -26.252   0.411  27.422  0.00  0.00    +0.002 A 
ATOM      5  C   UNL A   1     -28.391   0.104  30.980  0.00  0.00    +0.011 A 
ATOM      6  C   UNL A   1     -27.533   1.167  30.787  0.00  0.00    +0.001 A 
ATOM      7  C   UNL A   1     -26.828   1.256  29.645  0.00  0.00    +0.006 A 
ATOM      8  C   UNL A   1     -25.645   1.665  27.221  0.00  0.00    +0.020 A 
ATOM      9  C   UNL A   1     -25.391   2.560  28.229  0.00  0.00    +0.008 A 
ATOM     10  C   UNL A   1     -26.098   2.444  29.409  0.00  0.00    +0.076 A 
ATOM     11 CL   UNL A   1     -29.584  -2.230  30.249  0.00  0.00    -0.082 Cl
ENDROOT
BRANCH   8  12
ATOM     12  C   UNL A   1     -24.819   1.740  25.973  0.00  0.00    +0.109 A 
ATOM     13  N   UNL A   1     -24.990   1.001  24.991  0.00  0.00    -0.242 NA
ATOM     14  C   UNL A   1     -23.729   2.691  25.979  0.00  0.00    +0.158 A 
ATOM     15  F   UNL A   1     -23.631   3.577  26.888  0.00  0.00    -0.203 F 
ATOM     16  C   UNL A   1     -22.694   2.644  25.058  0.00  0.00    +0.033 A 
ATOM     17  C   UNL A   1     -22.827   1.592  24.073  0.00  0.00    +0.023 A 
ATOM     18  C   UNL A   1     -23.974   0.774  24.079  0.00  0.00    +0.099 A 
ENDBRANCH   8  12
BRANCH  10  19
ATOM     19  C   UNL A   1     -25.860   3.511  30.422  0.00  0.00    +0.341 C 
ATOM     20  O   UNL A   1     -24.921   4.317  30.340  0.00  0.00    -0.245 OA
BRANCH  19  21
ATOM     21  O   UNL A   1     -26.876   3.703  31.150  0.00  0.00    -0.445 OA
BRANCH  21  22
ATOM     22  C   UNL A   1     -26.666   4.793  32.040  0.00  0.00    +0.209 C 
BRANCH  22  23
ATOM     23  C   UNL A   1     -26.591   4.532  33.323  0.00  0.00    +0.047 C 
ATOM     24  C   UNL A   1     -26.979   3.292  33.696  0.00  0.00    +0.025 C 
ATOM     25  C   UNL A   1     -27.684   3.275  34.975  0.00  0.00    +0.091 C 
ATOM     26  N   UNL A   1     -27.217   3.917  35.942  0.00  0.00    -0.308 N 
ATOM     27  C   UNL A   1     -26.882   5.319  35.668  0.00  0.00    +0.091 C 
ATOM     28  C   UNL A   1     -26.422   5.584  34.406  0.00  0.00    +0.025 C 
BRANCH  26  29
ATOM     29  C   UNL A   1     -27.938   3.889  37.247  0.00  0.00    +0.044 A 
ATOM     30  C   UNL A   1     -27.394   3.014  38.072  0.00  0.00    +0.014 A 
ATOM     31  C   UNL A   1     -28.092   2.523  39.020  0.00  0.00    +0.001 A 
ATOM     32  C   UNL A   1     -29.333   3.045  39.376  0.00  0.00    -0.000 A 
ATOM     33  C   UNL A   1     -29.862   3.966  38.512  0.00  0.00    -0.003 A 
ATOM     34  C   UNL A   1     -29.158   4.377  37.363  0.00  0.00    -0.009 A 
ATOM     35  C   UNL A   1     -29.707   5.326  36.399  0.00  0.00    +0.032 C 
ENDBRANCH  26  29
ENDBRANCH  22  23
ENDBRANCH  21  22
ENDBRANCH  19  21
ENDBRANCH  10  19
TORSDOF 6
