MODEL 972
MODEL 1
REMARK VINA RESULT:    -7.720      0.000      0.000
REMARK INTER + INTRA:         -12.437
REMARK INTER:                 -10.428
REMARK INTRA:                  -2.009
REMARK UNBOUND:                -2.009
REMARK  Name = No_972-gen_results/8p0m/2024-11-26-14-13-15/
REMARK  6 active torsions:
REMARK  status: ('A' for Active; 'I' for Inactive)
REMARK    1  A    between atoms: C_8  and  C_15
REMARK    2  A    between atoms: C_10  and  C_11
REMARK    3  A    between atoms: C_11  and  O_12
REMARK    4  A    between atoms: O_12  and  C_22
REMARK    5  A    between atoms: C_22  and  C_23
REMARK    6  A    between atoms: N_26  and  C_29
REMARK                            x       y       z     vdW  Elec       q    Type
REMARK                         _______ _______ _______ _____ _____    ______ ____
ROOT
ATOM      1  C   UNL A   1     -26.808 -13.479   7.022  0.00  0.00    +0.011 A 
ATOM      2  C   UNL A   1     -27.294 -12.560   7.195  0.00  0.00    +0.058 A 
ATOM      3  C   UNL A   1     -27.402 -14.601   7.749  0.00  0.00    +0.001 A 
ATOM      4  C   UNL A   1     -26.964 -16.006   7.590  0.00  0.00    +0.002 A 
ATOM      5  C   UNL A   1     -28.432 -12.132   7.996  0.00  0.00    +0.011 A 
ATOM      6  C   UNL A   1     -29.013 -13.162   8.708  0.00  0.00    +0.001 A 
ATOM      7  C   UNL A   1     -28.550 -14.417   8.562  0.00  0.00    +0.006 A 
ATOM      8  C   UNL A   1     -27.433 -16.906   8.566  0.00  0.00    +0.020 A 
ATOM      9  C   UNL A   1     -28.564 -16.698   9.314  0.00  0.00    +0.008 A 
ATOM     10  C   UNL A   1     -29.049 -15.411   9.435  0.00  0.00    +0.076 A 
ATOM     11 CL   UNL A   1     -26.658 -11.100   6.209  0.00  0.00    -0.082 Cl
ENDROOT
BRANCH   8  12
ATOM     12  C   UNL A   1     -26.956 -18.312   8.367  0.00  0.00    +0.109 A 
ATOM     13  N   UNL A   1     -25.937 -18.774   8.905  0.00  0.00    -0.242 NA
ATOM     14  C   UNL A   1     -27.710 -19.122   7.436  0.00  0.00    +0.158 A 
ATOM     15  F   UNL A   1     -28.847 -18.745   7.004  0.00  0.00    -0.203 F 
ATOM     16  C   UNL A   1     -27.213 -20.300   6.901  0.00  0.00    +0.033 A 
ATOM     17  C   UNL A   1     -25.900 -20.663   7.389  0.00  0.00    +0.023 A 
ATOM     18  C   UNL A   1     -25.279 -19.869   8.373  0.00  0.00    +0.099 A 
ENDBRANCH   8  12
BRANCH  10  19
ATOM     19  C   UNL A   1     -30.212 -15.233  10.350  0.00  0.00    +0.341 C 
ATOM     20  O   UNL A   1     -30.113 -15.313  11.584  0.00  0.00    -0.245 OA
BRANCH  19  21
ATOM     21  O   UNL A   1     -31.188 -14.680   9.768  0.00  0.00    -0.445 OA
BRANCH  21  22
ATOM     22  C   UNL A   1     -32.060 -14.064  10.709  0.00  0.00    +0.209 C 
BRANCH  22  23
ATOM     23  C   UNL A   1     -32.096 -12.754  10.745  0.00  0.00    +0.047 C 
ATOM     24  C   UNL A   1     -32.661 -12.150   9.675  0.00  0.00    +0.025 C 
ATOM     25  C   UNL A   1     -31.993 -10.906   9.303  0.00  0.00    +0.091 C 
ATOM     26  N   UNL A   1     -31.699 -10.077  10.192  0.00  0.00    -0.308 N 
ATOM     27  C   UNL A   1     -30.967 -10.616  11.344  0.00  0.00    +0.091 C 
ATOM     28  C   UNL A   1     -31.289 -11.897  11.705  0.00  0.00    +0.025 C 
BRANCH  26  29
ATOM     29  C   UNL A   1     -31.024  -8.805   9.804  0.00  0.00    +0.044 A 
ATOM     30  C   UNL A   1     -29.849  -9.041   9.251  0.00  0.00    +0.014 A 
ATOM     31  C   UNL A   1     -28.953  -8.133   9.264  0.00  0.00    +0.001 A 
ATOM     32  C   UNL A   1     -29.234  -6.817   9.622  0.00  0.00    -0.000 A 
ATOM     33  C   UNL A   1     -30.468  -6.600  10.173  0.00  0.00    -0.003 A 
ATOM     34  C   UNL A   1     -31.396  -7.650  10.320  0.00  0.00    -0.009 A 
ATOM     35  C   UNL A   1     -32.705  -7.464  10.940  0.00  0.00    +0.032 C 
ENDBRANCH  26  29
ENDBRANCH  22  23
ENDBRANCH  21  22
ENDBRANCH  19  21
ENDBRANCH  10  19
TORSDOF 6
ENDMDL
ENDMDL
