MODEL 973
MODEL 1
REMARK VINA RESULT:    -6.058      0.000      0.000
REMARK INTER + INTRA:          -6.971
REMARK INTER:                  -6.767
REMARK INTRA:                  -0.204
REMARK UNBOUND:                -0.204
REMARK  Name = No_973-gen_results/8p0m/2024-11-26-14-13-15/
REMARK  2 active torsions:
REMARK  status: ('A' for Active; 'I' for Inactive)
REMARK    1  A    between atoms: C_2  and  O_7
REMARK    2  A    between atoms: O_7  and  C_8
REMARK                            x       y       z     vdW  Elec       q    Type
REMARK                         _______ _______ _______ _____ _____    ______ ____
ROOT
ATOM      1  O   UNL A   1     -24.384  -1.260  29.779  0.00  0.00    -0.454 OA
ENDROOT
BRANCH   1   3
ATOM      2  C   UNL A   1     -23.796  -3.143  28.904  0.00  0.00    +0.037 A 
ATOM      3  C   UNL A   1     -24.548  -2.679  29.479  0.00  0.00    +0.145 A 
ATOM      4  C   UNL A   1     -23.979  -4.573  28.609  0.00  0.00    +0.003 A 
ATOM      5  C   UNL A   1     -25.187  -5.238  28.970  0.00  0.00    +0.000 A 
ATOM      6  C   UNL A   1     -25.900  -3.118  29.920  0.00  0.00    +0.037 A 
ATOM      7  C   UNL A   1     -26.103  -4.443  29.673  0.00  0.00    +0.003 A 
ENDBRANCH   1   3
BRANCH   1   8
ATOM      8  C   UNL A   1     -24.046  -0.498  28.795  0.00  0.00    +0.145 A 
ATOM      9  C   UNL A   1     -23.024   0.250  28.695  0.00  0.00    +0.037 A 
ATOM     10  C   UNL A   1     -22.693   1.171  27.677  0.00  0.00    +0.003 A 
ATOM     11  C   UNL A   1     -23.616   1.207  26.610  0.00  0.00    +0.000 A 
ATOM     12  C   UNL A   1     -25.017  -0.338  27.678  0.00  0.00    +0.037 A 
ATOM     13  C   UNL A   1     -24.757   0.434  26.632  0.00  0.00    +0.003 A 
ENDBRANCH   1   8
TORSDOF 2
ENDMDL
ENDMDL
