REMARK  Name = No_974-gen_results/8p0m/2024-11-26-14-13-15/
REMARK  3 active torsions:
REMARK  status: ('A' for Active; 'I' for Inactive)
REMARK    1  A    between atoms: C_1  and  C_2
REMARK    2  A    between atoms: C_5  and  C_13
REMARK    3  A    between atoms: C_11  and  C_17
REMARK                            x       y       z     vdW  Elec       q    Type
REMARK                         _______ _______ _______ _____ _____    ______ ____
ROOT
ATOM      1  C   UNL A   1     -27.064  -0.119  28.608  0.00  0.00    -0.000 A 
ATOM      2  C   UNL A   1     -26.929   1.171  29.008  0.00  0.00    -0.000 A 
ATOM      3  C   UNL A   1     -25.770   2.034  28.688  0.00  0.00    +0.004 A 
ATOM      4  C   UNL A   1     -24.714   1.443  27.919  0.00  0.00    +0.071 A 
ATOM      5  C   UNL A   1     -24.859   0.078  27.584  0.00  0.00    +0.004 A 
ATOM      6  C   UNL A   1     -25.965  -0.661  27.916  0.00  0.00    -0.000 A 
ENDROOT
BRANCH   1   7
ATOM      7  C   UNL A   1     -28.016  -0.814  28.878  0.00  0.00    +0.000 A 
ATOM      8  C   UNL A   1     -28.042  -1.543  30.242  0.00  0.00    +0.000 A 
ATOM      9  C   UNL A   1     -29.064  -2.458  30.592  0.00  0.00    +0.000 A 
ATOM     10  C   UNL A   1     -30.321  -2.036  30.360  0.00  0.00    +0.007 A 
ATOM     11  C   UNL A   1     -30.481  -1.056  29.334  0.00  0.00    +0.080 A 
ATOM     12  C   UNL A   1     -29.391  -0.435  28.688  0.00  0.00    +0.007 A 
BRANCH  11  13
ATOM     13  C   UNL A   1     -31.845  -0.746  28.828  0.00  0.00    +0.388 C 
ATOM     14  O   UNL A   1     -32.561   0.008  29.321  0.00  0.00    -0.241 OA
ATOM     15  O   UNL A   1     -32.123  -1.390  27.687  0.00  0.00    -0.241 OA
ENDBRANCH  11  13
ENDBRANCH   1   7
BRANCH   4  16
ATOM     16  C   UNL A   1     -23.510   2.134  27.562  0.00  0.00    +0.419 C 
ATOM     17  F   UNL A   1     -23.310   2.688  26.662  0.00  0.00    -0.166 F 
ATOM     18  F   UNL A   1     -23.026   2.845  28.690  0.00  0.00    -0.166 F 
ATOM     19  F   UNL A   1     -22.402   1.107  27.650  0.00  0.00    -0.166 F 
ENDBRANCH   4  16
TORSDOF 3
