REMARK  Name = No_975-gen_results/8p0m/2024-11-26-14-13-15/
REMARK  6 active torsions:
REMARK  status: ('A' for Active; 'I' for Inactive)
REMARK    1  A    between atoms: C_3  and  C_7
REMARK    2  A    between atoms: C_12  and  P_17
REMARK    3  A    between atoms: C_16  and  C_28
REMARK    4  A    between atoms: P_17  and  O_18
REMARK    5  A    between atoms: O_18  and  C_21
REMARK    6  A    between atoms: C_21  and  C_22
REMARK                            x       y       z     vdW  Elec       q    Type
REMARK                         _______ _______ _______ _____ _____    ______ ____
ROOT
ATOM      1  C   UNL A   1     -28.016  -0.814  28.878  0.00  0.00    -0.016 A 
ATOM      2  C   UNL A   1     -27.064  -0.119  28.608  0.00  0.00    -0.004 A 
ATOM      3  C   UNL A   1     -25.765  -0.390  29.036  0.00  0.00    -0.000 A 
ATOM      4  C   UNL A   1     -25.530  -1.530  29.901  0.00  0.00    +0.000 A 
ATOM      5  C   UNL A   1     -26.441  -2.213  30.094  0.00  0.00    +0.004 A 
ATOM      6  C   UNL A   1     -27.755  -1.997  29.747  0.00  0.00    +0.050 A 
ATOM      7  C   UNL A   1     -28.898  -2.859  30.172  0.00  0.00    +0.249 C 
ATOM      8  N   UNL A   1     -30.004  -2.466  30.314  0.00  0.00    -0.275 N 
ATOM      9  O   UNL A   1     -28.568  -4.090  30.502  0.00  0.00    -0.270 OA
ATOM     10  C   UNL A   1     -31.149  -3.317  30.722  0.00  0.00    +0.098 C 
ATOM     11  C   UNL A   1     -32.212  -2.254  31.104  0.00  0.00    +0.024 C 
ATOM     12  C   UNL A   1     -32.302  -1.128  30.701  0.00  0.00    +0.004 C 
ATOM     13  C   UNL A   1     -31.205  -0.440  30.104  0.00  0.00    +0.020 C 
ATOM     14  C   UNL A   1     -30.154  -1.010  30.018  0.00  0.00    +0.080 C 
ATOM     15  C   UNL A   1     -29.048  -0.355  29.299  0.00  0.00    +0.046 C 
ENDROOT
BRANCH   3  16
ATOM     16  C   UNL A   1     -24.558   0.500  28.722  0.00  0.00    +0.000 A 
ATOM     17  C   UNL A   1     -23.319   0.133  28.998  0.00  0.00    +0.000 A 
ATOM     18  C   UNL A   1     -22.189   0.930  28.647  0.00  0.00    +0.000 A 
ATOM     19  C   UNL A   1     -22.418   1.946  27.660  0.00  0.00    +0.007 A 
ATOM     20  C   UNL A   1     -24.635   1.582  27.770  0.00  0.00    +0.007 A 
ATOM     21  C   UNL A   1     -23.790   2.203  27.399  0.00  0.00    +0.082 A 
BRANCH  21  22
ATOM     22  P   UNL A   1     -24.078   3.653  26.532  0.00  0.00    +0.392 P 
ATOM     23  O   UNL A   1     -23.555   3.392  25.013  0.00  0.00    -0.251 OA
ATOM     24  O   UNL A   1     -24.042   4.799  27.318  0.00  0.00    -0.136 OA
BRANCH  22  25
ATOM     25  O   UNL A   1     -25.453   3.724  26.439  0.00  0.00    -0.285 OA
BRANCH  25  26
ATOM     26  C   UNL A   1     -26.570   4.214  26.947  0.00  0.00    +0.178 C 
BRANCH  26  27
ATOM     27  C   UNL A   1     -27.758   3.756  26.524  0.00  0.00    +0.008 A 
ATOM     28  C   UNL A   1     -27.970   2.690  25.826  0.00  0.00    -0.002 A 
ATOM     29  C   UNL A   1     -29.190   2.189  25.317  0.00  0.00    -0.000 A 
ATOM     30  C   UNL A   1     -30.349   2.983  25.590  0.00  0.00    -0.000 A 
ATOM     31  C   UNL A   1     -30.257   4.191  26.299  0.00  0.00    -0.000 A 
ATOM     32  C   UNL A   1     -28.977   4.628  26.752  0.00  0.00    -0.002 A 
ENDBRANCH  26  27
ENDBRANCH  25  26
ENDBRANCH  22  25
ENDBRANCH  21  22
ENDBRANCH   3  16
BRANCH  10  33
ATOM     33  C   UNL A   1     -31.157  -4.218  31.337  0.00  0.00    -0.011 C 
ATOM     34  C   UNL A   1     -31.090  -5.309  31.012  0.00  0.00    -0.029 C 
ATOM     35  C   UNL A   1     -30.985  -6.599  31.806  0.00  0.00    +0.030 C 
ENDBRANCH  10  33
TORSDOF 6
