MODEL 975
MODEL 1
REMARK VINA RESULT:    -8.313      0.000      0.000
REMARK INTER + INTRA:         -13.817
REMARK INTER:                 -11.228
REMARK INTRA:                  -2.588
REMARK UNBOUND:                -2.588
REMARK  Name = No_975-gen_results/8p0m/2024-11-26-14-13-15/
REMARK  6 active torsions:
REMARK  status: ('A' for Active; 'I' for Inactive)
REMARK    1  A    between atoms: C_3  and  C_7
REMARK    2  A    between atoms: C_12  and  P_17
REMARK    3  A    between atoms: C_16  and  C_28
REMARK    4  A    between atoms: P_17  and  O_18
REMARK    5  A    between atoms: O_18  and  C_21
REMARK    6  A    between atoms: C_21  and  C_22
REMARK                            x       y       z     vdW  Elec       q    Type
REMARK                         _______ _______ _______ _____ _____    ______ ____
ROOT
ATOM      1  C   UNL A   1     -31.604 -10.980  10.918  0.00  0.00    -0.016 A 
ATOM      2  C   UNL A   1     -31.726  -9.777  10.930  0.00  0.00    -0.004 A 
ATOM      3  C   UNL A   1     -31.394  -8.957   9.853  0.00  0.00    -0.000 A 
ATOM      4  C   UNL A   1     -30.815  -9.552   8.664  0.00  0.00    +0.000 A 
ATOM      5  C   UNL A   1     -30.766 -10.706   8.650  0.00  0.00    +0.004 A 
ATOM      6  C   UNL A   1     -31.032 -11.581   9.679  0.00  0.00    +0.050 A 
ATOM      7  C   UNL A   1     -30.794 -13.054   9.623  0.00  0.00    +0.249 C 
ATOM      8  N   UNL A   1     -30.546 -13.719  10.569  0.00  0.00    -0.275 N 
ATOM      9  O   UNL A   1     -30.758 -13.562   8.409  0.00  0.00    -0.270 OA
ATOM     10  C   UNL A   1     -30.322 -15.185  10.526  0.00  0.00    +0.098 C 
ATOM     11  C   UNL A   1     -29.690 -15.449  11.918  0.00  0.00    +0.024 C 
ATOM     12  C   UNL A   1     -29.824 -14.803  12.920  0.00  0.00    +0.004 C 
ATOM     13  C   UNL A   1     -30.269 -13.448  12.902  0.00  0.00    +0.020 C 
ATOM     14  C   UNL A   1     -30.501 -12.939  11.842  0.00  0.00    +0.080 C 
ATOM     15  C   UNL A   1     -31.071 -11.581  11.816  0.00  0.00    +0.046 C 
ENDROOT
BRANCH   3  16
ATOM     16  C   UNL A   1     -31.518  -7.430   9.870  0.00  0.00    +0.000 A 
ATOM     17  C   UNL A   1     -32.049  -6.776  10.888  0.00  0.00    +0.000 A 
ATOM     18  C   UNL A   1     -32.107  -5.351  10.936  0.00  0.00    +0.000 A 
ATOM     19  C   UNL A   1     -31.238  -4.656  10.030  0.00  0.00    +0.007 A 
ATOM     20  C   UNL A   1     -30.731  -6.590   9.000  0.00  0.00    +0.007 A 
ATOM     21  C   UNL A   1     -30.673  -5.479   9.020  0.00  0.00    +0.082 A 
BRANCH  21  22
ATOM     22  P   UNL A   1     -29.962  -4.611   7.725  0.00  0.00    +0.392 P 
ATOM     23  O   UNL A   1     -29.882  -3.057   8.203  0.00  0.00    -0.251 OA
ATOM     24  O   UNL A   1     -30.207  -5.162   6.473  0.00  0.00    -0.136 OA
BRANCH  22  25
ATOM     25  O   UNL A   1     -28.656  -5.054   7.698  0.00  0.00    -0.285 OA
BRANCH  25  26
ATOM     26  C   UNL A   1     -27.765  -5.829   7.105  0.00  0.00    +0.178 C 
BRANCH  26  27
ATOM     27  C   UNL A   1     -27.543  -7.070   7.565  0.00  0.00    +0.008 A 
ATOM     28  C   UNL A   1     -27.522  -8.158   6.869  0.00  0.00    -0.002 A 
ATOM     29  C   UNL A   1     -27.340  -9.490   7.308  0.00  0.00    -0.000 A 
ATOM     30  C   UNL A   1     -27.182  -9.662   8.720  0.00  0.00    -0.000 A 
ATOM     31  C   UNL A   1     -27.231  -8.570   9.599  0.00  0.00    -0.000 A 
ATOM     32  C   UNL A   1     -27.444  -7.264   9.065  0.00  0.00    -0.002 A 
ENDBRANCH  26  27
ENDBRANCH  25  26
ENDBRANCH  22  25
ENDBRANCH  21  22
ENDBRANCH   3  16
BRANCH  10  33
ATOM     33  C   UNL A   1     -29.928 -15.802   9.717  0.00  0.00    -0.011 C 
ATOM     34  C   UNL A   1     -28.859 -16.156   9.541  0.00  0.00    -0.029 C 
ATOM     35  C   UNL A   1     -28.259 -17.097   8.511  0.00  0.00    +0.030 C 
ENDBRANCH  10  33
TORSDOF 6
ENDMDL
ENDMDL
