MODEL 976
MODEL 1
REMARK VINA RESULT:    -5.988      0.000      0.000
REMARK INTER + INTRA:          -6.245
REMARK INTER:                  -6.338
REMARK INTRA:                   0.094
REMARK UNBOUND:                 0.094
REMARK  Name = No_976-gen_results/8p0m/2024-11-26-14-13-15/
REMARK  1 active torsions:
REMARK  status: ('A' for Active; 'I' for Inactive)
REMARK    1  A    between atoms: C_2  and  C_7
REMARK                            x       y       z     vdW  Elec       q    Type
REMARK                         _______ _______ _______ _____ _____    ______ ____
ROOT
ATOM      1  C   UNL A   1     -23.444  -1.300  29.157  0.00  0.00    +0.249 C 
ATOM      2  O   UNL A   1     -22.582  -1.119  29.793  0.00  0.00    -0.270 OA
ATOM      3  N   UNL A   1     -23.798  -0.442  28.111  0.00  0.00    -0.276 N 
ATOM      4  C   UNL A   1     -23.013   0.722  27.892  0.00  0.00    +0.094 C 
ATOM      5  C   UNL A   1     -24.919  -0.653  27.205  0.00  0.00    +0.094 C 
ATOM      6  C   UNL A   1     -25.534   0.076  26.766  0.00  0.00    +0.022 C 
ATOM      7  C   UNL A   1     -23.798   1.760  27.220  0.00  0.00    +0.022 C 
ATOM      8  C   UNL A   1     -24.977   1.425  26.497  0.00  0.00    +0.004 C 
ENDROOT
BRANCH   1  10
ATOM      9  C   UNL A   1     -25.413  -2.182  29.894  0.00  0.00    +0.004 A 
ATOM     10  C   UNL A   1     -24.552  -2.446  29.347  0.00  0.00    +0.054 A 
ATOM     11  C   UNL A   1     -26.435  -3.283  30.071  0.00  0.00    +0.000 A 
ATOM     12  C   UNL A   1     -26.124  -4.590  29.637  0.00  0.00    +0.000 A 
ATOM     13  C   UNL A   1     -23.981  -3.710  28.829  0.00  0.00    +0.004 A 
ATOM     14  C   UNL A   1     -24.890  -4.748  28.979  0.00  0.00    +0.000 A 
ENDBRANCH   1  10
TORSDOF 1
ENDMDL
ENDMDL
