REMARK  Name = No_977-gen_results/8p0m/2024-11-26-14-13-15/
REMARK  3 active torsions:
REMARK  status: ('A' for Active; 'I' for Inactive)
REMARK    1  A    between atoms: C_5  and  C_11
REMARK    2  A    between atoms: C_10  and  C_15
REMARK    3  A    between atoms: C_16  and  C_17
REMARK                            x       y       z     vdW  Elec       q    Type
REMARK                         _______ _______ _______ _____ _____    ______ ____
ROOT
ATOM      1  C   UNL A   1     -28.016  -0.814  28.878  0.00  0.00    -0.000 A 
ATOM      2  C   UNL A   1     -27.064  -0.119  28.608  0.00  0.00    -0.000 A 
ATOM      3  C   UNL A   1     -26.876   1.133  28.913  0.00  0.00    -0.000 A 
ATOM      4  C   UNL A   1     -25.688   1.952  28.567  0.00  0.00    +0.004 A 
ATOM      5  C   UNL A   1     -24.639   1.283  27.875  0.00  0.00    +0.071 A 
ATOM      6  C   UNL A   1     -24.818  -0.080  27.617  0.00  0.00    +0.004 A 
ATOM      7  C   UNL A   1     -25.931  -0.772  27.970  0.00  0.00    -0.000 A 
ATOM      8  C   UNL A   1     -28.654  -0.527  30.240  0.00  0.00    -0.000 A 
ATOM      9  C   UNL A   1     -28.847   0.824  30.514  0.00  0.00    -0.000 A 
ATOM     10  C   UNL A   1     -27.685   1.656  30.070  0.00  0.00    -0.000 A 
ENDROOT
BRANCH   5  11
ATOM     11  C   UNL A   1     -23.472   1.959  27.359  0.00  0.00    +0.419 C 
ATOM     12  F   UNL A   1     -22.433   1.433  27.663  0.00  0.00    -0.166 F 
ATOM     13  F   UNL A   1     -23.524   2.213  26.043  0.00  0.00    -0.166 F 
ATOM     14  F   UNL A   1     -23.274   3.220  27.957  0.00  0.00    -0.166 F 
ENDBRANCH   5  11
BRANCH  10  15
ATOM     15  C   UNL A   1     -27.577   3.067  30.513  0.00  0.00    -0.000 C 
ATOM     16  C   UNL A   1     -26.668   3.699  30.852  0.00  0.00    -0.000 C 
BRANCH  16  17
ATOM     17  C   UNL A   1     -26.501   4.860  31.382  0.00  0.00    +0.000 C 
ATOM     18  C   UNL A   1     -27.571   5.699  31.526  0.00  0.00    +0.000 C 
ENDBRANCH  16  17
ENDBRANCH  10  15
TORSDOF 3
