MODEL 977
MODEL 1
REMARK VINA RESULT:    -7.209      0.000      0.000
REMARK INTER + INTRA:          -9.065
REMARK INTER:                  -8.474
REMARK INTRA:                  -0.591
REMARK UNBOUND:                -0.591
REMARK  Name = No_977-gen_results/8p0m/2024-11-26-14-13-15/
REMARK  3 active torsions:
REMARK  status: ('A' for Active; 'I' for Inactive)
REMARK    1  A    between atoms: C_5  and  C_11
REMARK    2  A    between atoms: C_10  and  C_15
REMARK    3  A    between atoms: C_16  and  C_17
REMARK                            x       y       z     vdW  Elec       q    Type
REMARK                         _______ _______ _______ _____ _____    ______ ____
ROOT
ATOM      1  C   UNL A   1     -21.946   1.818  27.388  0.00  0.00    -0.000 A 
ATOM      2  C   UNL A   1     -22.586   0.896  27.837  0.00  0.00    -0.000 A 
ATOM      3  C   UNL A   1     -23.804   0.546  27.538  0.00  0.00    -0.000 A 
ATOM      4  C   UNL A   1     -24.555  -0.599  28.109  0.00  0.00    +0.004 A 
ATOM      5  C   UNL A   1     -23.850  -1.415  29.039  0.00  0.00    +0.071 A 
ATOM      6  C   UNL A   1     -22.519  -1.076  29.298  0.00  0.00    +0.004 A 
ATOM      7  C   UNL A   1     -21.889  -0.016  28.732  0.00  0.00    -0.000 A 
ATOM      8  C   UNL A   1     -22.206   2.119  25.909  0.00  0.00    -0.000 A 
ATOM      9  C   UNL A   1     -23.551   2.140  25.552  0.00  0.00    -0.000 A 
ATOM     10  C   UNL A   1     -24.322   1.040  26.213  0.00  0.00    -0.000 A 
ENDROOT
BRANCH   5  11
ATOM     11  C   UNL A   1     -24.469  -2.492  29.776  0.00  0.00    +0.419 C 
ATOM     12  F   UNL A   1     -23.869  -3.533  29.709  0.00  0.00    -0.166 F 
ATOM     13  F   UNL A   1     -24.770  -2.183  31.046  0.00  0.00    -0.166 F 
ATOM     14  F   UNL A   1     -25.694  -2.896  29.209  0.00  0.00    -0.166 F 
ENDBRANCH   5  11
BRANCH  10  15
ATOM     15  C   UNL A   1     -25.697   0.726  25.756  0.00  0.00    -0.000 C 
ATOM     16  C   UNL A   1     -26.087   0.157  24.826  0.00  0.00    -0.000 C 
BRANCH  16  17
ATOM     17  C   UNL A   1     -27.237  -0.036  24.280  0.00  0.00    +0.000 C 
ATOM     18  C   UNL A   1     -27.864   0.998  23.641  0.00  0.00    +0.000 C 
ENDBRANCH  16  17
ENDBRANCH  10  15
TORSDOF 3
ENDMDL
ENDMDL
