REMARK  Name = No_978-gen_results/8p0m/2024-11-26-14-13-15/
REMARK  5 active torsions:
REMARK  status: ('A' for Active; 'I' for Inactive)
REMARK    1  A    between atoms: C_3  and  C_11
REMARK    2  A    between atoms: C_7  and  C_8
REMARK    3  A    between atoms: C_11  and  O_12
REMARK    4  A    between atoms: O_12  and  C_13
REMARK    5  A    between atoms: C_13  and  C_14
REMARK                            x       y       z     vdW  Elec       q    Type
REMARK                         _______ _______ _______ _____ _____    ______ ____
ROOT
ATOM      1  O   UNL A   1     -28.123  -1.335  28.487  0.00  0.00    -0.273 OA
ATOM      2  C   UNL A   1     -27.481  -0.404  28.709  0.00  0.00    +0.243 C 
ATOM      3  C   UNL A   1     -27.190   0.246  29.527  0.00  0.00    +0.108 C 
ATOM      4  N   UNL A   1     -26.687  -0.000  27.442  0.00  0.00    -0.205 NA
ATOM      5  C   UNL A   1     -26.350   1.433  29.742  0.00  0.00    +0.025 C 
ATOM      6  C   UNL A   1     -25.865   1.094  27.415  0.00  0.00    +0.126 C 
ATOM      7  C   UNL A   1     -25.659   1.831  28.572  0.00  0.00    +0.126 C 
ENDROOT
BRANCH   7   8
ATOM      8  C   UNL A   1     -24.783   2.968  28.548  0.00  0.00    +0.366 C 
ATOM      9  O   UNL A   1     -23.950   3.156  27.672  0.00  0.00    -0.246 OA
ATOM     10  O   UNL A   1     -25.117   4.050  29.266  0.00  0.00    -0.246 OA
ENDBRANCH   7   8
BRANCH   3  11
ATOM     11  C   UNL A   1     -27.891  -0.107  30.945  0.00  0.00    +0.154 C 
BRANCH  11  12
ATOM     12  O   UNL A   1     -28.764   0.774  31.290  0.00  0.00    -0.322 OA
BRANCH  12  13
ATOM     13  C   UNL A   1     -29.774   0.549  31.945  0.00  0.00    +0.365 C 
ATOM     14  O   UNL A   1     -30.397   1.863  32.376  0.00  0.00    -0.180 OA
BRANCH  13  15
ATOM     15  C   UNL A   1     -30.567  -0.153  31.528  0.00  0.00    +0.453 C 
ATOM     16  F   UNL A   1     -30.674  -0.522  30.455  0.00  0.00    -0.165 F 
ATOM     17  F   UNL A   1     -31.974   0.216  31.856  0.00  0.00    -0.165 F 
ATOM     18  F   UNL A   1     -30.610  -1.467  32.119  0.00  0.00    -0.165 F 
ENDBRANCH  13  15
ENDBRANCH  12  13
ENDBRANCH  11  12
ENDBRANCH   3  11
TORSDOF 5
