REMARK  Name = No_979-gen_results/8p0m/2024-11-26-14-13-15/
REMARK  5 active torsions:
REMARK  status: ('A' for Active; 'I' for Inactive)
REMARK    1  A    between atoms: C_2  and  O_18
REMARK    2  A    between atoms: C_3  and  C_4
REMARK    3  A    between atoms: C_6  and  C_13
REMARK    4  A    between atoms: C_12  and  O_16
REMARK    5  A    between atoms: O_18  and  C_19
REMARK                            x       y       z     vdW  Elec       q    Type
REMARK                         _______ _______ _______ _____ _____    ______ ____
ROOT
ATOM      1  C   UNL A   1     -28.016  -0.814  28.878  0.00  0.00    +0.044 A 
ATOM      2  C   UNL A   1     -27.064  -0.119  28.608  0.00  0.00    +0.145 A 
ATOM      3  C   UNL A   1     -25.792  -0.430  29.076  0.00  0.00    +0.035 A 
ATOM      4  C   UNL A   1     -27.882  -1.899  29.863  0.00  0.00    +0.083 A 
ATOM      5  C   UNL A   1     -26.653  -2.314  30.314  0.00  0.00    +0.007 A 
ATOM      6  C   UNL A   1     -25.515  -1.561  29.979  0.00  0.00    +0.003 A 
ENDROOT
BRANCH   3   7
ATOM      7  C   UNL A   1     -24.546   0.349  28.823  0.00  0.00    +0.006 A 
ATOM      8  C   UNL A   1     -23.241   0.022  29.332  0.00  0.00    +0.000 A 
ATOM      9  C   UNL A   1     -22.165   0.794  28.952  0.00  0.00    +0.003 A 
ATOM     10  C   UNL A   1     -22.124   1.748  27.989  0.00  0.00    +0.037 A 
ATOM     11  C   UNL A   1     -24.343   1.197  27.643  0.00  0.00    +0.037 A 
ATOM     12  C   UNL A   1     -23.270   1.933  27.345  0.00  0.00    +0.139 A 
BRANCH  12  13
ATOM     13  O   UNL A   1     -23.363   2.825  26.333  0.00  0.00    -0.471 OA
ATOM     14  C   UNL A   1     -24.629   2.827  25.746  0.00  0.00    +0.253 C 
ENDBRANCH  12  13
ENDBRANCH   3   7
BRANCH   4  15
ATOM     15  C   UNL A   1     -29.046  -2.727  30.300  0.00  0.00    +0.388 C 
ATOM     16  O   UNL A   1     -30.084  -2.409  30.111  0.00  0.00    -0.241 OA
ATOM     17  O   UNL A   1     -28.746  -3.810  30.980  0.00  0.00    -0.241 OA
ENDBRANCH   4  15
BRANCH   2  18
ATOM     18  O   UNL A   1     -27.144   0.907  27.739  0.00  0.00    -0.451 OA
BRANCH  18  19
ATOM     19  C   UNL A   1     -27.921   1.945  28.172  0.00  0.00    +0.175 C 
ATOM     20  C   UNL A   1     -27.890   3.033  27.419  0.00  0.00    +0.015 C 
ATOM     21  C   UNL A   1     -28.568   4.156  27.904  0.00  0.00    +0.034 C 
ENDBRANCH  18  19
ENDBRANCH   2  18
TORSDOF 5
