MODEL 979
MODEL 1
REMARK VINA RESULT:    -6.238      0.000      0.000
REMARK INTER + INTRA:          -8.838
REMARK INTER:                  -8.061
REMARK INTRA:                  -0.777
REMARK UNBOUND:                -0.777
REMARK  Name = No_979-gen_results/8p0m/2024-11-26-14-13-15/
REMARK  5 active torsions:
REMARK  status: ('A' for Active; 'I' for Inactive)
REMARK    1  A    between atoms: C_2  and  O_18
REMARK    2  A    between atoms: C_3  and  C_4
REMARK    3  A    between atoms: C_6  and  C_13
REMARK    4  A    between atoms: C_12  and  O_16
REMARK    5  A    between atoms: O_18  and  C_19
REMARK                            x       y       z     vdW  Elec       q    Type
REMARK                         _______ _______ _______ _____ _____    ______ ____
ROOT
ATOM      1  C   UNL A   1     -11.090   0.835  36.352  0.00  0.00    +0.044 A 
ATOM      2  C   UNL A   1     -10.033   0.249  36.384  0.00  0.00    +0.145 A 
ATOM      3  C   UNL A   1      -9.099   0.397  35.365  0.00  0.00    +0.035 A 
ATOM      4  C   UNL A   1     -11.490   1.571  35.142  0.00  0.00    +0.083 A 
ATOM      5  C   UNL A   1     -10.601   1.824  34.127  0.00  0.00    +0.007 A 
ATOM      6  C   UNL A   1      -9.341   1.201  34.154  0.00  0.00    +0.003 A 
ENDROOT
BRANCH   3   7
ATOM      7  C   UNL A   1      -7.770  -0.275  35.283  0.00  0.00    +0.006 A 
ATOM      8  C   UNL A   1      -7.494  -1.489  34.563  0.00  0.00    +0.000 A 
ATOM      9  C   UNL A   1      -6.198  -1.954  34.514  0.00  0.00    +0.003 A 
ATOM     10  C   UNL A   1      -5.069  -1.316  34.911  0.00  0.00    +0.037 A 
ATOM     11  C   UNL A   1      -6.492   0.428  35.440  0.00  0.00    +0.037 A 
ATOM     12  C   UNL A   1      -5.265  -0.095  35.393  0.00  0.00    +0.139 A 
BRANCH  12  13
ATOM     13  O   UNL A   1      -4.224   0.672  35.790  0.00  0.00    -0.471 OA
ATOM     14  C   UNL A   1      -3.311  -0.040  36.569  0.00  0.00    +0.253 C 
ENDBRANCH  12  13
ENDBRANCH   3   7
BRANCH   4  15
ATOM     15  C   UNL A   1     -12.823   2.234  35.017  0.00  0.00    +0.388 C 
ATOM     16  O   UNL A   1     -13.535   2.263  35.857  0.00  0.00    -0.241 OA
ATOM     17  O   UNL A   1     -13.108   2.709  33.826  0.00  0.00    -0.241 OA
ENDBRANCH   4  15
BRANCH   2  18
ATOM     18  O   UNL A   1      -9.637  -0.467  37.454  0.00  0.00    -0.451 OA
BRANCH  18  19
ATOM     19  C   UNL A   1     -10.666  -0.935  38.223  0.00  0.00    +0.175 C 
ATOM     20  C   UNL A   1     -11.088  -2.155  37.929  0.00  0.00    +0.015 C 
ATOM     21  C   UNL A   1     -12.223  -2.611  38.607  0.00  0.00    +0.034 C 
ENDBRANCH  18  19
ENDBRANCH   2  18
TORSDOF 5
ENDMDL
ENDMDL
