REMARK  Name = No_98-gen_results/8p0m/2024-11-26-14-13-15/
REMARK  4 active torsions:
REMARK  status: ('A' for Active; 'I' for Inactive)
REMARK    1  A    between atoms: C_1  and  O_23
REMARK    2  A    between atoms: C_5  and  C_17
REMARK    3  A    between atoms: O_23  and  C_24
REMARK    4  A    between atoms: C_24  and  C_25
REMARK                            x       y       z     vdW  Elec       q    Type
REMARK                         _______ _______ _______ _____ _____    ______ ____
ROOT
ATOM      1  C   UNL A   1     -28.016  -0.814  28.878  0.00  0.00    +0.142 A 
ATOM      2  C   UNL A   1     -27.064  -0.119  28.608  0.00  0.00    +0.069 A 
ATOM      3  C   UNL A   1     -26.972   0.714  27.506  0.00  0.00    +0.006 A 
ATOM      4  C   UNL A   1     -28.105   0.774  26.642  0.00  0.00    +0.007 A 
ATOM      5  C   UNL A   1     -29.204   0.118  27.048  0.00  0.00    +0.083 A 
ATOM      6  C   UNL A   1     -29.213  -0.609  28.128  0.00  0.00    +0.044 A 
ATOM      7  C   UNL A   1     -25.711   1.452  27.138  0.00  0.00    -0.000 A 
ATOM      8  C   UNL A   1     -24.605   0.925  27.690  0.00  0.00    +0.009 A 
ATOM      9  C   UNL A   1     -24.623   0.060  28.823  0.00  0.00    +0.107 C 
ATOM     10  C   UNL A   1     -25.727  -0.473  29.241  0.00  0.00    +0.181 C 
ATOM     11  C   UNL A   1     -23.273   1.679  27.428  0.00  0.00    +0.133 A 
ATOM     12  N   UNL A   1     -23.212   2.762  26.704  0.00  0.00    -0.239 NA
ATOM     13  C   UNL A   1     -22.028   1.259  28.015  0.00  0.00    +0.282 C 
ATOM     14  N   UNL A   1     -21.918   0.338  28.899  0.00  0.00    -0.200 NA
ATOM     15  C   UNL A   1     -23.163  -0.362  29.275  0.00  0.00    +0.128 C 
ATOM     16  O   UNL A   1     -25.704  -1.263  30.273  0.00  0.00    -0.291 OA
ATOM     17  O   UNL A   1     -20.920   1.846  27.719  0.00  0.00    -0.267 OA
ATOM     18  C   UNL A   1     -25.784   2.453  26.105  0.00  0.00    +0.020 A 
ATOM     19  C   UNL A   1     -24.407   3.107  25.930  0.00  0.00    +0.099 A 
ENDROOT
BRANCH   5  20
ATOM     20  C   UNL A   1     -30.445   0.287  26.236  0.00  0.00    +0.388 C 
ATOM     21  O   UNL A   1     -31.487   0.223  26.600  0.00  0.00    -0.241 OA
ATOM     22  O   UNL A   1     -30.224   0.170  24.864  0.00  0.00    -0.241 OA
ENDBRANCH   5  20
BRANCH   1  23
ATOM     23  O   UNL A   1     -28.187  -1.637  29.930  0.00  0.00    -0.470 OA
BRANCH  23  24
ATOM     24  C   UNL A   1     -29.203  -1.540  30.841  0.00  0.00    +0.232 C 
BRANCH  24  25
ATOM     25  C   UNL A   1     -29.021  -0.744  31.834  0.00  0.00    +0.021 A 
ATOM     26  C   UNL A   1     -30.135  -0.380  32.585  0.00  0.00    -0.001 A 
ATOM     27  C   UNL A   1     -30.074   0.651  33.547  0.00  0.00    -0.000 A 
ATOM     28  C   UNL A   1     -28.805   1.151  33.929  0.00  0.00    -0.000 A 
ATOM     29  C   UNL A   1     -27.650   0.768  33.181  0.00  0.00    -0.000 A 
ATOM     30  C   UNL A   1     -27.807  -0.154  32.152  0.00  0.00    -0.001 A 
ENDBRANCH  24  25
ENDBRANCH  23  24
ENDBRANCH   1  23
TORSDOF 4
