REMARK  Name = No_980-gen_results/8p0m/2024-11-26-14-13-15/
REMARK  2 active torsions:
REMARK  status: ('A' for Active; 'I' for Inactive)
REMARK    1  A    between atoms: C_3  and  C_7
REMARK    2  A    between atoms: C_8  and  C_9
REMARK                            x       y       z     vdW  Elec       q    Type
REMARK                         _______ _______ _______ _____ _____    ______ ____
ROOT
ATOM      1  C   UNL A   1     -28.016  -0.814  28.878  0.00  0.00    +0.008 A 
ATOM      2  C   UNL A   1     -28.469  -0.785  29.829  0.00  0.00    +0.001 A 
ATOM      3  C   UNL A   1     -27.087   0.290  28.638  0.00  0.00    +0.042 A 
ATOM      4  C   UNL A   1     -26.832   1.249  29.587  0.00  0.00    +0.008 A 
ATOM      5  C   UNL A   1     -28.329  -0.040  30.836  0.00  0.00    +0.000 A 
ATOM      6  C   UNL A   1     -27.494   1.062  30.793  0.00  0.00    +0.001 A 
ENDROOT
BRANCH   3   7
ATOM      7  C   UNL A   1     -26.327   0.437  27.345  0.00  0.00    -0.060 C 
ATOM      8  C   UNL A   1     -25.430   0.826  26.903  0.00  0.00    -0.059 C 
BRANCH   8   9
ATOM      9  C   UNL A   1     -25.034   0.826  25.513  0.00  0.00    +0.045 C 
ATOM     10  C   UNL A   1     -25.826   0.080  24.622  0.00  0.00    -0.017 C 
ATOM     11  C   UNL A   1     -26.949  -0.418  25.103  0.00  0.00    +0.031 C 
ENDBRANCH   8   9
ENDBRANCH   3   7
TORSDOF 2
