MODEL 980
MODEL 1
REMARK VINA RESULT:    -6.049      0.000      0.000
REMARK INTER + INTRA:          -7.033
REMARK INTER:                  -6.756
REMARK INTRA:                  -0.277
REMARK UNBOUND:                -0.277
REMARK  Name = No_980-gen_results/8p0m/2024-11-26-14-13-15/
REMARK  2 active torsions:
REMARK  status: ('A' for Active; 'I' for Inactive)
REMARK    1  A    between atoms: C_3  and  C_7
REMARK    2  A    between atoms: C_8  and  C_9
REMARK                            x       y       z     vdW  Elec       q    Type
REMARK                         _______ _______ _______ _____ _____    ______ ____
ROOT
ATOM      1  C   UNL A   1     -23.908  -4.322  28.673  0.00  0.00    +0.008 A 
ATOM      2  C   UNL A   1     -24.703  -4.997  28.824  0.00  0.00    +0.001 A 
ATOM      3  C   UNL A   1     -24.199  -2.962  29.126  0.00  0.00    +0.042 A 
ATOM      4  C   UNL A   1     -25.396  -2.628  29.710  0.00  0.00    +0.008 A 
ATOM      5  C   UNL A   1     -25.831  -4.900  29.379  0.00  0.00    +0.000 A 
ATOM      6  C   UNL A   1     -26.281  -3.686  29.865  0.00  0.00    +0.001 A 
ENDROOT
BRANCH   3   7
ATOM      7  C   UNL A   1     -23.198  -1.842  29.009  0.00  0.00    -0.060 C 
ATOM      8  C   UNL A   1     -23.084  -0.775  28.993  0.00  0.00    -0.059 C 
BRANCH   8   9
ATOM      9  C   UNL A   1     -21.882   0.003  28.797  0.00  0.00    +0.045 C 
ATOM     10  C   UNL A   1     -21.956   1.077  27.892  0.00  0.00    -0.017 C 
ATOM     11  C   UNL A   1     -23.154   1.379  27.428  0.00  0.00    +0.031 C 
ENDBRANCH   8   9
ENDBRANCH   3   7
TORSDOF 2
ENDMDL
ENDMDL
