REMARK  Name = No_981-gen_results/8p0m/2024-11-26-14-13-15/
REMARK  8 active torsions:
REMARK  status: ('A' for Active; 'I' for Inactive)
REMARK    1  A    between atoms: C_1  and  C_2
REMARK    2  A    between atoms: C_5  and  C_13
REMARK    3  A    between atoms: C_9  and  O_18
REMARK    4  A    between atoms: C_11  and  O_17
REMARK    5  A    between atoms: O_17  and  C_28
REMARK    6  A    between atoms: O_18  and  C_19
REMARK    7  A    between atoms: C_19  and  C_20
REMARK    8  A    between atoms: C_32  and  C_34
REMARK                            x       y       z     vdW  Elec       q    Type
REMARK                         _______ _______ _______ _____ _____    ______ ____
ROOT
ATOM      1  C   UNL A   1     -28.016  -0.814  28.878  0.00  0.00    +0.006 A 
ATOM      2  C   UNL A   1     -29.243  -0.197  29.128  0.00  0.00    +0.038 A 
ATOM      3  C   UNL A   1     -30.378  -0.991  29.476  0.00  0.00    +0.152 A 
ATOM      4  C   UNL A   1     -30.168  -2.224  30.041  0.00  0.00    +0.075 A 
ATOM      5  C   UNL A   1     -28.902  -2.795  30.138  0.00  0.00    +0.148 A 
ATOM      6  C   UNL A   1     -27.826  -2.095  29.661  0.00  0.00    +0.038 A 
ENDROOT
BRANCH   1   7
ATOM      7  C   UNL A   1     -27.064  -0.119  28.608  0.00  0.00    +0.000 A 
ATOM      8  C   UNL A   1     -26.929   1.171  29.008  0.00  0.00    -0.000 A 
ATOM      9  C   UNL A   1     -25.770   2.034  28.688  0.00  0.00    +0.004 A 
ATOM     10  C   UNL A   1     -24.714   1.443  27.919  0.00  0.00    +0.071 A 
ATOM     11  C   UNL A   1     -24.859   0.078  27.584  0.00  0.00    +0.004 A 
ATOM     12  C   UNL A   1     -25.965  -0.661  27.916  0.00  0.00    -0.000 A 
BRANCH  10  13
ATOM     13  C   UNL A   1     -23.489   2.116  27.563  0.00  0.00    +0.419 C 
ATOM     14  F   UNL A   1     -22.620   1.611  27.272  0.00  0.00    -0.166 F 
ATOM     15  F   UNL A   1     -23.907   3.042  26.502  0.00  0.00    -0.166 F 
ATOM     16  F   UNL A   1     -23.180   3.057  28.586  0.00  0.00    -0.166 F 
ENDBRANCH  10  13
ENDBRANCH   1   7
BRANCH   5  17
ATOM     17  O   UNL A   1     -28.672  -4.018  30.673  0.00  0.00    -0.453 OA
BRANCH  17  18
ATOM     18  C   UNL A   1     -29.300  -5.045  30.325  0.00  0.00    +0.145 A 
ATOM     19  C   UNL A   1     -29.879  -5.673  31.522  0.00  0.00    +0.037 A 
ATOM     20  C   UNL A   1     -30.740  -6.838  31.292  0.00  0.00    +0.003 A 
ATOM     21  C   UNL A   1     -31.247  -7.020  30.017  0.00  0.00    +0.000 A 
ATOM     22  C   UNL A   1     -30.799  -6.251  28.931  0.00  0.00    +0.003 A 
ATOM     23  C   UNL A   1     -29.889  -5.175  29.168  0.00  0.00    +0.037 A 
BRANCH  22  24
ATOM     24  C   UNL A   1     -31.283  -6.514  27.586  0.00  0.00    +0.000 C 
ATOM     25  C   UNL A   1     -31.381  -7.715  27.043  0.00  0.00    +0.000 C 
ENDBRANCH  22  24
ENDBRANCH  17  18
ENDBRANCH   5  17
BRANCH   3  26
ATOM     26  O   UNL A   1     -31.592  -0.480  29.438  0.00  0.00    -0.421 OA
BRANCH  26  27
ATOM     27  C   UNL A   1     -32.252  -0.390  28.324  0.00  0.00    +0.346 C 
ATOM     28  O   UNL A   1     -31.808  -0.947  27.299  0.00  0.00    -0.244 OA
BRANCH  27  29
ATOM     29  C   UNL A   1     -33.343   0.366  28.355  0.00  0.00    +0.076 A 
ATOM     30  C   UNL A   1     -33.778   0.974  29.343  0.00  0.00    +0.007 A 
ATOM     31  C   UNL A   1     -34.118   0.488  27.041  0.00  0.00    +0.007 A 
ATOM     32  C   UNL A   1     -35.013   1.773  29.376  0.00  0.00    +0.012 A 
ATOM     33  C   UNL A   1     -35.309   1.257  27.093  0.00  0.00    +0.012 A 
ATOM     34  C   UNL A   1     -35.725   1.879  28.204  0.00  0.00    +0.058 A 
ATOM     35 CL   UNL A   1     -37.222   2.699  28.321  0.00  0.00    -0.082 Cl
ENDBRANCH  27  29
ENDBRANCH  26  27
ENDBRANCH   3  26
TORSDOF 8
