MODEL 981
MODEL 1
REMARK VINA RESULT:    -8.485      0.000      0.000
REMARK INTER + INTRA:         -14.298
REMARK INTER:                 -12.453
REMARK INTRA:                  -1.845
REMARK UNBOUND:                -1.845
REMARK  Name = No_981-gen_results/8p0m/2024-11-26-14-13-15/
REMARK  8 active torsions:
REMARK  status: ('A' for Active; 'I' for Inactive)
REMARK    1  A    between atoms: C_1  and  C_2
REMARK    2  A    between atoms: C_5  and  C_13
REMARK    3  A    between atoms: C_9  and  O_18
REMARK    4  A    between atoms: C_11  and  O_17
REMARK    5  A    between atoms: O_17  and  C_28
REMARK    6  A    between atoms: O_18  and  C_19
REMARK    7  A    between atoms: C_19  and  C_20
REMARK    8  A    between atoms: C_32  and  C_34
REMARK                            x       y       z     vdW  Elec       q    Type
REMARK                         _______ _______ _______ _____ _____    ______ ____
ROOT
ATOM      1  C   UNL A   1     -10.277   0.140  37.430  0.00  0.00    +0.006 A 
ATOM      2  C   UNL A   1     -11.449   0.635  36.857  0.00  0.00    +0.038 A 
ATOM      3  C   UNL A   1     -11.383   1.388  35.645  0.00  0.00    +0.152 A 
ATOM      4  C   UNL A   1     -10.309   1.198  34.812  0.00  0.00    +0.075 A 
ATOM      5  C   UNL A   1      -9.209   0.427  35.177  0.00  0.00    +0.148 A 
ATOM      6  C   UNL A   1      -9.204  -0.172  36.409  0.00  0.00    +0.038 A 
ENDROOT
BRANCH   1   7
ATOM      7  C   UNL A   1     -10.361  -0.514  38.443  0.00  0.00    +0.000 A 
ATOM      8  C   UNL A   1     -11.323  -1.445  38.668  0.00  0.00    -0.000 A 
ATOM      9  C   UNL A   1     -11.438  -2.255  39.902  0.00  0.00    +0.004 A 
ATOM     10  C   UNL A   1     -10.442  -2.044  40.911  0.00  0.00    +0.071 A 
ATOM     11  C   UNL A   1      -9.417  -1.120  40.609  0.00  0.00    +0.004 A 
ATOM     12  C   UNL A   1      -9.375  -0.403  39.441  0.00  0.00    -0.000 A 
BRANCH  10  13
ATOM     13  C   UNL A   1     -10.366  -2.781  42.149  0.00  0.00    +0.419 C 
ATOM     14  F   UNL A   1     -11.162  -3.341  42.533  0.00  0.00    -0.166 F 
ATOM     15  F   UNL A   1      -9.194  -3.645  41.958  0.00  0.00    -0.166 F 
ATOM     16  F   UNL A   1      -9.855  -1.914  43.157  0.00  0.00    -0.166 F 
ENDBRANCH  10  13
ENDBRANCH   1   7
BRANCH   5  17
ATOM     17  O   UNL A   1      -8.128   0.241  34.381  0.00  0.00    -0.453 OA
BRANCH  17  18
ATOM     18  C   UNL A   1      -7.067  -0.290  34.784  0.00  0.00    +0.145 A 
ATOM     19  C   UNL A   1      -6.961  -1.636  34.199  0.00  0.00    +0.037 A 
ATOM     20  C   UNL A   1      -5.722  -2.370  34.480  0.00  0.00    +0.003 A 
ATOM     21  C   UNL A   1      -4.629  -1.641  34.916  0.00  0.00    +0.000 A 
ATOM     22  C   UNL A   1      -4.743  -0.290  35.278  0.00  0.00    +0.003 A 
ATOM     23  C   UNL A   1      -5.988   0.382  35.078  0.00  0.00    +0.037 A 
BRANCH  22  24
ATOM     24  C   UNL A   1      -3.601   0.434  35.812  0.00  0.00    +0.000 C 
ATOM     25  C   UNL A   1      -3.096   0.257  37.020  0.00  0.00    +0.000 C 
ENDBRANCH  22  24
ENDBRANCH  17  18
ENDBRANCH   5  17
BRANCH   3  26
ATOM     26  O   UNL A   1     -12.415   2.100  35.239  0.00  0.00    -0.421 OA
BRANCH  26  27
ATOM     27  C   UNL A   1     -12.701   3.244  35.781  0.00  0.00    +0.346 C 
ATOM     28  O   UNL A   1     -11.865   4.170  35.741  0.00  0.00    -0.244 OA
BRANCH  27  29
ATOM     29  C   UNL A   1     -13.868   3.313  36.410  0.00  0.00    +0.076 A 
ATOM     30  C   UNL A   1     -14.976   3.453  35.872  0.00  0.00    +0.007 A 
ATOM     31  C   UNL A   1     -13.821   3.205  37.936  0.00  0.00    +0.007 A 
ATOM     32  C   UNL A   1     -16.259   3.573  36.583  0.00  0.00    +0.012 A 
ATOM     33  C   UNL A   1     -15.066   3.328  38.604  0.00  0.00    +0.012 A 
ATOM     34  C   UNL A   1     -16.227   3.490  37.956  0.00  0.00    +0.058 A 
ATOM     35 CL   UNL A   1     -17.718   3.773  38.747  0.00  0.00    -0.082 Cl
ENDBRANCH  27  29
ENDBRANCH  26  27
ENDBRANCH   3  26
TORSDOF 8
ENDMDL
ENDMDL
