MODEL 982
MODEL 1
REMARK VINA RESULT:    -4.998      0.000      0.000
REMARK INTER + INTRA:          -5.430
REMARK INTER:                  -5.290
REMARK INTRA:                  -0.140
REMARK UNBOUND:                -0.140
REMARK  Name = No_982-gen_results/8p0m/2024-11-26-14-13-15/
REMARK  1 active torsions:
REMARK  status: ('A' for Active; 'I' for Inactive)
REMARK    1  A    between atoms: C_2  and  C_7
REMARK                            x       y       z     vdW  Elec       q    Type
REMARK                         _______ _______ _______ _____ _____    ______ ____
ROOT
ATOM      1  C   UNL A   1     -25.790  -2.983  29.764  0.00  0.00    -0.000 A 
ATOM      2  C   UNL A   1     -24.754  -2.612  29.264  0.00  0.00    -0.000 A 
ATOM      3  C   UNL A   1     -23.856  -3.441  28.676  0.00  0.00    -0.000 A 
ATOM      4  C   UNL A   1     -24.141  -4.820  28.643  0.00  0.00    -0.000 A 
ATOM      5  C   UNL A   1     -26.191  -4.365  29.682  0.00  0.00    -0.000 A 
ATOM      6  C   UNL A   1     -25.310  -5.244  29.127  0.00  0.00    -0.000 A 
ENDROOT
BRANCH   2   7
ATOM      7  C   UNL A   1     -24.149  -1.201  29.184  0.00  0.00    -0.005 C 
ATOM      8  C   UNL A   1     -24.139  -0.439  28.103  0.00  0.00    -0.026 C 
ATOM      9  C   UNL A   1     -25.314  -0.532  27.293  0.00  0.00    +0.031 C 
ENDBRANCH   2   7
TORSDOF 1
ENDMDL
ENDMDL
