REMARK  Name = No_983-gen_results/8p0m/2024-11-26-14-13-15/
REMARK  1 active torsions:
REMARK  status: ('A' for Active; 'I' for Inactive)
REMARK    1  A    between atoms: C_2  and  C_3
REMARK                            x       y       z     vdW  Elec       q    Type
REMARK                         _______ _______ _______ _____ _____    ______ ____
ROOT
ATOM      1  C   UNL A   1     -26.380  -0.087  27.939  0.00  0.00    +0.068 A 
ATOM      2  C   UNL A   1     -25.128  -0.331  28.375  0.00  0.00    +0.006 A 
ATOM      3  C   UNL A   1     -26.538   0.609  26.677  0.00  0.00    +0.006 A 
ATOM      4  C   UNL A   1     -23.916   0.175  27.620  0.00  0.00    +0.000 A 
ATOM      5  C   UNL A   1     -25.414   1.024  25.925  0.00  0.00    +0.000 A 
ATOM      6  C   UNL A   1     -24.120   0.841  26.410  0.00  0.00    +0.000 A 
ENDROOT
BRANCH   1   8
ATOM      7  O   UNL A   1     -28.123  -1.335  28.487  0.00  0.00    -0.254 OA
ATOM      8  C   UNL A   1     -27.481  -0.404  28.709  0.00  0.00    +0.333 C 
ATOM      9  F   UNL A   1     -27.731   0.345  29.848  0.00  0.00    -0.159 F 
ENDBRANCH   1   8
TORSDOF 1
