MODEL 983
MODEL 1
REMARK VINA RESULT:    -5.350      0.000      0.000
REMARK INTER + INTRA:          -5.712
REMARK INTER:                  -5.663
REMARK INTRA:                  -0.049
REMARK UNBOUND:                -0.049
REMARK  Name = No_983-gen_results/8p0m/2024-11-26-14-13-15/
REMARK  1 active torsions:
REMARK  status: ('A' for Active; 'I' for Inactive)
REMARK    1  A    between atoms: C_2  and  C_3
REMARK                            x       y       z     vdW  Elec       q    Type
REMARK                         _______ _______ _______ _____ _____    ______ ____
ROOT
ATOM      1  C   UNL A   1      -9.669 -10.098  18.191  0.00  0.00    +0.068 A 
ATOM      2  C   UNL A   1      -8.394 -10.446  18.453  0.00  0.00    +0.006 A 
ATOM      3  C   UNL A   1     -10.396  -9.361  19.206  0.00  0.00    +0.006 A 
ATOM      4  C   UNL A   1      -7.756 -10.155  19.796  0.00  0.00    +0.000 A 
ATOM      5  C   UNL A   1      -9.789  -9.019  20.437  0.00  0.00    +0.000 A 
ATOM      6  C   UNL A   1      -8.497  -9.443  20.741  0.00  0.00    +0.000 A 
ENDROOT
BRANCH   1   8
ATOM      7  O   UNL A   1     -11.447 -10.480  16.930  0.00  0.00    -0.254 OA
ATOM      8  C   UNL A   1     -10.300 -10.508  17.033  0.00  0.00    +0.333 C 
ATOM      9  F   UNL A   1      -9.521 -10.831  15.933  0.00  0.00    -0.159 F 
ENDBRANCH   1   8
TORSDOF 1
ENDMDL
ENDMDL
