REMARK  Name = No_984-gen_results/8p0m/2024-11-26-14-13-15/
REMARK  7 active torsions:
REMARK  status: ('A' for Active; 'I' for Inactive)
REMARK    1  A    between atoms: C_2  and  C_10
REMARK    2  A    between atoms: C_4  and  C_26
REMARK    3  A    between atoms: C_5  and  N_7
REMARK    4  A    between atoms: C_10  and  C_11
REMARK    5  A    between atoms: C_11  and  C_12
REMARK    6  A    between atoms: C_11  and  C_14
REMARK    7  A    between atoms: C_14  and  N_15
REMARK                            x       y       z     vdW  Elec       q    Type
REMARK                         _______ _______ _______ _____ _____    ______ ____
ROOT
ATOM      1  C   UNL A   1     -28.016  -0.814  28.878  0.00  0.00    -0.003 A 
ATOM      2  C   UNL A   1     -27.064  -0.119  28.608  0.00  0.00    -0.022 A 
ATOM      3  C   UNL A   1     -27.001   0.691  27.491  0.00  0.00    -0.001 A 
ATOM      4  C   UNL A   1     -28.137   0.736  26.635  0.00  0.00    +0.066 A 
ATOM      5  C   UNL A   1     -29.236   0.076  27.069  0.00  0.00    +0.050 A 
ATOM      6  C   UNL A   1     -29.218  -0.643  28.175  0.00  0.00    +0.014 A 
ENDROOT
BRANCH   5   7
ATOM      7  N   UNL A   1     -30.459   0.065  26.412  0.00  0.00    -0.308 N 
ATOM      8  C   UNL A   1     -30.546  -0.135  25.141  0.00  0.00    +0.091 C 
ATOM      9  C   UNL A   1     -31.685   0.269  27.104  0.00  0.00    +0.091 C 
ATOM     10  C   UNL A   1     -32.702  -0.052  26.561  0.00  0.00    +0.021 C 
ATOM     11  C   UNL A   1     -31.716  -0.529  24.448  0.00  0.00    +0.021 C 
ATOM     12  C   UNL A   1     -32.875  -0.371  25.191  0.00  0.00    +0.004 C 
ENDBRANCH   5   7
BRANCH   4  13
ATOM     13  C   UNL A   1     -28.126   1.615  25.464  0.00  0.00    +0.351 C 
ATOM     14  F   UNL A   1     -27.314   1.190  24.592  0.00  0.00    -0.182 F 
ATOM     15 CL   UNL A   1     -27.506   3.149  25.927  0.00  0.00    -0.042 Cl
ATOM     16  F   UNL A   1     -29.240   2.080  24.941  0.00  0.00    -0.182 F 
ENDBRANCH   4  13
BRANCH   2  17
ATOM     17  C   UNL A   1     -25.686  -0.220  29.388  0.00  0.00    +0.033 C 
BRANCH  17  18
ATOM     18  C   UNL A   1     -25.209   1.027  30.024  0.00  0.00    +0.048 C 
BRANCH  18  19
ATOM     19  C   UNL A   1     -25.418   1.200  31.127  0.00  0.00    -0.021 A 
ATOM     20  C   UNL A   1     -24.983   2.503  31.838  0.00  0.00    -0.004 A 
ATOM     21  C   UNL A   1     -25.471   2.953  33.026  0.00  0.00    -0.000 A 
ATOM     22  C   UNL A   1     -26.310   2.078  33.721  0.00  0.00    -0.000 A 
ATOM     23  C   UNL A   1     -26.672   0.846  33.206  0.00  0.00    -0.000 A 
ATOM     24  C   UNL A   1     -26.308   0.470  31.957  0.00  0.00    -0.004 A 
ENDBRANCH  18  19
BRANCH  18  25
ATOM     25  C   UNL A   1     -24.375   1.900  29.169  0.00  0.00    +0.120 C 
BRANCH  25  26
ATOM     26  N   UNL A   1     -23.960   1.574  27.970  0.00  0.00    -0.205 NA
ATOM     27  C   UNL A   1     -22.652   1.152  27.956  0.00  0.00    +0.242 C 
ATOM     28  C   UNL A   1     -21.855   1.793  26.880  0.00  0.00    +0.096 C 
ATOM     29  O   UNL A   1     -22.276   0.006  28.450  0.00  0.00    -0.273 OA
ENDBRANCH  25  26
ENDBRANCH  18  25
ENDBRANCH  17  18
ENDBRANCH   2  17
TORSDOF 7
