MODEL 984
MODEL 1
REMARK VINA RESULT:    -7.037      0.000      0.000
REMARK INTER + INTRA:         -12.255
REMARK INTER:                  -9.916
REMARK INTRA:                  -2.338
REMARK UNBOUND:                -2.338
REMARK  Name = No_984-gen_results/8p0m/2024-11-26-14-13-15/
REMARK  7 active torsions:
REMARK  status: ('A' for Active; 'I' for Inactive)
REMARK    1  A    between atoms: C_2  and  C_10
REMARK    2  A    between atoms: C_4  and  C_26
REMARK    3  A    between atoms: C_5  and  N_7
REMARK    4  A    between atoms: C_10  and  C_11
REMARK    5  A    between atoms: C_11  and  C_12
REMARK    6  A    between atoms: C_11  and  C_14
REMARK    7  A    between atoms: C_14  and  N_15
REMARK                            x       y       z     vdW  Elec       q    Type
REMARK                         _______ _______ _______ _____ _____    ______ ____
ROOT
ATOM      1  C   UNL A   1     -26.290  -0.374  26.277  0.00  0.00    -0.003 A 
ATOM      2  C   UNL A   1     -25.886   0.244  25.319  0.00  0.00    -0.022 A 
ATOM      3  C   UNL A   1     -24.777   1.066  25.352  0.00  0.00    -0.001 A 
ATOM      4  C   UNL A   1     -24.050   1.157  26.572  0.00  0.00    +0.066 A 
ATOM      5  C   UNL A   1     -24.439   0.318  27.560  0.00  0.00    +0.050 A 
ATOM      6  C   UNL A   1     -25.491  -0.466  27.426  0.00  0.00    +0.014 A 
ENDROOT
BRANCH   5   7
ATOM      7  N   UNL A   1     -23.809   0.207  28.793  0.00  0.00    -0.308 N 
ATOM      8  C   UNL A   1     -24.090   0.996  29.773  0.00  0.00    +0.091 C 
ATOM      9  C   UNL A   1     -22.821  -0.785  29.044  0.00  0.00    +0.091 C 
ATOM     10  C   UNL A   1     -22.543  -1.032  30.182  0.00  0.00    +0.021 C 
ATOM     11  C   UNL A   1     -23.800   0.750  31.137  0.00  0.00    +0.021 C 
ATOM     12  C   UNL A   1     -22.881  -0.270  31.328  0.00  0.00    +0.004 C 
ENDBRANCH   5   7
BRANCH   4  13
ATOM     13  C   UNL A   1     -22.843   1.984  26.635  0.00  0.00    +0.351 C 
ATOM     14  F   UNL A   1     -23.076   3.070  27.241  0.00  0.00    -0.182 F 
ATOM     15 CL   UNL A   1     -22.411   2.458  25.041  0.00  0.00    -0.042 Cl
ATOM     16  F   UNL A   1     -21.671   1.471  26.938  0.00  0.00    -0.182 F 
ENDBRANCH   4  13
BRANCH   2  17
ATOM     17  C   UNL A   1     -26.710   0.355  23.967  0.00  0.00    +0.033 C 
BRANCH  17  18
ATOM     18  C   UNL A   1     -27.993   1.085  24.049  0.00  0.00    +0.048 C 
BRANCH  18  19
ATOM     19  C   UNL A   1     -28.966   0.504  23.969  0.00  0.00    -0.021 A 
ATOM     20  C   UNL A   1     -30.274   1.180  23.496  0.00  0.00    -0.004 A 
ATOM     21  C   UNL A   1     -31.379   0.527  23.043  0.00  0.00    -0.000 A 
ATOM     22  C   UNL A   1     -31.372  -0.864  23.173  0.00  0.00    -0.000 A 
ATOM     23  C   UNL A   1     -30.281  -1.547  23.681  0.00  0.00    -0.000 A 
ATOM     24  C   UNL A   1     -29.128  -0.905  23.986  0.00  0.00    -0.004 A 
ENDBRANCH  18  19
BRANCH  18  25
ATOM     25  C   UNL A   1     -27.886   2.528  24.359  0.00  0.00    +0.120 C 
BRANCH  25  26
ATOM     26  N   UNL A   1     -28.308   3.073  25.473  0.00  0.00    -0.205 NA
ATOM     27  C   UNL A   1     -27.307   3.227  26.402  0.00  0.00    +0.242 C 
ATOM     28  C   UNL A   1     -27.702   2.752  27.752  0.00  0.00    +0.096 C 
ATOM     29  O   UNL A   1     -26.356   4.109  26.274  0.00  0.00    -0.273 OA
ENDBRANCH  25  26
ENDBRANCH  18  25
ENDBRANCH  17  18
ENDBRANCH   2  17
TORSDOF 7
ENDMDL
ENDMDL
