REMARK  Name = No_985-gen_results/8p0m/2024-11-26-14-13-15/
REMARK  5 active torsions:
REMARK  status: ('A' for Active; 'I' for Inactive)
REMARK    1  A    between atoms: C_3  and  C_11
REMARK    2  A    between atoms: C_5  and  C_8
REMARK    3  A    between atoms: C_12  and  C_17
REMARK    4  A    between atoms: C_17  and  N_18
REMARK    5  A    between atoms: N_18  and  C_19
REMARK                            x       y       z     vdW  Elec       q    Type
REMARK                         _______ _______ _______ _____ _____    ______ ____
ROOT
ATOM      1  C   UNL A   1     -25.704   1.405  27.094  0.00  0.00    -0.002 A 
ATOM      2  C   UNL A   1     -25.202   2.340  28.103  0.00  0.00    -0.002 A 
ATOM      3  C   UNL A   1     -23.970   2.922  27.796  0.00  0.00    -0.003 A 
ATOM      4  C   UNL A   1     -23.248   2.527  26.615  0.00  0.00    -0.000 A 
ATOM      5  C   UNL A   1     -24.961   1.091  26.006  0.00  0.00    -0.000 A 
ATOM      6  C   UNL A   1     -23.794   1.661  25.739  0.00  0.00    -0.000 A 
ENDROOT
BRANCH   1   9
ATOM      7  C   UNL A   1     -28.016  -0.814  28.878  0.00  0.00    +0.140 A 
ATOM      8  C   UNL A   1     -27.064  -0.119  28.608  0.00  0.00    +0.030 A 
ATOM      9  C   UNL A   1     -27.001   0.691  27.491  0.00  0.00    +0.002 A 
ATOM     10  C   UNL A   1     -28.137   0.736  26.635  0.00  0.00    +0.007 A 
ATOM     11  C   UNL A   1     -29.236   0.076  27.069  0.00  0.00    +0.082 A 
ATOM     12  C   UNL A   1     -29.218  -0.643  28.175  0.00  0.00    +0.036 A 
ATOM     13  F   UNL A   1     -28.047  -1.548  30.009  0.00  0.00    -0.204 F 
BRANCH  11  14
ATOM     14  C   UNL A   1     -30.422   0.156  26.180  0.00  0.00    +0.388 C 
ATOM     15  O   UNL A   1     -31.304  -0.473  26.361  0.00  0.00    -0.241 OA
ATOM     16  O   UNL A   1     -30.380   0.930  25.078  0.00  0.00    -0.241 OA
ENDBRANCH  11  14
ENDBRANCH   1   9
BRANCH   2  17
ATOM     17  C   UNL A   1     -25.857   2.787  29.310  0.00  0.00    +0.118 C 
BRANCH  17  18
ATOM     18  N   UNL A   1     -26.463   3.873  29.429  0.00  0.00    -0.301 N 
ATOM     19  C   UNL A   1     -26.155   4.911  28.487  0.00  0.00    +0.113 C 
BRANCH  18  20
ATOM     20  C   UNL A   1     -27.348   4.194  30.331  0.00  0.00    +0.062 C 
ATOM     21  C   UNL A   1     -28.466   4.723  30.002  0.00  0.00    +0.017 C 
ENDBRANCH  18  20
ENDBRANCH  17  18
ENDBRANCH   2  17
TORSDOF 5
