MODEL 985
MODEL 1
REMARK VINA RESULT:    -7.236      0.000      0.000
REMARK INTER + INTRA:         -10.349
REMARK INTER:                  -9.351
REMARK INTRA:                  -0.998
REMARK UNBOUND:                -0.998
REMARK  Name = No_985-gen_results/8p0m/2024-11-26-14-13-15/
REMARK  5 active torsions:
REMARK  status: ('A' for Active; 'I' for Inactive)
REMARK    1  A    between atoms: C_3  and  C_11
REMARK    2  A    between atoms: C_5  and  C_8
REMARK    3  A    between atoms: C_12  and  C_17
REMARK    4  A    between atoms: C_17  and  N_18
REMARK    5  A    between atoms: N_18  and  C_19
REMARK                            x       y       z     vdW  Elec       q    Type
REMARK                         _______ _______ _______ _____ _____    ______ ____
ROOT
ATOM      1  C   UNL A   1     -24.223  -0.038  27.798  0.00  0.00    -0.002 A 
ATOM      2  C   UNL A   1     -22.986   0.381  28.459  0.00  0.00    -0.002 A 
ATOM      3  C   UNL A   1     -22.299   1.411  27.812  0.00  0.00    -0.003 A 
ATOM      4  C   UNL A   1     -22.764   1.918  26.548  0.00  0.00    -0.000 A 
ATOM      5  C   UNL A   1     -24.591   0.495  26.608  0.00  0.00    -0.000 A 
ATOM      6  C   UNL A   1     -23.919   1.473  26.017  0.00  0.00    -0.000 A 
ENDROOT
BRANCH   1   9
ATOM      7  C   UNL A   1     -26.498  -1.976  29.924  0.00  0.00    +0.140 A 
ATOM      8  C   UNL A   1     -26.014  -1.082  29.270  0.00  0.00    +0.030 A 
ATOM      9  C   UNL A   1     -24.910  -1.240  28.456  0.00  0.00    +0.002 A 
ATOM     10  C   UNL A   1     -24.338  -2.539  28.354  0.00  0.00    +0.007 A 
ATOM     11  C   UNL A   1     -25.015  -3.538  28.967  0.00  0.00    +0.082 A 
ATOM     12  C   UNL A   1     -26.089  -3.299  29.694  0.00  0.00    +0.036 A 
ATOM     13  F   UNL A   1     -27.608  -1.780  30.664  0.00  0.00    -0.204 F 
BRANCH  11  14
ATOM     14  C   UNL A   1     -24.422  -4.892  28.828  0.00  0.00    +0.388 C 
ATOM     15  O   UNL A   1     -23.629  -5.086  28.093  0.00  0.00    -0.241 OA
ATOM     16  O   UNL A   1     -24.930  -5.920  29.535  0.00  0.00    -0.241 OA
ENDBRANCH  11  14
ENDBRANCH   1   9
BRANCH   2  17
ATOM     17  C   UNL A   1     -22.449  -0.075  29.720  0.00  0.00    +0.118 C 
BRANCH  17  18
ATOM     18  N   UNL A   1     -23.054  -0.016  30.812  0.00  0.00    -0.301 N 
ATOM     19  C   UNL A   1     -23.724   1.211  31.135  0.00  0.00    +0.113 C 
BRANCH  18  20
ATOM     20  C   UNL A   1     -23.141  -0.946  31.723  0.00  0.00    +0.062 C 
ATOM     21  C   UNL A   1     -24.080  -0.934  32.592  0.00  0.00    +0.017 C 
ENDBRANCH  18  20
ENDBRANCH  17  18
ENDBRANCH   2  17
TORSDOF 5
ENDMDL
ENDMDL
