REMARK  Name = No_986-gen_results/8p0m/2024-11-26-14-13-15/
REMARK  1 active torsions:
REMARK  status: ('A' for Active; 'I' for Inactive)
REMARK    1  A    between atoms: C_1  and  C_5
REMARK                            x       y       z     vdW  Elec       q    Type
REMARK                         _______ _______ _______ _____ _____    ______ ____
ROOT
ATOM      1  C   UNL A   1     -28.016  -0.814  28.878  0.00  0.00    +0.042 A 
ATOM      2  C   UNL A   1     -27.064  -0.119  28.608  0.00  0.00    +0.003 A 
ATOM      3  C   UNL A   1     -27.001   0.691  27.491  0.00  0.00    +0.000 A 
ATOM      4  C   UNL A   1     -28.142   0.828  26.799  0.00  0.00    +0.000 A 
ATOM      5  C   UNL A   1     -29.272   0.171  27.215  0.00  0.00    +0.000 A 
ATOM      6  C   UNL A   1     -29.203  -0.540  28.281  0.00  0.00    +0.003 A 
ENDROOT
BRANCH   1   7
ATOM      7  C   UNL A   1     -27.965  -1.517  30.166  0.00  0.00    +0.234 C 
ATOM      8  O   UNL A   1     -26.983  -2.250  30.446  0.00  0.00    -0.283 OA
ENDBRANCH   1   7
TORSDOF 1
