MODEL 986
MODEL 1
REMARK VINA RESULT:    -5.224      0.000      0.000
REMARK INTER + INTRA:          -5.550
REMARK INTER:                  -5.530
REMARK INTRA:                  -0.021
REMARK UNBOUND:                -0.021
REMARK  Name = No_986-gen_results/8p0m/2024-11-26-14-13-15/
REMARK  1 active torsions:
REMARK  status: ('A' for Active; 'I' for Inactive)
REMARK    1  A    between atoms: C_1  and  C_5
REMARK                            x       y       z     vdW  Elec       q    Type
REMARK                         _______ _______ _______ _____ _____    ______ ____
ROOT
ATOM      1  C   UNL A   1      -9.534  -9.908  18.266  0.00  0.00    +0.042 A 
ATOM      2  C   UNL A   1      -8.463 -10.366  18.590  0.00  0.00    +0.003 A 
ATOM      3  C   UNL A   1      -7.836 -10.071  19.785  0.00  0.00    +0.000 A 
ATOM      4  C   UNL A   1      -8.566  -9.389  20.680  0.00  0.00    +0.000 A 
ATOM      5  C   UNL A   1      -9.851  -9.022  20.370  0.00  0.00    +0.000 A 
ATOM      6  C   UNL A   1     -10.324  -9.372  19.230  0.00  0.00    +0.003 A 
ENDROOT
BRANCH   1   7
ATOM      7  C   UNL A   1     -10.112 -10.423  17.018  0.00  0.00    +0.234 C 
ATOM      8  O   UNL A   1     -11.359 -10.512  16.890  0.00  0.00    -0.283 OA
ENDBRANCH   1   7
TORSDOF 1
ENDMDL
ENDMDL
