MODEL 987
MODEL 1
REMARK VINA RESULT:    -8.706      0.000      0.000
REMARK INTER + INTRA:         -14.322
REMARK INTER:                 -11.759
REMARK INTRA:                  -2.562
REMARK UNBOUND:                -2.562
REMARK  Name = No_987-gen_results/8p0m/2024-11-26-14-13-15/
REMARK  6 active torsions:
REMARK  status: ('A' for Active; 'I' for Inactive)
REMARK    1  A    between atoms: C_15  and  C_17
REMARK    2  A    between atoms: C_20  and  C_23
REMARK    3  A    between atoms: C_23  and  C_24
REMARK    4  A    between atoms: C_26  and  O_30
REMARK    5  A    between atoms: C_28  and  C_32
REMARK    6  A    between atoms: O_30  and  C_31
REMARK                            x       y       z     vdW  Elec       q    Type
REMARK                         _______ _______ _______ _____ _____    ______ ____
ROOT
ATOM      1  C   UNL A   1     -23.115   0.120  28.245  0.00  0.00    +0.054 A 
ATOM      2  C   UNL A   1     -22.131   0.962  28.209  0.00  0.00    +0.004 A 
ATOM      3  C   UNL A   1     -24.135   0.074  27.274  0.00  0.00    +0.001 A 
ATOM      4  C   UNL A   1     -24.205   1.039  26.287  0.00  0.00    -0.018 A 
ATOM      5  C   UNL A   1     -22.139   1.960  27.112  0.00  0.00    -0.000 A 
ATOM      6  C   UNL A   1     -23.160   1.957  26.183  0.00  0.00    -0.004 A 
ENDROOT
BRANCH   1  21
ATOM      7  C   UNL A   1     -27.269   0.485  30.937  0.00  0.00    -0.003 A 
ATOM      8  C   UNL A   1     -26.766   1.329  31.318  0.00  0.00    -0.000 A 
ATOM      9  C   UNL A   1     -26.494  -0.646  30.597  0.00  0.00    -0.004 A 
ATOM     10  C   UNL A   1     -27.054  -1.949  30.151  0.00  0.00    +0.055 C 
ATOM     11  C   UNL A   1     -25.335   1.577  31.568  0.00  0.00    +0.001 A 
ATOM     12  C   UNL A   1     -24.506   0.501  31.252  0.00  0.00    +0.015 A 
ATOM     13  C   UNL A   1     -25.063  -0.654  30.804  0.00  0.00    +0.055 A 
ATOM     14  C   UNL A   1     -26.141  -2.912  29.624  0.00  0.00    -0.004 A 
ATOM     15  C   UNL A   1     -26.416  -4.163  29.627  0.00  0.00    -0.003 A 
ATOM     16  C   UNL A   1     -25.290  -5.145  29.227  0.00  0.00    -0.000 A 
ATOM     17  C   UNL A   1     -24.042  -4.611  28.854  0.00  0.00    +0.001 A 
ATOM     18  C   UNL A   1     -23.874  -3.261  28.812  0.00  0.00    +0.015 A 
ATOM     19  C   UNL A   1     -24.850  -2.383  29.306  0.00  0.00    +0.055 A 
ATOM     20  N   UNL A   1     -24.345  -1.224  29.810  0.00  0.00    -0.234 N 
ATOM     21  C   UNL A   1     -23.061  -0.782  29.361  0.00  0.00    +0.257 C 
ATOM     22  O   UNL A   1     -22.077  -1.119  29.947  0.00  0.00    -0.269 OA
ENDBRANCH   1  21
BRANCH   4  23
ATOM     23  C   UNL A   1     -25.272   1.048  25.314  0.00  0.00    +0.053 C 
BRANCH  23  24
ATOM     24  C   UNL A   1     -26.395   1.115  25.808  0.00  0.00    -0.015 A 
ATOM     25  C   UNL A   1     -27.429   0.414  25.576  0.00  0.00    +0.034 A 
ATOM     26  C   UNL A   1     -28.707   0.508  26.241  0.00  0.00    +0.145 A 
ATOM     27  C   UNL A   1     -28.789   1.479  27.216  0.00  0.00    +0.037 A 
ATOM     28  C   UNL A   1     -27.771   2.321  27.527  0.00  0.00    +0.002 A 
ATOM     29  C   UNL A   1     -26.583   2.193  26.892  0.00  0.00    -0.004 A 
BRANCH  28  30
ATOM     30  C   UNL A   1     -27.950   3.365  28.523  0.00  0.00    -0.004 C 
ATOM     31  C   UNL A   1     -27.914   4.678  28.171  0.00  0.00    -0.026 C 
ATOM     32  C   UNL A   1     -28.417   4.987  26.845  0.00  0.00    +0.031 C 
ENDBRANCH  28  30
BRANCH  26  33
ATOM     33  O   UNL A   1     -29.749  -0.257  25.937  0.00  0.00    -0.450 OA
BRANCH  33  34
ATOM     34  C   UNL A   1     -30.218  -0.269  24.672  0.00  0.00    +0.180 C 
ATOM     35  C   UNL A   1     -30.212  -1.519  24.084  0.00  0.00    +0.044 C 
ENDBRANCH  33  34
ENDBRANCH  26  33
ENDBRANCH  23  24
ENDBRANCH   4  23
TORSDOF 6
ENDMDL
ENDMDL
