REMARK  Name = No_988-gen_results/8p0m/2024-11-26-14-13-15/
REMARK  4 active torsions:
REMARK  status: ('A' for Active; 'I' for Inactive)
REMARK    1  A    between atoms: C_2  and  C_3
REMARK    2  A    between atoms: C_5  and  C_23
REMARK    3  A    between atoms: C_6  and  C_16
REMARK    4  A    between atoms: C_25  and  C_29
REMARK                            x       y       z     vdW  Elec       q    Type
REMARK                         _______ _______ _______ _____ _____    ______ ____
ROOT
ATOM      1  C   UNL A   1     -26.380  -0.087  27.939  0.00  0.00    +0.054 A 
ATOM      2  C   UNL A   1     -26.409   0.857  26.880  0.00  0.00    +0.004 A 
ATOM      3  C   UNL A   1     -25.082  -0.697  28.170  0.00  0.00    +0.000 A 
ATOM      4  C   UNL A   1     -25.284   1.049  26.047  0.00  0.00    +0.000 A 
ATOM      5  C   UNL A   1     -23.916  -0.344  27.444  0.00  0.00    -0.000 A 
ATOM      6  C   UNL A   1     -24.062   0.529  26.371  0.00  0.00    -0.000 A 
ENDROOT
BRANCH   1   8
ATOM      7  O   UNL A   1     -28.123  -1.335  28.487  0.00  0.00    -0.270 OA
ATOM      8  C   UNL A   1     -27.481  -0.404  28.709  0.00  0.00    +0.253 C 
ATOM      9  N   UNL A   1     -27.666   0.447  29.899  0.00  0.00    -0.250 N 
ATOM     10  C   UNL A   1     -28.772   0.099  30.793  0.00  0.00    +0.125 C 
ATOM     11  C   UNL A   1     -26.847   1.520  30.221  0.00  0.00    +0.064 C 
ATOM     12  C   UNL A   1     -26.138   1.475  31.077  0.00  0.00    -0.005 C 
ATOM     13  C   UNL A   1     -26.089   1.002  32.202  0.00  0.00    +0.053 C 
ATOM     14  C   UNL A   1     -27.028   0.552  32.813  0.00  0.00    -0.020 A 
ATOM     15  C   UNL A   1     -28.120  -0.296  32.118  0.00  0.00    -0.006 A 
ATOM     16  C   UNL A   1     -29.108  -0.860  33.003  0.00  0.00    -0.003 A 
ATOM     17  C   UNL A   1     -28.749  -1.144  34.234  0.00  0.00    -0.000 A 
ATOM     18  C   UNL A   1     -27.716  -0.543  34.968  0.00  0.00    -0.000 A 
ATOM     19  C   UNL A   1     -26.834   0.167  34.256  0.00  0.00    -0.004 A 
ENDBRANCH   1   8
BRANCH   2  20
ATOM     20  C   UNL A   1     -27.725   1.375  26.449  0.00  0.00    -0.000 A 
ATOM     21  C   UNL A   1     -28.812   0.863  26.541  0.00  0.00    -0.000 A 
ATOM     22  C   UNL A   1     -29.977   1.455  26.122  0.00  0.00    +0.025 A 
ATOM     23  C   UNL A   1     -27.663   2.690  25.899  0.00  0.00    -0.000 A 
ATOM     24  C   UNL A   1     -28.741   3.409  25.449  0.00  0.00    -0.000 A 
ATOM     25  C   UNL A   1     -29.965   2.748  25.577  0.00  0.00    -0.000 A 
BRANCH  22  26
ATOM     26  C   UNL A   1     -31.346   0.839  26.309  0.00  0.00    +0.262 C 
ATOM     27 CL   UNL A   1     -32.463   0.647  25.290  0.00  0.00    -0.072 Cl
ATOM     28  F   UNL A   1     -31.521   0.332  27.538  0.00  0.00    -0.214 F 
ENDBRANCH  22  26
ENDBRANCH   2  20
BRANCH   3  29
ATOM     29  C   UNL A   1     -24.893  -1.618  29.333  0.00  0.00    -0.022 C 
ATOM     30  C   UNL A   1     -23.795  -2.107  29.756  0.00  0.00    -0.005 C 
ATOM     31  C   UNL A   1     -25.750  -2.922  29.263  0.00  0.00    +0.031 C 
ENDBRANCH   3  29
TORSDOF 4
