REMARK  Name = No_989-gen_results/8p0m/2024-11-26-14-13-15/
REMARK  3 active torsions:
REMARK  status: ('A' for Active; 'I' for Inactive)
REMARK    1  A    between atoms: N_4  and  C_12
REMARK    2  A    between atoms: C_14  and  C_15
REMARK    3  A    between atoms: C_15  and  C_16
REMARK                            x       y       z     vdW  Elec       q    Type
REMARK                         _______ _______ _______ _____ _____    ______ ____
ROOT
ATOM      1  O   UNL A   1     -28.123  -1.335  28.487  0.00  0.00    -0.274 OA
ATOM      2  C   UNL A   1     -27.481  -0.404  28.709  0.00  0.00    +0.234 C 
ATOM      3  C   UNL A   1     -26.380  -0.087  27.939  0.00  0.00    +0.112 C 
ATOM      4  N   UNL A   1     -27.423   0.175  30.055  0.00  0.00    -0.253 N 
ATOM      5  C   UNL A   1     -25.407   0.742  28.286  0.00  0.00    -0.013 A 
ATOM      6  C   UNL A   1     -24.301   1.159  27.485  0.00  0.00    +0.026 A 
ATOM      7  C   UNL A   1     -23.251   1.904  28.052  0.00  0.00    +0.140 A 
ATOM      8  C   UNL A   1     -23.220   1.988  29.456  0.00  0.00    +0.029 A 
ATOM      9  C   UNL A   1     -24.214   1.470  30.294  0.00  0.00    -0.001 A 
ATOM     10  C   UNL A   1     -25.219   0.793  29.710  0.00  0.00    -0.005 A 
ATOM     11  C   UNL A   1     -26.362   0.533  30.588  0.00  0.00    +0.124 C 
ATOM     12  F   UNL A   1     -22.262   2.377  27.340  0.00  0.00    -0.204 F 
ENDROOT
BRANCH   4  13
ATOM     13  C   UNL A   1     -28.699  -0.026  30.765  0.00  0.00    +0.064 C 
ATOM     14  C   UNL A   1     -29.699   0.458  30.720  0.00  0.00    -0.005 C 
BRANCH  14  15
ATOM     15  C   UNL A   1     -29.795   1.647  29.785  0.00  0.00    +0.054 C 
BRANCH  15  16
ATOM     16  C   UNL A   1     -28.970   2.607  29.962  0.00  0.00    -0.018 A 
ATOM     17  C   UNL A   1     -29.040   3.370  31.227  0.00  0.00    -0.004 A 
ATOM     18  C   UNL A   1     -28.021   4.244  31.514  0.00  0.00    -0.000 A 
ATOM     19  C   UNL A   1     -28.057   3.196  29.025  0.00  0.00    -0.004 A 
ATOM     20  C   UNL A   1     -27.146   4.265  29.273  0.00  0.00    -0.000 A 
ATOM     21  C   UNL A   1     -27.168   4.825  30.564  0.00  0.00    -0.000 A 
ENDBRANCH  15  16
ENDBRANCH  14  15
ENDBRANCH   4  13
TORSDOF 3
