MODEL 98
MODEL 1
REMARK VINA RESULT:    -8.428      0.000      0.000
REMARK INTER + INTRA:         -11.473
REMARK INTER:                 -10.398
REMARK INTRA:                  -1.074
REMARK UNBOUND:                -1.074
REMARK  Name = No_98-gen_results/8p0m/2024-11-26-14-13-15/
REMARK  4 active torsions:
REMARK  status: ('A' for Active; 'I' for Inactive)
REMARK    1  A    between atoms: C_1  and  O_23
REMARK    2  A    between atoms: C_5  and  C_17
REMARK    3  A    between atoms: O_23  and  C_24
REMARK    4  A    between atoms: C_24  and  C_25
REMARK                            x       y       z     vdW  Elec       q    Type
REMARK                         _______ _______ _______ _____ _____    ______ ____
ROOT
ATOM      1  C   UNL A   1     -11.684   1.707  36.560  0.00  0.00    +0.142 A 
ATOM      2  C   UNL A   1     -12.654   2.229  37.059  0.00  0.00    +0.069 A 
ATOM      3  C   UNL A   1     -13.754   2.698  36.363  0.00  0.00    +0.006 A 
ATOM      4  C   UNL A   1     -13.749   2.522  34.948  0.00  0.00    +0.007 A 
ATOM      5  C   UNL A   1     -12.738   1.801  34.437  0.00  0.00    +0.083 A 
ATOM      6  C   UNL A   1     -11.764   1.358  35.178  0.00  0.00    +0.044 A 
ATOM      7  C   UNL A   1     -14.873   3.466  37.017  0.00  0.00    -0.000 A 
ATOM      8  C   UNL A   1     -14.527   4.012  38.195  0.00  0.00    +0.009 A 
ATOM      9  C   UNL A   1     -13.408   3.582  38.966  0.00  0.00    +0.107 C 
ATOM     10  C   UNL A   1     -12.506   2.802  38.460  0.00  0.00    +0.181 C 
ATOM     11  C   UNL A   1     -15.650   4.750  38.974  0.00  0.00    +0.133 A 
ATOM     12  N   UNL A   1     -16.867   4.852  38.518  0.00  0.00    -0.239 NA
ATOM     13  C   UNL A   1     -15.430   5.320  40.276  0.00  0.00    +0.282 C 
ATOM     14  N   UNL A   1     -14.362   5.159  40.967  0.00  0.00    -0.200 NA
ATOM     15  C   UNL A   1     -13.281   4.381  40.330  0.00  0.00    +0.128 C 
ATOM     16  O   UNL A   1     -11.495   2.436  39.191  0.00  0.00    -0.291 OA
ATOM     17  O   UNL A   1     -16.348   6.001  40.870  0.00  0.00    -0.267 OA
ATOM     18  C   UNL A   1     -16.065   3.719  36.250  0.00  0.00    +0.020 A 
ATOM     19  C   UNL A   1     -17.084   4.467  37.121  0.00  0.00    +0.099 A 
ENDROOT
BRANCH   5  20
ATOM     20  C   UNL A   1     -12.791   1.479  32.980  0.00  0.00    +0.388 C 
ATOM     21  O   UNL A   1     -12.006   0.977  32.385  0.00  0.00    -0.241 OA
ATOM     22  O   UNL A   1     -13.774   2.192  32.295  0.00  0.00    -0.241 OA
ENDBRANCH   5  20
BRANCH   1  23
ATOM     23  O   UNL A   1     -10.586   1.216  37.165  0.00  0.00    -0.470 OA
BRANCH  23  24
ATOM     24  C   UNL A   1     -10.184  -0.091  37.115  0.00  0.00    +0.232 C 
BRANCH  24  25
ATOM     25  C   UNL A   1     -10.626  -0.872  38.035  0.00  0.00    +0.021 A 
ATOM     26  C   UNL A   1     -11.499  -1.888  37.658  0.00  0.00    -0.001 A 
ATOM     27  C   UNL A   1     -12.204  -2.650  38.614  0.00  0.00    -0.000 A 
ATOM     28  C   UNL A   1     -11.830  -2.548  39.976  0.00  0.00    -0.000 A 
ATOM     29  C   UNL A   1     -10.917  -1.524  40.374  0.00  0.00    -0.000 A 
ATOM     30  C   UNL A   1     -10.362  -0.716  39.387  0.00  0.00    -0.001 A 
ENDBRANCH  24  25
ENDBRANCH  23  24
ENDBRANCH   1  23
TORSDOF 4
ENDMDL
ENDMDL
