REMARK  Name = No_99-gen_results/8p0m/2024-11-26-14-13-15/
REMARK  2 active torsions:
REMARK  status: ('A' for Active; 'I' for Inactive)
REMARK    1  A    between atoms: C_3  and  C_9
REMARK    2  A    between atoms: C_9  and  C_15
REMARK                            x       y       z     vdW  Elec       q    Type
REMARK                         _______ _______ _______ _____ _____    ______ ____
ROOT
ATOM      1  C   UNL A   1     -25.749   2.010  28.575  0.00  0.00    +0.040 C 
ATOM      2  C   UNL A   1     -24.622   1.885  29.311  0.00  0.00    +0.008 C 
ATOM      3  C   UNL A   1     -23.304   1.911  28.595  0.00  0.00    +0.001 C 
ATOM      4  C   UNL A   1     -23.311   2.276  27.208  0.00  0.00    +0.000 C 
ATOM      5  C   UNL A   1     -24.558   2.501  26.588  0.00  0.00    +0.001 C 
ATOM      6  C   UNL A   1     -25.577   1.928  27.077  0.00  0.00    +0.008 C 
ENDROOT
BRANCH   1   9
ATOM      7  C   UNL A   1     -28.016  -0.814  28.878  0.00  0.00    +0.030 A 
ATOM      8  C   UNL A   1     -27.064  -0.119  28.608  0.00  0.00    +0.137 A 
ATOM      9  C   UNL A   1     -26.929   1.171  29.008  0.00  0.00    +0.009 A 
ATOM     10  C   UNL A   1     -27.956   1.741  29.784  0.00  0.00    +0.010 A 
ATOM     11  C   UNL A   1     -29.057  -0.327  29.747  0.00  0.00    +0.014 A 
ATOM     12  C   UNL A   1     -28.983   0.972  30.152  0.00  0.00    +0.058 A 
ATOM     13  F   UNL A   1     -26.028  -0.594  27.871  0.00  0.00    -0.204 F 
ATOM     14 CL   UNL A   1     -30.242   1.580  31.148  0.00  0.00    -0.082 Cl
ENDBRANCH   1   9
BRANCH   1  15
ATOM     15  C   UNL A   1     -26.110   3.595  28.886  0.00  0.00    -0.019 A 
ATOM     16  C   UNL A   1     -25.816   4.093  30.012  0.00  0.00    -0.004 A 
ATOM     17  C   UNL A   1     -26.161   5.467  30.274  0.00  0.00    -0.000 A 
ATOM     18  C   UNL A   1     -26.699   6.207  29.207  0.00  0.00    -0.000 A 
ATOM     19  C   UNL A   1     -26.741   4.363  27.896  0.00  0.00    -0.004 A 
ATOM     20  C   UNL A   1     -27.051   5.639  28.069  0.00  0.00    -0.000 A 
ENDBRANCH   1  15
TORSDOF 2
