REMARK  Name = No_990-gen_results/8p0m/2024-11-26-14-13-15/
REMARK  3 active torsions:
REMARK  status: ('A' for Active; 'I' for Inactive)
REMARK    1  A    between atoms: C_5  and  C_8
REMARK    2  A    between atoms: C_9  and  C_10
REMARK    3  A    between atoms: C_10  and  C_12
REMARK                            x       y       z     vdW  Elec       q    Type
REMARK                         _______ _______ _______ _____ _____    ______ ____
ROOT
ATOM      1  F   UNL A   1     -28.073  -1.254  28.532  0.00  0.00    -0.204 F 
ATOM      2  C   UNL A   1     -27.359  -0.379  28.722  0.00  0.00    +0.140 A 
ATOM      3  C   UNL A   1     -27.701   0.761  29.125  0.00  0.00    +0.030 A 
ATOM      4  C   UNL A   1     -25.884  -0.692  28.437  0.00  0.00    +0.030 A 
ATOM      5  C   UNL A   1     -24.921   0.378  28.601  0.00  0.00    +0.002 A 
ATOM      6  C   UNL A   1     -26.696   1.878  29.278  0.00  0.00    +0.002 A 
ATOM      7  C   UNL A   1     -25.321   1.617  29.014  0.00  0.00    +0.000 A 
ENDROOT
BRANCH   5   8
ATOM      8  C   UNL A   1     -23.510   0.154  28.367  0.00  0.00    -0.008 C 
ATOM      9  C   UNL A   1     -22.627   0.331  29.113  0.00  0.00    -0.041 C 
ATOM     10  C   UNL A   1     -23.154   0.134  30.569  0.00  0.00    +0.026 C 
BRANCH   9  11
ATOM     11  C   UNL A   1     -21.390   0.409  29.274  0.00  0.00    +0.058 C 
BRANCH  11  12
ATOM     12  C   UNL A   1     -20.648  -0.497  28.800  0.00  0.00    +0.186 C 
ATOM     13  O   UNL A   1     -21.093  -1.676  28.822  0.00  0.00    -0.220 OA
ENDBRANCH  11  12
ENDBRANCH   9  11
ENDBRANCH   5   8
TORSDOF 3
