MODEL 990
MODEL 1
REMARK VINA RESULT:    -5.507      0.000      0.000
REMARK INTER + INTRA:          -6.475
REMARK INTER:                  -6.473
REMARK INTRA:                  -0.003
REMARK UNBOUND:                -0.003
REMARK  Name = No_990-gen_results/8p0m/2024-11-26-14-13-15/
REMARK  3 active torsions:
REMARK  status: ('A' for Active; 'I' for Inactive)
REMARK    1  A    between atoms: C_5  and  C_8
REMARK    2  A    between atoms: C_9  and  C_10
REMARK    3  A    between atoms: C_10  and  C_12
REMARK                            x       y       z     vdW  Elec       q    Type
REMARK                         _______ _______ _______ _____ _____    ______ ____
ROOT
ATOM      1  F   UNL A   1     -27.504  -4.029  30.417  0.00  0.00    -0.204 F 
ATOM      2  C   UNL A   1     -26.472  -4.004  29.921  0.00  0.00    +0.140 A 
ATOM      3  C   UNL A   1     -25.903  -4.986  29.381  0.00  0.00    +0.030 A 
ATOM      4  C   UNL A   1     -25.784  -2.633  29.958  0.00  0.00    +0.030 A 
ATOM      5  C   UNL A   1     -24.452  -2.528  29.399  0.00  0.00    +0.002 A 
ATOM      6  C   UNL A   1     -24.508  -4.876  28.815  0.00  0.00    +0.002 A 
ATOM      7  C   UNL A   1     -23.843  -3.617  28.842  0.00  0.00    +0.000 A 
ENDROOT
BRANCH   5   8
ATOM      8  C   UNL A   1     -23.747  -1.264  29.383  0.00  0.00    -0.008 C 
ATOM      9  C   UNL A   1     -23.644  -0.516  28.490  0.00  0.00    -0.041 C 
ATOM     10  C   UNL A   1     -24.906  -0.647  27.580  0.00  0.00    +0.026 C 
BRANCH   9  11
ATOM     11  C   UNL A   1     -23.075   0.498  28.031  0.00  0.00    +0.058 C 
BRANCH  11  12
ATOM     12  C   UNL A   1     -23.763   1.524  27.765  0.00  0.00    +0.186 C 
ATOM     13  O   UNL A   1     -23.151   2.623  27.687  0.00  0.00    -0.220 OA
ENDBRANCH  11  12
ENDBRANCH   9  11
ENDBRANCH   5   8
TORSDOF 3
ENDMDL
ENDMDL
