REMARK  Name = No_991-gen_results/8p0m/2024-11-26-14-13-15/
REMARK  7 active torsions:
REMARK  status: ('A' for Active; 'I' for Inactive)
REMARK    1  A    between atoms: C_5  and  C_18
REMARK    2  A    between atoms: C_8  and  C_9
REMARK    3  A    between atoms: C_9  and  N_13
REMARK    4  A    between atoms: N_13  and  C_14
REMARK    5  A    between atoms: C_14  and  C_15
REMARK    6  A    between atoms: N_19  and  C_20
REMARK    7  A    between atoms: N_19  and  C_21
REMARK                            x       y       z     vdW  Elec       q    Type
REMARK                         _______ _______ _______ _____ _____    ______ ____
ROOT
ATOM      1  O   UNL A   1     -28.123  -1.335  28.487  0.00  0.00    -0.273 OA
ATOM      2  C   UNL A   1     -27.064  -0.824  28.869  0.00  0.00    +0.250 C 
ATOM      3  N   UNL A   1     -25.977  -1.138  28.814  0.00  0.00    -0.205 NA
ATOM      4  C   UNL A   1     -24.767  -0.346  29.163  0.00  0.00    +0.113 C 
ATOM      5  C   UNL A   1     -27.196   0.655  29.591  0.00  0.00    +0.157 C 
ATOM      6  C   UNL A   1     -24.953   0.845  29.759  0.00  0.00    +0.094 C 
ATOM      7  C   UNL A   1     -26.188   1.339  29.906  0.00  0.00    +0.037 C 
ATOM      8  C   UNL A   1     -23.412  -0.908  29.001  0.00  0.00    +0.040 C 
ATOM      9  C   UNL A   1     -22.375   0.123  28.650  0.00  0.00    +0.022 C 
ATOM     10  C   UNL A   1     -22.618   1.445  28.345  0.00  0.00    +0.089 C 
ATOM     11  N   UNL A   1     -23.788   2.014  28.860  0.00  0.00    -0.218 NA
ENDROOT
BRANCH   5  12
ATOM     12  C   UNL A   1     -28.683   1.013  29.704  0.00  0.00    +0.241 C 
ATOM     13  N   UNL A   1     -29.320   0.818  30.618  0.00  0.00    -0.237 N 
ATOM     14  O   UNL A   1     -29.088   1.676  28.611  0.00  0.00    -0.274 OA
BRANCH  13  15
ATOM     15  C   UNL A   1     -28.884   0.885  31.814  0.00  0.00    +0.058 A 
ATOM     16  C   UNL A   1     -28.956   1.878  32.553  0.00  0.00    +0.015 A 
ATOM     17  C   UNL A   1     -28.352   2.005  33.858  0.00  0.00    +0.001 A 
ATOM     18  C   UNL A   1     -27.700   0.898  34.439  0.00  0.00    +0.000 A 
ATOM     19  C   UNL A   1     -28.078  -0.292  32.453  0.00  0.00    +0.015 A 
ATOM     20  C   UNL A   1     -27.558  -0.228  33.707  0.00  0.00    +0.001 A 
ENDBRANCH  13  15
BRANCH  13  21
ATOM     21  C   UNL A   1     -30.703   0.334  30.472  0.00  0.00    +0.058 A 
ATOM     22  C   UNL A   1     -30.896  -0.861  30.151  0.00  0.00    +0.015 A 
ATOM     23  C   UNL A   1     -31.860  -1.395  30.355  0.00  0.00    +0.001 A 
ATOM     24  C   UNL A   1     -33.057  -0.727  30.699  0.00  0.00    +0.000 A 
ATOM     25  C   UNL A   1     -32.918   0.608  31.035  0.00  0.00    +0.001 A 
ATOM     26  C   UNL A   1     -31.673   1.174  31.049  0.00  0.00    +0.015 A 
ENDBRANCH  13  21
ENDBRANCH   5  12
BRANCH   8  27
ATOM     27  C   UNL A   1     -23.058  -2.111  29.044  0.00  0.00    +0.091 C 
BRANCH  27  28
ATOM     28  N   UNL A   1     -23.974  -3.013  29.410  0.00  0.00    -0.207 NA
BRANCH  28  29
ATOM     29  C   UNL A   1     -24.339  -4.122  28.634  0.00  0.00    +0.203 C 
BRANCH  29  30
ATOM     30  C   UNL A   1     -25.348  -4.969  29.370  0.00  0.00    +0.382 C 
ATOM     31  O   UNL A   1     -25.487  -6.082  29.254  0.00  0.00    -0.244 OA
ATOM     32  O   UNL A   1     -26.264  -4.264  30.044  0.00  0.00    -0.244 OA
ENDBRANCH  29  30
ENDBRANCH  28  29
ENDBRANCH  27  28
ENDBRANCH   8  27
TORSDOF 7
