MODEL 991
MODEL 1
REMARK VINA RESULT:    -6.840      0.000      0.000
REMARK INTER + INTRA:         -11.224
REMARK INTER:                  -9.639
REMARK INTRA:                  -1.585
REMARK UNBOUND:                -1.585
REMARK  Name = No_991-gen_results/8p0m/2024-11-26-14-13-15/
REMARK  7 active torsions:
REMARK  status: ('A' for Active; 'I' for Inactive)
REMARK    1  A    between atoms: C_5  and  C_18
REMARK    2  A    between atoms: C_8  and  C_9
REMARK    3  A    between atoms: C_9  and  N_13
REMARK    4  A    between atoms: N_13  and  C_14
REMARK    5  A    between atoms: C_14  and  C_15
REMARK    6  A    between atoms: N_19  and  C_20
REMARK    7  A    between atoms: N_19  and  C_21
REMARK                            x       y       z     vdW  Elec       q    Type
REMARK                         _______ _______ _______ _____ _____    ______ ____
ROOT
ATOM      1  O   UNL A   1     -27.293 -11.550   7.835  0.00  0.00    -0.273 OA
ATOM      2  C   UNL A   1     -28.125 -12.031   8.613  0.00  0.00    +0.250 C 
ATOM      3  N   UNL A   1     -28.555 -13.070   8.757  0.00  0.00    -0.205 NA
ATOM      4  C   UNL A   1     -29.434 -13.563   9.851  0.00  0.00    +0.113 C 
ATOM      5  C   UNL A   1     -28.755 -10.992   9.730  0.00  0.00    +0.157 C 
ATOM      6  C   UNL A   1     -29.918 -12.656  10.717  0.00  0.00    +0.094 C 
ATOM      7  C   UNL A   1     -29.509 -11.383  10.658  0.00  0.00    +0.037 C 
ATOM      8  C   UNL A   1     -29.881 -14.968   9.898  0.00  0.00    +0.040 C 
ATOM      9  C   UNL A   1     -30.064 -15.491  11.296  0.00  0.00    +0.022 C 
ATOM     10  C   UNL A   1     -29.722 -14.833  12.458  0.00  0.00    +0.089 C 
ATOM     11  N   UNL A   1     -29.673 -13.436  12.410  0.00  0.00    -0.218 NA
ENDROOT
BRANCH   5  12
ATOM     12  C   UNL A   1     -28.198  -9.588   9.461  0.00  0.00    +0.241 C 
ATOM     13  N   UNL A   1     -28.783  -8.752   8.972  0.00  0.00    -0.237 N 
ATOM     14  O   UNL A   1     -26.966  -9.468   9.975  0.00  0.00    -0.274 OA
BRANCH  13  15
ATOM     15  C   UNL A   1     -30.034  -8.573   9.133  0.00  0.00    +0.058 A 
ATOM     16  C   UNL A   1     -30.564  -8.003  10.098  0.00  0.00    +0.015 A 
ATOM     17  C   UNL A   1     -31.982  -7.911  10.351  0.00  0.00    +0.001 A 
ATOM     18  C   UNL A   1     -32.897  -8.402   9.398  0.00  0.00    +0.000 A 
ATOM     19  C   UNL A   1     -31.077  -9.185   8.141  0.00  0.00    +0.015 A 
ATOM     20  C   UNL A   1     -32.418  -9.054   8.316  0.00  0.00    +0.001 A 
ENDBRANCH  13  15
BRANCH  13  21
ATOM     21  C   UNL A   1     -28.135  -7.867   7.989  0.00  0.00    +0.058 A 
ATOM     22  C   UNL A   1     -27.673  -6.769   8.374  0.00  0.00    +0.015 A 
ATOM     23  C   UNL A   1     -26.883  -6.212   7.807  0.00  0.00    +0.001 A 
ATOM     24  C   UNL A   1     -26.544  -6.502   6.466  0.00  0.00    +0.000 A 
ATOM     25  C   UNL A   1     -27.050  -7.689   5.967  0.00  0.00    +0.001 A 
ATOM     26  C   UNL A   1     -27.792  -8.500   6.780  0.00  0.00    +0.015 A 
ENDBRANCH  13  21
ENDBRANCH   5  12
BRANCH   8  27
ATOM     27  C   UNL A   1     -30.043 -15.766   8.943  0.00  0.00    +0.091 C 
BRANCH  27  28
ATOM     28  N   UNL A   1     -29.051 -16.622   8.677  0.00  0.00    -0.207 NA
BRANCH  28  29
ATOM     29  C   UNL A   1     -28.189 -16.509   7.577  0.00  0.00    +0.203 C 
BRANCH  29  30
ATOM     30  C   UNL A   1     -26.791 -16.177   8.038  0.00  0.00    +0.382 C 
ATOM     31  O   UNL A   1     -26.289 -16.573   8.966  0.00  0.00    -0.244 OA
ATOM     32  O   UNL A   1     -26.222 -15.167   7.369  0.00  0.00    -0.244 OA
ENDBRANCH  29  30
ENDBRANCH  28  29
ENDBRANCH  27  28
ENDBRANCH   8  27
TORSDOF 7
ENDMDL
ENDMDL
