REMARK  Name = No_992-gen_results/8p0m/2024-11-26-14-13-15/
REMARK  0 active torsions:
REMARK  status: ('A' for Active; 'I' for Inactive)
REMARK                            x       y       z     vdW  Elec       q    Type
REMARK                         _______ _______ _______ _____ _____    ______ ____
ROOT
ATOM      1  C   UNL A   1     -28.016  -0.814  28.878  0.00  0.00    +0.000 A 
ATOM      2  C   UNL A   1     -28.469  -0.785  29.829  0.00  0.00    +0.000 A 
ATOM      3  C   UNL A   1     -27.087   0.290  28.638  0.00  0.00    +0.002 A 
ATOM      4  C   UNL A   1     -26.832   1.249  29.587  0.00  0.00    +0.028 A 
ATOM      5  C   UNL A   1     -28.329  -0.040  30.836  0.00  0.00    +0.000 A 
ATOM      6  C   UNL A   1     -27.494   1.062  30.793  0.00  0.00    +0.002 A 
ATOM      7  C   UNL A   1     -26.322   0.430  27.343  0.00  0.00    +0.000 A 
ATOM      8  C   UNL A   1     -25.541   1.613  27.178  0.00  0.00    +0.002 A 
ATOM      9  C   UNL A   1     -25.333   2.496  28.191  0.00  0.00    +0.030 A 
ATOM     10  C   UNL A   1     -25.997   2.379  29.391  0.00  0.00    +0.140 A 
ATOM     11  F   UNL A   1     -25.778   3.279  30.335  0.00  0.00    -0.204 F 
ENDROOT
TORSDOF 0
