MODEL 992
MODEL 1
REMARK VINA RESULT:    -5.671      0.000      0.000
REMARK INTER + INTRA:          -5.671
REMARK INTER:                  -5.671
REMARK INTRA:                   0.000
REMARK UNBOUND:                 0.000
REMARK  Name = No_992-gen_results/8p0m/2024-11-26-14-13-15/
REMARK  0 active torsions:
REMARK  status: ('A' for Active; 'I' for Inactive)
REMARK                            x       y       z     vdW  Elec       q    Type
REMARK                         _______ _______ _______ _____ _____    ______ ____
ROOT
ATOM      1  C   UNL A   1     -26.351  -4.463  29.780  0.00  0.00    +0.000 A 
ATOM      2  C   UNL A   1     -25.761  -5.219  29.343  0.00  0.00    +0.000 A 
ATOM      3  C   UNL A   1     -25.699  -3.154  29.806  0.00  0.00    +0.002 A 
ATOM      4  C   UNL A   1     -24.444  -2.953  29.285  0.00  0.00    +0.028 A 
ATOM      5  C   UNL A   1     -24.638  -5.224  28.771  0.00  0.00    +0.000 A 
ATOM      6  C   UNL A   1     -23.871  -4.075  28.704  0.00  0.00    +0.002 A 
ATOM      7  C   UNL A   1     -26.375  -1.931  30.379  0.00  0.00    +0.000 A 
ATOM      8  C   UNL A   1     -25.593  -0.739  30.461  0.00  0.00    +0.002 A 
ATOM      9  C   UNL A   1     -24.362  -0.635  29.894  0.00  0.00    +0.030 A 
ATOM     10  C   UNL A   1     -23.732  -1.727  29.342  0.00  0.00    +0.140 A 
ATOM     11  F   UNL A   1     -22.524  -1.577  28.825  0.00  0.00    -0.204 F 
ENDROOT
TORSDOF 0
ENDMDL
ENDMDL
