REMARK  Name = No_993-gen_results/8p0m/2024-11-26-14-13-15/
REMARK  3 active torsions:
REMARK  status: ('A' for Active; 'I' for Inactive)
REMARK    1  A    between atoms: C_2  and  C_7
REMARK    2  A    between atoms: C_7  and  N_8
REMARK    3  A    between atoms: C_12  and  C_13
REMARK                            x       y       z     vdW  Elec       q    Type
REMARK                         _______ _______ _______ _____ _____    ______ ____
ROOT
ATOM      1  N   UNL A   1     -24.642  -0.300  28.153  0.00  0.00    -0.300 N 
ATOM      2  C   UNL A   1     -23.946  -1.112  28.987  0.00  0.00    +0.057 C 
ATOM      3  C   UNL A   1     -22.622  -0.626  29.363  0.00  0.00    -0.008 C 
ATOM      4  C   UNL A   1     -22.427   0.622  28.632  0.00  0.00    +0.052 C 
ATOM      5  C   UNL A   1     -23.856   0.809  27.897  0.00  0.00    +0.099 C 
ENDROOT
BRANCH   5   6
ATOM      6  C   UNL A   1     -24.026   1.909  27.040  0.00  0.00    -0.011 C 
ATOM      7  C   UNL A   1     -24.764   2.981  27.375  0.00  0.00    -0.029 C 
ATOM      8  C   UNL A   1     -24.915   4.091  26.436  0.00  0.00    +0.030 C 
ENDBRANCH   5   6
BRANCH   1   9
ATOM      9  C   UNL A   1     -25.881  -0.626  27.794  0.00  0.00    +0.118 C 
BRANCH   9  11
ATOM     10  C   UNL A   1     -28.016  -0.814  28.878  0.00  0.00    -0.003 A 
ATOM     11  C   UNL A   1     -27.064  -0.119  28.608  0.00  0.00    -0.002 A 
ATOM     12  C   UNL A   1     -26.929   1.171  29.008  0.00  0.00    -0.003 A 
ATOM     13  C   UNL A   1     -27.956   1.741  29.784  0.00  0.00    -0.000 A 
ATOM     14  C   UNL A   1     -29.057  -0.327  29.747  0.00  0.00    -0.000 A 
ATOM     15  C   UNL A   1     -28.983   0.972  30.152  0.00  0.00    -0.000 A 
ENDBRANCH   9  11
ENDBRANCH   1   9
TORSDOF 3
