MODEL 993
MODEL 1
REMARK VINA RESULT:    -6.585      0.000      0.000
REMARK INTER + INTRA:          -8.327
REMARK INTER:                  -7.740
REMARK INTRA:                  -0.587
REMARK UNBOUND:                -0.587
REMARK  Name = No_993-gen_results/8p0m/2024-11-26-14-13-15/
REMARK  3 active torsions:
REMARK  status: ('A' for Active; 'I' for Inactive)
REMARK    1  A    between atoms: C_2  and  C_7
REMARK    2  A    between atoms: C_7  and  N_8
REMARK    3  A    between atoms: C_12  and  C_13
REMARK                            x       y       z     vdW  Elec       q    Type
REMARK                         _______ _______ _______ _____ _____    ______ ____
ROOT
ATOM      1  N   UNL A   1     -23.829  -0.312  28.862  0.00  0.00    -0.300 N 
ATOM      2  C   UNL A   1     -22.642   0.269  29.169  0.00  0.00    +0.057 C 
ATOM      3  C   UNL A   1     -22.114   1.174  28.152  0.00  0.00    -0.008 C 
ATOM      4  C   UNL A   1     -23.052   1.118  27.035  0.00  0.00    +0.052 C 
ATOM      5  C   UNL A   1     -24.213   0.154  27.618  0.00  0.00    +0.099 C 
ENDROOT
BRANCH   5   6
ATOM      6  C   UNL A   1     -25.289  -0.177  26.777  0.00  0.00    -0.011 C 
ATOM      7  C   UNL A   1     -25.359   0.228  25.497  0.00  0.00    -0.029 C 
ATOM      8  C   UNL A   1     -26.510  -0.137  24.674  0.00  0.00    +0.030 C 
ENDBRANCH   5   6
BRANCH   1   9
ATOM      9  C   UNL A   1     -24.421  -1.112  29.745  0.00  0.00    +0.118 C 
BRANCH   9  11
ATOM     10  C   UNL A   1     -23.839  -3.238  28.793  0.00  0.00    -0.003 A 
ATOM     11  C   UNL A   1     -24.646  -2.579  29.407  0.00  0.00    -0.002 A 
ATOM     12  C   UNL A   1     -25.821  -3.067  29.879  0.00  0.00    -0.003 A 
ATOM     13  C   UNL A   1     -26.127  -4.421  29.641  0.00  0.00    -0.000 A 
ATOM     14  C   UNL A   1     -24.042  -4.651  28.597  0.00  0.00    -0.000 A 
ATOM     15  C   UNL A   1     -25.221  -5.183  29.026  0.00  0.00    -0.000 A 
ENDBRANCH   9  11
ENDBRANCH   1   9
TORSDOF 3
ENDMDL
ENDMDL
