REMARK  Name = No_994-gen_results/8p0m/2024-11-26-14-13-15/
REMARK  5 active torsions:
REMARK  status: ('A' for Active; 'I' for Inactive)
REMARK    1  A    between atoms: C_2  and  C_23
REMARK    2  A    between atoms: C_3  and  C_7
REMARK    3  A    between atoms: C_6  and  C_12
REMARK    4  A    between atoms: N_8  and  C_10
REMARK    5  A    between atoms: C_15  and  C_16
REMARK                            x       y       z     vdW  Elec       q    Type
REMARK                         _______ _______ _______ _____ _____    ______ ____
ROOT
ATOM      1  C   UNL A   1     -27.329   0.249  26.820  0.00  0.00    +0.253 C 
ATOM      2  N   UNL A   1     -27.712   0.548  25.745  0.00  0.00    -0.253 N 
ATOM      3  O   UNL A   1     -26.049  -0.035  26.943  0.00  0.00    -0.270 OA
ATOM      4  C   UNL A   1     -27.012  -0.134  24.622  0.00  0.00    +0.120 C 
ENDROOT
BRANCH   1   7
ATOM      5  C   UNL A   1     -28.016  -0.814  28.878  0.00  0.00    +0.011 A 
ATOM      6  C   UNL A   1     -28.469  -0.785  29.829  0.00  0.00    +0.080 A 
ATOM      7  C   UNL A   1     -28.196   0.348  28.055  0.00  0.00    +0.054 A 
ATOM      8  C   UNL A   1     -29.019   1.350  28.378  0.00  0.00    +0.011 A 
ATOM      9  C   UNL A   1     -29.411   0.180  30.378  0.00  0.00    +0.013 A 
ATOM     10  C   UNL A   1     -29.606   1.250  29.619  0.00  0.00    +0.080 A 
BRANCH  10  11
ATOM     11  C   UNL A   1     -30.543   2.347  30.013  0.00  0.00    +0.388 C 
ATOM     12  O   UNL A   1     -30.294   3.063  30.900  0.00  0.00    -0.241 OA
ATOM     13  O   UNL A   1     -31.716   2.256  29.456  0.00  0.00    -0.241 OA
ENDBRANCH  10  11
BRANCH   6  14
ATOM     14  C   UNL A   1     -28.411  -2.038  30.871  0.00  0.00    +0.388 C 
ATOM     15  O   UNL A   1     -28.231  -2.029  31.910  0.00  0.00    -0.241 OA
ATOM     16  O   UNL A   1     -28.530  -3.273  30.182  0.00  0.00    -0.241 OA
ENDBRANCH   6  14
ENDBRANCH   1   7
BRANCH   2  17
ATOM     17  C   UNL A   1     -29.069   0.891  25.416  0.00  0.00    +0.064 C 
ATOM     18  C   UNL A   1     -29.743   0.282  24.359  0.00  0.00    -0.007 C 
ATOM     19  C   UNL A   1     -30.259   1.413  23.482  0.00  0.00    +0.032 C 
BRANCH  18  20
ATOM     20  C   UNL A   1     -30.548  -0.748  24.636  0.00  0.00    -0.002 A 
ATOM     21  C   UNL A   1     -30.951  -1.105  25.916  0.00  0.00    +0.011 A 
ATOM     22  C   UNL A   1     -31.928  -2.051  26.204  0.00  0.00    +0.058 A 
ATOM     23  C   UNL A   1     -32.377  -2.802  25.101  0.00  0.00    +0.011 A 
ATOM     24  C   UNL A   1     -32.037  -2.528  23.809  0.00  0.00    +0.001 A 
ATOM     25  C   UNL A   1     -31.185  -1.499  23.604  0.00  0.00    -0.000 A 
ATOM     26 CL   UNL A   1     -32.389  -2.480  27.791  0.00  0.00    -0.082 Cl
ENDBRANCH  18  20
ENDBRANCH   2  17
TORSDOF 5
