MODEL 994
MODEL 1
REMARK VINA RESULT:    -7.750      0.000      0.000
REMARK INTER + INTRA:         -11.020
REMARK INTER:                 -10.016
REMARK INTRA:                  -1.004
REMARK UNBOUND:                -1.004
REMARK  Name = No_994-gen_results/8p0m/2024-11-26-14-13-15/
REMARK  5 active torsions:
REMARK  status: ('A' for Active; 'I' for Inactive)
REMARK    1  A    between atoms: C_2  and  C_23
REMARK    2  A    between atoms: C_3  and  C_7
REMARK    3  A    between atoms: C_6  and  C_12
REMARK    4  A    between atoms: N_8  and  C_10
REMARK    5  A    between atoms: C_15  and  C_16
REMARK                            x       y       z     vdW  Elec       q    Type
REMARK                         _______ _______ _______ _____ _____    ______ ____
ROOT
ATOM      1  C   UNL A   1     -22.040   0.555  28.468  0.00  0.00    +0.253 C 
ATOM      2  N   UNL A   1     -22.423   1.544  27.951  0.00  0.00    -0.253 N 
ATOM      3  O   UNL A   1     -20.768   0.250  28.309  0.00  0.00    -0.270 OA
ATOM      4  C   UNL A   1     -21.757   1.871  26.660  0.00  0.00    +0.120 C 
ENDROOT
BRANCH   1   7
ATOM      5  C   UNL A   1     -23.236  -1.513  28.826  0.00  0.00    +0.011 A 
ATOM      6  C   UNL A   1     -23.712  -2.211  29.456  0.00  0.00    +0.080 A 
ATOM      7  C   UNL A   1     -22.891  -0.254  29.421  0.00  0.00    +0.054 A 
ATOM      8  C   UNL A   1     -23.284   0.106  30.646  0.00  0.00    +0.011 A 
ATOM      9  C   UNL A   1     -24.246  -2.033  30.799  0.00  0.00    +0.013 A 
ATOM     10  C   UNL A   1     -23.955  -0.864  31.355  0.00  0.00    +0.080 A 
BRANCH  10  11
ATOM     11  C   UNL A   1     -24.422  -0.496  32.727  0.00  0.00    +0.388 C 
ATOM     12  O   UNL A   1     -25.013   0.492  32.918  0.00  0.00    -0.241 OA
ATOM     13  O   UNL A   1     -23.903  -1.230  33.669  0.00  0.00    -0.241 OA
ENDBRANCH  10  11
BRANCH   6  14
ATOM     14  C   UNL A   1     -24.220  -3.669  28.932  0.00  0.00    +0.388 C 
ATOM     15  O   UNL A   1     -23.713  -4.372  28.333  0.00  0.00    -0.241 OA
ATOM     16  O   UNL A   1     -25.574  -3.891  29.295  0.00  0.00    -0.241 OA
ENDBRANCH   6  14
ENDBRANCH   1   7
BRANCH   2  17
ATOM     17  C   UNL A   1     -23.772   2.040  28.011  0.00  0.00    +0.064 C 
ATOM     18  C   UNL A   1     -24.416   2.550  26.886  0.00  0.00    -0.007 C 
ATOM     19  C   UNL A   1     -24.910   3.935  27.276  0.00  0.00    +0.032 C 
BRANCH  18  20
ATOM     20  C   UNL A   1     -25.226   1.737  26.202  0.00  0.00    -0.002 A 
ATOM     21  C   UNL A   1     -26.418   2.135  25.611  0.00  0.00    +0.011 A 
ATOM     22  C   UNL A   1     -27.173   1.352  24.745  0.00  0.00    +0.058 A 
ATOM     23  C   UNL A   1     -26.760   0.011  24.638  0.00  0.00    +0.011 A 
ATOM     24  C   UNL A   1     -25.607  -0.473  25.182  0.00  0.00    +0.001 A 
ATOM     25  C   UNL A   1     -24.856   0.393  25.898  0.00  0.00    -0.000 A 
ATOM     26 CL   UNL A   1     -28.645   1.865  24.048  0.00  0.00    -0.082 Cl
ENDBRANCH  18  20
ENDBRANCH   2  17
TORSDOF 5
ENDMDL
ENDMDL
