REMARK  Name = No_996-gen_results/8p0m/2024-11-26-14-13-15/
REMARK  7 active torsions:
REMARK  status: ('A' for Active; 'I' for Inactive)
REMARK    1  A    between atoms: C_3  and  C_4
REMARK    2  A    between atoms: C_4  and  C_8
REMARK    3  A    between atoms: C_7  and  C_25
REMARK    4  A    between atoms: C_12  and  C_14
REMARK    5  A    between atoms: C_17  and  C_18
REMARK    6  A    between atoms: C_25  and  C_26
REMARK    7  A    between atoms: C_27  and  C_28
REMARK                            x       y       z     vdW  Elec       q    Type
REMARK                         _______ _______ _______ _____ _____    ______ ____
ROOT
ATOM      1  C   UNL A   1     -25.852   0.368  26.787  0.00  0.00    -0.018 A 
ATOM      2  C   UNL A   1     -24.846   0.788  26.012  0.00  0.00    -0.004 A 
ATOM      3  C   UNL A   1     -24.030   1.749  26.085  0.00  0.00    -0.000 A 
ATOM      4  C   UNL A   1     -24.183   2.688  27.158  0.00  0.00    +0.005 A 
ATOM      5  C   UNL A   1     -25.411   2.714  27.832  0.00  0.00    +0.055 A 
ATOM      6  C   UNL A   1     -26.180   1.740  27.874  0.00  0.00    +0.001 A 
ENDROOT
BRANCH   5   7
ATOM      7  C   UNL A   1     -25.634   3.814  28.777  0.00  0.00    +0.272 C 
ATOM      8  O   UNL A   1     -25.477   3.693  29.934  0.00  0.00    -0.268 OA
ATOM      9  N   UNL A   1     -25.794   5.110  28.182  0.00  0.00    -0.137 NA
ATOM     10  C   UNL A   1     -25.945   6.295  29.029  0.00  0.00    +0.272 C 
ATOM     11  O   UNL A   1     -26.368   7.217  28.202  0.00  0.00    -0.268 OA
BRANCH  10  12
ATOM     12  C   UNL A   1     -25.892   6.342  30.151  0.00  0.00    +0.056 A 
ATOM     13  C   UNL A   1     -26.583   5.723  31.032  0.00  0.00    +0.005 A 
ATOM     14  C   UNL A   1     -26.312   5.936  32.432  0.00  0.00    +0.000 A 
ATOM     15  C   UNL A   1     -25.302   6.802  32.882  0.00  0.00    +0.000 A 
ATOM     16  C   UNL A   1     -24.529   7.438  31.907  0.00  0.00    +0.000 A 
ATOM     17  C   UNL A   1     -24.726   7.239  30.593  0.00  0.00    +0.005 A 
ENDBRANCH  10  12
ENDBRANCH   5   7
BRANCH   1  18
ATOM     18  C   UNL A   1     -25.654  -0.660  27.719  0.00  0.00    +0.044 C 
ATOM     19  C   UNL A   1     -24.837  -1.750  27.392  0.00  0.00    +0.009 C 
BRANCH  18  22
ATOM     20  C   UNL A   1     -28.016  -0.814  28.878  0.00  0.00    -0.004 A 
ATOM     21  C   UNL A   1     -28.469  -0.785  29.829  0.00  0.00    -0.000 A 
ATOM     22  C   UNL A   1     -26.504  -0.778  28.877  0.00  0.00    -0.022 A 
ATOM     23  C   UNL A   1     -28.183  -0.843  30.835  0.00  0.00    -0.000 A 
ATOM     24  C   UNL A   1     -26.757  -0.821  31.226  0.00  0.00    -0.004 A 
ATOM     25  C   UNL A   1     -25.887  -0.794  30.175  0.00  0.00    -0.022 A 
BRANCH  25  26
ATOM     26  C   UNL A   1     -24.476  -0.753  30.363  0.00  0.00    +0.044 C 
ATOM     27  C   UNL A   1     -23.858  -1.986  30.653  0.00  0.00    +0.009 C 
BRANCH  26  28
ATOM     28  C   UNL A   1     -23.738   0.433  30.185  0.00  0.00    -0.027 C 
ATOM     29  C   UNL A   1     -22.334   0.412  30.016  0.00  0.00    -0.030 C 
BRANCH  29  30
ATOM     30  C   UNL A   1     -21.721   1.153  29.098  0.00  0.00    +0.026 C 
ATOM     31  C   UNL A   1     -20.788   0.501  28.117  0.00  0.00    +0.005 C 
ENDBRANCH  29  30
ENDBRANCH  26  28
ENDBRANCH  25  26
ENDBRANCH  18  22
ENDBRANCH   1  18
TORSDOF 7
