MODEL 996
MODEL 1
REMARK VINA RESULT:    -7.459      0.000      0.000
REMARK INTER + INTRA:         -12.150
REMARK INTER:                 -10.512
REMARK INTRA:                  -1.638
REMARK UNBOUND:                -1.638
REMARK  Name = No_996-gen_results/8p0m/2024-11-26-14-13-15/
REMARK  7 active torsions:
REMARK  status: ('A' for Active; 'I' for Inactive)
REMARK    1  A    between atoms: C_3  and  C_4
REMARK    2  A    between atoms: C_4  and  C_8
REMARK    3  A    between atoms: C_7  and  C_25
REMARK    4  A    between atoms: C_12  and  C_14
REMARK    5  A    between atoms: C_17  and  C_18
REMARK    6  A    between atoms: C_25  and  C_26
REMARK    7  A    between atoms: C_27  and  C_28
REMARK                            x       y       z     vdW  Elec       q    Type
REMARK                         _______ _______ _______ _____ _____    ______ ____
ROOT
ATOM      1  C   UNL A   1     -26.213   0.001  27.046  0.00  0.00    -0.018 A 
ATOM      2  C   UNL A   1     -25.604  -0.743  26.116  0.00  0.00    -0.004 A 
ATOM      3  C   UNL A   1     -25.693  -0.813  24.859  0.00  0.00    -0.000 A 
ATOM      4  C   UNL A   1     -26.686  -0.012  24.204  0.00  0.00    +0.005 A 
ATOM      5  C   UNL A   1     -27.726   0.506  24.986  0.00  0.00    +0.055 A 
ATOM      6  C   UNL A   1     -27.622   0.696  26.209  0.00  0.00    +0.001 A 
ENDROOT
BRANCH   5   7
ATOM      7  C   UNL A   1     -28.845   1.138  24.279  0.00  0.00    +0.272 C 
ATOM      8  O   UNL A   1     -29.537   0.548  23.536  0.00  0.00    -0.268 OA
ATOM      9  N   UNL A   1     -29.208   2.444  24.750  0.00  0.00    -0.137 NA
ATOM     10  C   UNL A   1     -30.360   3.141  24.173  0.00  0.00    +0.272 C 
ATOM     11  O   UNL A   1     -30.218   4.374  24.589  0.00  0.00    -0.268 OA
BRANCH  10  12
ATOM     12  C   UNL A   1     -31.079   2.747  23.404  0.00  0.00    +0.056 A 
ATOM     13  C   UNL A   1     -30.986   2.724  22.128  0.00  0.00    +0.005 A 
ATOM     14  C   UNL A   1     -32.046   2.139  21.345  0.00  0.00    +0.000 A 
ATOM     15  C   UNL A   1     -33.193   1.578  21.928  0.00  0.00    +0.000 A 
ATOM     16  C   UNL A   1     -33.261   1.573  23.323  0.00  0.00    +0.000 A 
ATOM     17  C   UNL A   1     -32.279   2.076  24.090  0.00  0.00    +0.005 A 
ENDBRANCH  10  12
ENDBRANCH   5   7
BRANCH   1  18
ATOM     18  C   UNL A   1     -25.606   1.164  27.541  0.00  0.00    +0.044 C 
ATOM     19  C   UNL A   1     -26.361   2.085  28.278  0.00  0.00    +0.009 C 
BRANCH  18  22
ATOM     20  C   UNL A   1     -24.049   2.406  25.815  0.00  0.00    -0.004 A 
ATOM     21  C   UNL A   1     -23.034   2.516  25.554  0.00  0.00    -0.000 A 
ATOM     22  C   UNL A   1     -24.315   1.584  27.056  0.00  0.00    -0.022 A 
ATOM     23  C   UNL A   1     -22.092   2.307  25.964  0.00  0.00    -0.000 A 
ATOM     24  C   UNL A   1     -21.958   1.499  27.195  0.00  0.00    -0.004 A 
ATOM     25  C   UNL A   1     -23.145   1.134  27.760  0.00  0.00    -0.022 A 
BRANCH  25  26
ATOM     26  C   UNL A   1     -23.208   0.340  28.940  0.00  0.00    +0.044 C 
ATOM     27  C   UNL A   1     -23.336   1.048  30.152  0.00  0.00    +0.009 C 
BRANCH  26  28
ATOM     28  C   UNL A   1     -23.226  -1.067  28.888  0.00  0.00    -0.027 C 
ATOM     29  C   UNL A   1     -24.175  -1.822  29.617  0.00  0.00    -0.030 C 
BRANCH  29  30
ATOM     30  C   UNL A   1     -24.817  -2.856  29.082  0.00  0.00    +0.026 C 
ATOM     31  C   UNL A   1     -24.062  -4.113  28.756  0.00  0.00    +0.005 C 
ENDBRANCH  29  30
ENDBRANCH  26  28
ENDBRANCH  25  26
ENDBRANCH  18  22
ENDBRANCH   1  18
TORSDOF 7
ENDMDL
ENDMDL
