REMARK  Name = No_997-gen_results/8p0m/2024-11-26-14-13-15/
REMARK  10 active torsions:
REMARK  status: ('A' for Active; 'I' for Inactive)
REMARK    1  A    between atoms: C_3  and  C_4
REMARK    2  A    between atoms: C_4  and  C_8
REMARK    3  A    between atoms: C_7  and  C_23
REMARK    4  A    between atoms: C_8  and  N_13
REMARK    5  A    between atoms: C_9  and  C_10
REMARK    6  A    between atoms: C_11  and  C_12
REMARK    7  A    between atoms: C_12  and  C_14
REMARK    8  A    between atoms: C_16  and  C_30
REMARK    9  A    between atoms: C_20  and  C_21
REMARK   10  A    between atoms: C_21  and  N_34
REMARK                            x       y       z     vdW  Elec       q    Type
REMARK                         _______ _______ _______ _____ _____    ______ ____
ROOT
ATOM      1  C   UNL A   1     -25.852   0.368  26.787  0.00  0.00    +0.055 C 
ATOM      2  C   UNL A   1     -24.846   0.788  26.012  0.00  0.00    +0.012 C 
ENDROOT
BRANCH   1   3
ATOM      3  N   UNL A   1     -27.118   0.688  26.532  0.00  0.00    -0.182 NA
ATOM      4  C   UNL A   1     -27.640   1.080  25.382  0.00  0.00    +0.263 C 
ATOM      5  O   UNL A   1     -27.009   0.677  24.339  0.00  0.00    -0.271 OA
BRANCH   4   6
ATOM      6  C   UNL A   1     -29.026   1.357  25.218  0.00  0.00    +0.176 C 
BRANCH   6   7
ATOM      7  N   UNL A   1     -29.630   2.236  25.907  0.00  0.00    -0.207 NA
ATOM      8  C   UNL A   1     -30.749   2.307  26.408  0.00  0.00    +0.108 C 
ENDBRANCH   6   7
ENDBRANCH   4   6
ENDBRANCH   1   3
BRANCH   2   9
ATOM      9  C   UNL A   1     -24.030   1.749  26.085  0.00  0.00    -0.003 C 
ATOM     10  C   UNL A   1     -24.183   2.688  27.158  0.00  0.00    -0.021 C 
BRANCH  10  11
ATOM     11  C   UNL A   1     -25.411   2.714  27.832  0.00  0.00    +0.052 C 
BRANCH  11  12
ATOM     12  C   UNL A   1     -25.526   3.673  29.029  0.00  0.00    -0.018 A 
ATOM     13  C   UNL A   1     -26.037   3.025  30.082  0.00  0.00    -0.000 A 
ATOM     14  C   UNL A   1     -25.781   3.564  31.358  0.00  0.00    +0.071 A 
ATOM     15  C   UNL A   1     -25.450   4.909  31.501  0.00  0.00    +0.004 A 
ATOM     16  C   UNL A   1     -25.136   5.599  30.307  0.00  0.00    -0.000 A 
ATOM     17  C   UNL A   1     -25.082   4.931  29.094  0.00  0.00    -0.004 A 
BRANCH  14  18
ATOM     18  C   UNL A   1     -26.331   2.837  32.612  0.00  0.00    +0.419 C 
ATOM     19  F   UNL A   1     -25.943   1.658  32.585  0.00  0.00    -0.166 F 
ATOM     20  F   UNL A   1     -25.738   3.374  33.723  0.00  0.00    -0.166 F 
ATOM     21  F   UNL A   1     -27.619   2.920  32.721  0.00  0.00    -0.166 F 
ENDBRANCH  14  18
ENDBRANCH  11  12
ENDBRANCH  10  11
ENDBRANCH   2   9
BRANCH   1  22
ATOM     22  C   UNL A   1     -25.654  -0.660  27.719  0.00  0.00    +0.069 C 
BRANCH  22  25
ATOM     23  C   UNL A   1     -28.016  -0.814  28.878  0.00  0.00    -0.004 A 
ATOM     24  C   UNL A   1     -28.469  -0.785  29.829  0.00  0.00    -0.000 A 
ATOM     25  C   UNL A   1     -26.504  -0.778  28.877  0.00  0.00    -0.020 A 
ATOM     26  C   UNL A   1     -28.183  -0.843  30.835  0.00  0.00    -0.000 A 
ATOM     27  C   UNL A   1     -26.757  -0.821  31.226  0.00  0.00    -0.004 A 
ATOM     28  C   UNL A   1     -25.887  -0.794  30.175  0.00  0.00    -0.022 A 
BRANCH  28  29
ATOM     29  C   UNL A   1     -24.469  -0.770  30.369  0.00  0.00    +0.044 C 
ATOM     30  C   UNL A   1     -23.877   0.446  30.480  0.00  0.00    -0.027 C 
ATOM     31  C   UNL A   1     -23.787  -1.981  30.235  0.00  0.00    +0.009 C 
ATOM     32  C   UNL A   1     -22.442   0.589  30.167  0.00  0.00    -0.030 C 
ATOM     33  C   UNL A   1     -22.057  -0.062  29.028  0.00  0.00    +0.026 C 
ATOM     34  C   UNL A   1     -21.901  -1.531  29.045  0.00  0.00    +0.005 C 
ATOM     35  C   UNL A   1     -23.003  -2.255  29.293  0.00  0.00    +0.001 C 
ENDBRANCH  28  29
ENDBRANCH  22  25
ENDBRANCH   1  22
TORSDOF 10
