MODEL 998
MODEL 1
REMARK VINA RESULT:    -6.423      0.000      0.000
REMARK INTER + INTRA:          -6.968
REMARK INTER:                  -6.799
REMARK INTRA:                  -0.169
REMARK UNBOUND:                -0.169
REMARK  Name = No_998-gen_results/8p0m/2024-11-26-14-13-15/
REMARK  1 active torsions:
REMARK  status: ('A' for Active; 'I' for Inactive)
REMARK    1  A    between atoms: C_9  and  C_11
REMARK                            x       y       z     vdW  Elec       q    Type
REMARK                         _______ _______ _______ _____ _____    ______ ____
ROOT
ATOM      1  C   UNL A   1     -22.426   1.442  27.443  0.00  0.00    -0.000 A 
ATOM      2  C   UNL A   1     -23.056   0.542  27.949  0.00  0.00    -0.000 A 
ATOM      3  C   UNL A   1     -24.313   0.188  27.472  0.00  0.00    -0.000 A 
ATOM      4  C   UNL A   1     -24.925   0.912  26.388  0.00  0.00    -0.000 A 
ATOM      5  C   UNL A   1     -24.137   1.952  25.877  0.00  0.00    -0.000 A 
ATOM      6  C   UNL A   1     -22.961   2.258  26.375  0.00  0.00    -0.000 A 
ATOM      7  C   UNL A   1     -22.593  -0.293  29.090  0.00  0.00    -0.000 A 
ATOM      8  C   UNL A   1     -22.933  -1.524  29.245  0.00  0.00    -0.004 A 
ATOM      9  C   UNL A   1     -24.291  -1.955  28.705  0.00  0.00    -0.022 A 
ATOM     10  C   UNL A   1     -24.890  -1.157  27.738  0.00  0.00    -0.004 A 
ENDROOT
BRANCH   9  11
ATOM     11  C   UNL A   1     -24.885  -3.223  29.095  0.00  0.00    +0.022 C 
ATOM     12  C   UNL A   1     -26.113  -3.180  29.809  0.00  0.00    +0.005 C 
ATOM     13  C   UNL A   1     -24.295  -4.446  28.748  0.00  0.00    +0.005 C 
ENDBRANCH   9  11
TORSDOF 1
ENDMDL
ENDMDL
