MODEL 999
MODEL 1
REMARK VINA RESULT:    -5.325      0.000      0.000
REMARK INTER + INTRA:          -5.787
REMARK INTER:                  -5.636
REMARK INTRA:                  -0.151
REMARK UNBOUND:                -0.151
REMARK  Name = No_999-gen_results/8p0m/2024-11-26-14-13-15/
REMARK  1 active torsions:
REMARK  status: ('A' for Active; 'I' for Inactive)
REMARK    1  A    between atoms: C_4  and  C_7
REMARK                            x       y       z     vdW  Elec       q    Type
REMARK                         _______ _______ _______ _____ _____    ______ ____
ROOT
ATOM      1  C   UNL A   1     -26.605  -4.005  29.835  0.00  0.00    -0.000 A 
ATOM      2  C   UNL A   1     -26.085  -4.891  29.602  0.00  0.00    -0.000 A 
ATOM      3  C   UNL A   1     -25.841  -2.721  29.601  0.00  0.00    -0.000 A 
ATOM      4  C   UNL A   1     -24.580  -2.773  28.971  0.00  0.00    -0.000 A 
ATOM      5  C   UNL A   1     -24.811  -5.215  28.919  0.00  0.00    -0.000 A 
ATOM      6  C   UNL A   1     -24.083  -4.058  28.682  0.00  0.00    -0.000 A 
ENDROOT
BRANCH   4   7
ATOM      7  C   UNL A   1     -23.808  -1.599  28.741  0.00  0.00    -0.005 C 
ATOM      8  C   UNL A   1     -22.705  -1.354  29.316  0.00  0.00    -0.026 C 
ATOM      9  C   UNL A   1     -21.852  -0.205  28.968  0.00  0.00    +0.031 C 
ENDBRANCH   4   7
TORSDOF 1
ENDMDL
ENDMDL
