MODEL 99
MODEL 1
REMARK VINA RESULT:    -8.371      0.000      0.000
REMARK INTER + INTRA:          -9.703
REMARK INTER:                  -9.350
REMARK INTRA:                  -0.354
REMARK UNBOUND:                -0.354
REMARK  Name = No_99-gen_results/8p0m/2024-11-26-14-13-15/
REMARK  2 active torsions:
REMARK  status: ('A' for Active; 'I' for Inactive)
REMARK    1  A    between atoms: C_3  and  C_9
REMARK    2  A    between atoms: C_9  and  C_15
REMARK                            x       y       z     vdW  Elec       q    Type
REMARK                         _______ _______ _______ _____ _____    ______ ____
ROOT
ATOM      1  C   UNL A   1     -24.269  -0.873  29.719  0.00  0.00    +0.040 C 
ATOM      2  C   UNL A   1     -23.060  -1.022  30.306  0.00  0.00    +0.008 C 
ATOM      3  C   UNL A   1     -22.976  -0.874  31.796  0.00  0.00    +0.001 C 
ATOM      4  C   UNL A   1     -24.209  -0.794  32.525  0.00  0.00    +0.000 C 
ATOM      5  C   UNL A   1     -25.413  -0.772  31.790  0.00  0.00    +0.001 C 
ATOM      6  C   UNL A   1     -25.374  -0.340  30.599  0.00  0.00    +0.008 C 
ENDROOT
BRANCH   1   9
ATOM      7  C   UNL A   1     -23.583   1.599  27.146  0.00  0.00    +0.030 A 
ATOM      8  C   UNL A   1     -23.561   0.964  28.174  0.00  0.00    +0.137 A 
ATOM      9  C   UNL A   1     -24.283  -0.166  28.384  0.00  0.00    +0.009 A 
ATOM     10  C   UNL A   1     -25.111  -0.632  27.345  0.00  0.00    +0.010 A 
ATOM     11  C   UNL A   1     -24.332   1.129  26.009  0.00  0.00    +0.014 A 
ATOM     12  C   UNL A   1     -25.098   0.014  26.177  0.00  0.00    +0.058 A 
ATOM     13  F   UNL A   1     -22.784   1.341  29.222  0.00  0.00    -0.204 F 
ATOM     14 CL   UNL A   1     -26.034  -0.530  24.845  0.00  0.00    -0.082 Cl
ENDBRANCH   1   9
BRANCH   1  15
ATOM     15  C   UNL A   1     -24.649  -2.463  29.457  0.00  0.00    -0.019 A 
ATOM     16  C   UNL A   1     -23.795  -3.228  28.920  0.00  0.00    -0.004 A 
ATOM     17  C   UNL A   1     -24.152  -4.602  28.676  0.00  0.00    -0.000 A 
ATOM     18  C   UNL A   1     -25.396  -5.037  29.166  0.00  0.00    -0.000 A 
ATOM     19  C   UNL A   1     -25.914  -2.937  29.831  0.00  0.00    -0.004 A 
ATOM     20  C   UNL A   1     -26.285  -4.198  29.663  0.00  0.00    -0.000 A 
ENDBRANCH   1  15
TORSDOF 2
ENDMDL
ENDMDL
