MODEL 9
MODEL 1
REMARK VINA RESULT:    -8.170      0.000      0.000
REMARK INTER + INTRA:         -11.402
REMARK INTER:                  -9.603
REMARK INTRA:                  -1.798
REMARK UNBOUND:                -1.798
REMARK  Name = No_9-gen_results/8p0m/2024-11-26-14-13-15/
REMARK  3 active torsions:
REMARK  status: ('A' for Active; 'I' for Inactive)
REMARK    1  A    between atoms: C_2  and  N_10
REMARK    2  A    between atoms: C_5  and  C_7
REMARK    3  A    between atoms: C_14  and  C_15
REMARK                            x       y       z     vdW  Elec       q    Type
REMARK                         _______ _______ _______ _____ _____    ______ ____
ROOT
ATOM      1  C   UNL A   1      -9.751   0.485  37.556  0.00  0.00    +0.041 C 
ATOM      2  C   UNL A   1     -10.475  -0.535  38.040  0.00  0.00    -0.025 A 
ATOM      3  C   UNL A   1     -11.106  -1.524  37.354  0.00  0.00    -0.004 A 
ATOM      4  C   UNL A   1     -11.880  -2.588  37.926  0.00  0.00    -0.000 A 
ATOM      5  C   UNL A   1     -12.083  -2.653  39.276  0.00  0.00    -0.000 A 
ATOM      6  C   UNL A   1     -11.419  -1.741  40.090  0.00  0.00    -0.005 A 
ATOM      7  C   UNL A   1     -10.697  -0.711  39.531  0.00  0.00    -0.026 A 
ATOM      8  C   UNL A   1      -8.870   1.300  38.344  0.00  0.00    +0.008 C 
ATOM      9  C   UNL A   1      -7.689   0.984  38.807  0.00  0.00    +0.001 C 
ATOM     10  C   UNL A   1      -7.407   1.067  39.977  0.00  0.00    +0.003 C 
ATOM     11  C   UNL A   1      -7.988   2.122  40.785  0.00  0.00    +0.033 C 
ATOM     12  C   UNL A   1      -9.274   2.493  40.433  0.00  0.00    +0.152 C 
ATOM     13  C   UNL A   1      -9.978   1.612  39.549  0.00  0.00    +0.033 C 
ATOM     14  C   UNL A   1     -10.287   0.545  40.280  0.00  0.00    +0.029 C 
ATOM     15  C   UNL A   1     -11.123   2.499  39.006  0.00  0.00    +0.003 C 
ATOM     16  O   UNL A   1     -10.047   2.957  41.504  0.00  0.00    -0.223 OA
ENDROOT
BRANCH   1  21
ATOM     17  N   UNL A   1      -8.971   0.535  35.139  0.00  0.00    -0.287 N 
ATOM     18  C   UNL A   1      -9.588   1.027  34.110  0.00  0.00    +0.061 C 
ATOM     19  C   UNL A   1     -10.884   1.573  34.208  0.00  0.00    -0.008 C 
ATOM     20  C   UNL A   1     -11.197   1.501  35.548  0.00  0.00    +0.048 C 
ATOM     21  C   UNL A   1      -9.875   0.797  36.244  0.00  0.00    +0.086 C 
BRANCH  17  23
ATOM     22  C   UNL A   1      -6.619   0.621  35.286  0.00  0.00    +0.015 A 
ATOM     23  C   UNL A   1      -7.602  -0.058  35.099  0.00  0.00    +0.052 A 
ATOM     24  C   UNL A   1      -7.592  -1.382  34.695  0.00  0.00    +0.015 A 
ATOM     25  C   UNL A   1      -6.317  -1.996  34.517  0.00  0.00    +0.008 A 
ATOM     26  C   UNL A   1      -5.247  -1.258  34.878  0.00  0.00    +0.080 A 
ATOM     27  C   UNL A   1      -5.375  -0.013  35.341  0.00  0.00    +0.008 A 
BRANCH  26  28
ATOM     28  C   UNL A   1      -3.947  -1.940  34.726  0.00  0.00    +0.388 C 
ATOM     29  O   UNL A   1      -3.675  -2.338  33.731  0.00  0.00    -0.241 OA
ATOM     30  O   UNL A   1      -3.162  -2.171  35.770  0.00  0.00    -0.241 OA
ENDBRANCH  26  28
ENDBRANCH  17  23
ENDBRANCH   1  21
TORSDOF 3
ENDMDL
ENDMDL
