@<TRIPOS>MOLECULE
No_0-gen_results/8p0m/2024-11-26-14-13-15/
 35 38 0 0 0
SMALL
GASTEIGER

@<TRIPOS>ATOM
      1 C         -28.0162   -0.8135   28.8779 C.ar    1  UNL1        0.0001
      2 C         -27.0636   -0.1189   28.6079 C.ar    1  UNL1        0.0000
      3 C         -25.7923   -0.4302   29.0761 C.ar    1  UNL1        0.0000
      4 C         -25.2700   -0.0487   30.0123 C.ar    1  UNL1        0.0000
      5 C         -29.2965   -0.1838   28.9398 C.ar    1  UNL1        0.0046
      6 C         -29.5648    0.8003   28.0352 C.ar    1  UNL1        0.0554
      7 C         -28.4695    1.4413   27.4238 C.ar    1  UNL1        0.0046
      8 C         -27.1368    1.0792   27.7975 C.ar    1  UNL1        0.0001
      9 C         -23.8989   -0.3559   30.5250 C.ar    1  UNL1        0.0000
     10 C         -23.1075   -1.1950   29.7370 C.ar    1  UNL1        0.0000
     11 C         -23.6421   -1.6781   28.5918 C.ar    1  UNL1        0.0000
     12 C         -24.9086   -1.3299   28.1894 C.ar    1  UNL1        0.0000
     13 C         -30.9046    1.2986   27.7729 C.2     1  UNL1        0.2690
     14 O         -31.3208    1.7046   26.8166 O.2     1  UNL1       -0.2680
     15 N         -31.8030    1.1410   28.8483 N.am    1  UNL1       -0.1754
     16 C         -33.1638    1.5340   28.7313 C.ar    1  UNL1        0.0737
     17 C         -33.9561    0.9071   29.4993 C.ar    1  UNL1        0.0166
     18 C         -35.2319    1.0332   29.5535 C.ar    1  UNL1        0.0013
     19 C         -35.8007    2.0458   28.6201 C.ar    1  UNL1        0.0001
     20 C         -34.9509    2.6999   27.7827 C.ar    1  UNL1        0.0013
     21 C         -33.5669    2.4830   27.8109 C.ar    1  UNL1        0.0166
     22 C         -37.2072    2.2644   28.8357 C.ar    1  UNL1        0.0000
     23 C         -37.6607    3.5045   28.5871 C.ar    1  UNL1        0.0001
     24 C         -39.0015    3.8444   28.8359 C.ar    1  UNL1        0.0046
     25 C         -39.8739    2.7969   29.2143 C.ar    1  UNL1        0.0554
     26 C         -39.3798    1.5508   29.4038 C.ar    1  UNL1        0.0046
     27 C         -38.0396    1.2798   29.2792 C.ar    1  UNL1        0.0001
     28 C         -41.3037    3.0882   29.4033 C.2     1  UNL1        0.2690
     29 N         -41.6593    4.1964   29.7995 N.am    1  UNL1       -0.1741
     30 O         -42.0733    2.1422   29.1785 O.2     1  UNL1       -0.2680
     31 C         -40.9382    5.3601   30.2180 C.2     1  UNL1        0.0889
     32 C         -41.6335    6.5062   30.4984 C.2     1  UNL1        0.0176
     33 C         -40.9221    7.5552   31.1271 C.2     1  UNL1       -0.0032
     34 C         -39.5414    7.5059   31.2827 C.2     1  UNL1       -0.0257
     35 C         -38.8643    6.3378   30.9531 C.3     1  UNL1        0.0307
@<TRIPOS>BOND
     1     2     3    1
     2     6    13    1
     3    13    14    2
     4    13    15   am
     5    15    16    1
     6    19    22    1
     7    25    28    1
     8    28    29   am
     9    28    30    2
    10    29    31    1
    11    31    32    2
    12    32    33    1
    13    33    34    2
    14    34    35    1
    15     1     2   ar
    16     2     8   ar
    17     8     7   ar
    18     7     6   ar
    19     6     5   ar
    20     5     1   ar
    21     3     4   ar
    22     4     9   ar
    23     9    10   ar
    24    10    11   ar
    25    11    12   ar
    26    12     3   ar
    27    22    23   ar
    28    23    24   ar
    29    24    25   ar
    30    25    26   ar
    31    26    27   ar
    32    27    22   ar
    33    16    17   ar
    34    17    18   ar
    35    18    19   ar
    36    19    20   ar
    37    20    21   ar
    38    21    16   ar
