@<TRIPOS>MOLECULE
No_1-gen_results/8p0m/2024-11-26-14-13-15/
 8 7 0 0 0
SMALL
GASTEIGER

@<TRIPOS>ATOM
      1 F         -28.0727   -1.2542   28.5316 F       1  UNL1       -0.2018
      2 C         -28.2662   -0.4214   29.1931 C.2     1  UNL1        0.1674
      3 C         -28.1839    0.5652   29.0416 C.2     1  UNL1        0.0320
      4 C         -27.7131    1.1254   27.6783 C.2     1  UNL1        0.0024
      5 C         -27.2933    0.2963   26.8244 C.2     1  UNL1       -0.0003
      6 C         -26.9904    0.8443   25.4815 C.2     1  UNL1       -0.0046
      7 C         -26.9785    2.1871   25.2853 C.2     1  UNL1       -0.0258
      8 C         -27.4005    3.0730   26.2069 C.3     1  UNL1        0.0307
@<TRIPOS>BOND
     1     1     2    1
     2     2     3    2
     3     3     4    1
     4     4     5    2
     5     5     6    1
     6     6     7    2
     7     7     8    1
