@<TRIPOS>MOLECULE
No_10-gen_results/8p0m/2024-11-26-14-13-15/
 9 9 0 0 0
SMALL
GASTEIGER

@<TRIPOS>ATOM
      1 C         -28.0162   -0.8135   28.8779 C.ar    1  UNL1        0.0798
      2 C         -28.4690   -0.7850   29.8287 C.2     1  UNL1        0.3878
      3 C         -28.1816    0.4277   28.1134 C.ar    1  UNL1        0.0066
      4 C         -27.4498    0.6435   26.8500 C.ar    1  UNL1        0.0002
      5 C         -26.1815    0.0357   26.7145 C.ar    1  UNL1        0.0000
      6 C         -25.7800   -0.9326   27.6938 C.ar    1  UNL1        0.0002
      7 C         -26.5568   -1.2134   28.7413 C.ar    1  UNL1        0.0066
      8 O         -28.5318   -1.9487   30.6145 O.co2   1  UNL1       -0.2406
      9 O         -29.4404    0.0249   30.3604 O.co2   1  UNL1       -0.2406
@<TRIPOS>BOND
     1     1     2    1
     2     2     8   ar
     3     2     9   ar
     4     1     3   ar
     5     3     4   ar
     6     4     5   ar
     7     5     6   ar
     8     6     7   ar
     9     7     1   ar
