@<TRIPOS>MOLECULE
No_100-gen_results/8p0m/2024-11-26-14-13-15/
 18 19 0 0 0
SMALL
GASTEIGER

@<TRIPOS>ATOM
      1 C         -28.0162   -0.8135   28.8779 C.ar    1  UNL1        0.0228
      2 C         -28.4690   -0.7850   29.8287 C.ar    1  UNL1        0.0585
      3 C         -26.5042   -0.7777   28.8766 C.ar    1  UNL1        0.0585
      4 C         -25.8103   -0.8531   30.1028 C.ar    1  UNL1        0.0106
      5 C         -27.9906   -0.8916   31.2257 C.ar    1  UNL1        0.0114
      6 C         -26.6042   -0.8676   31.2652 C.ar    1  UNL1        0.0017
      7 CL        -30.2937   -0.8377   29.8355 Cl      1  UNL1       -0.0822
      8 C         -24.3700   -0.8208   30.1393 C.ar    1  UNL1        0.0010
      9 C         -23.6623   -1.3275   30.7489 C.ar    1  UNL1        0.0000
     10 C         -23.7481    0.1451   29.1412 C.ar    1  UNL1        0.0065
     11 C         -22.6569    0.3642   29.1732 C.ar    1  UNL1        0.0756
     12 C         -22.2225   -1.2222   30.9000 C.ar    1  UNL1        0.0002
     13 C         -21.7100   -0.3489   29.9283 C.ar    1  UNL1        0.0064
     14 C         -21.9778    1.3024   28.0967 C.2     1  UNL1        0.3413
     15 O         -20.8322    1.7830   28.3118 O.2     1  UNL1       -0.2449
     16 O         -22.7451    1.9317   27.2151 O.3     1  UNL1       -0.4413
     17 C         -22.5201    1.8537   25.9115 C.3     1  UNL1        0.2560
     18 CL        -25.6878   -0.7008   27.3946 Cl      1  UNL1       -0.0822
@<TRIPOS>BOND
     1     2     7    1
     2     4     8    1
     3    11    14    1
     4    14    15    2
     5    14    16    1
     6    16    17    1
     7     3    18    1
     8     8     9   ar
     9     9    12   ar
    10    12    13   ar
    11    13    11   ar
    12    11    10   ar
    13    10     8   ar
    14     1     2   ar
    15     2     5   ar
    16     5     6   ar
    17     6     4   ar
    18     4     3   ar
    19     3     1   ar
