@<TRIPOS>MOLECULE
No_1000-gen_results/8p0m/2024-11-26-14-13-15/
 25 26 0 0 0
SMALL
GASTEIGER

@<TRIPOS>ATOM
      1 C         -28.0162   -0.8135   28.8779 C.ar    1  UNL1        0.0781
      2 C         -27.0636   -0.1189   28.6079 C.ar    1  UNL1        0.0358
      3 C         -26.9716    0.7139   27.5060 C.ar    1  UNL1        0.1366
      4 C         -28.1053    0.7744   26.6421 C.ar    1  UNL1        0.0120
      5 C         -29.2041    0.1179   27.0477 C.ar    1  UNL1        0.0782
      6 C         -29.2127   -0.6088   28.1281 C.ar    1  UNL1        0.0128
      7 F         -25.8738    1.4073   27.1728 F       1  UNL1       -0.2045
      8 C         -30.3669    0.2295   26.1371 C.2     1  UNL1        0.3875
      9 O         -30.3063   -0.1170   24.9554 O.co2   1  UNL1       -0.2406
     10 O         -31.5495    0.5057   26.6110 O.co2   1  UNL1       -0.2406
     11 C         -28.0181   -1.6596   30.1419 C.2     1  UNL1        0.3416
     12 O         -27.1285   -2.4802   30.3635 O.2     1  UNL1       -0.2449
     13 O         -29.0321   -1.6213   30.9048 O.3     1  UNL1       -0.4404
     14 C         -27.9761    1.6580   25.4582 C.3     1  UNL1        0.0336
     15 C         -29.4605   -2.6933   31.6312 C.3     1  UNL1        0.2354
     16 C         -30.7091   -3.2920   31.3043 C.ar    1  UNL1        0.0213
     17 C         -31.5674   -2.6814   30.6444 C.ar    1  UNL1       -0.0007
     18 C         -32.5164   -2.9462   30.2278 C.ar    1  UNL1        0.0036
     19 C         -30.9320   -4.6766   31.5986 C.ar    1  UNL1       -0.0007
     20 C         -32.1682   -5.2239   31.1716 C.ar    1  UNL1        0.0036
     21 C         -32.9956   -4.3555   30.4468 C.ar    1  UNL1        0.0714
     22 C         -34.2972   -4.9083   29.9972 C.3     1  UNL1        0.4186
     23 F         -34.8947   -5.6905   30.6162 F       1  UNL1       -0.1659
     24 F         -35.0973   -3.7635   29.7706 F       1  UNL1       -0.1659
     25 F         -34.0080   -5.3453   28.7191 F       1  UNL1       -0.1659
@<TRIPOS>BOND
     1     3     7    1
     2     5     8    1
     3     8     9   ar
     4     8    10   ar
     5     1    11    1
     6    11    12    2
     7    11    13    1
     8     4    14    1
     9    13    15    1
    10    15    16    1
    11    21    22    1
    12    22    23    1
    13    22    24    1
    14    22    25    1
    15     1     2   ar
    16     2     3   ar
    17     3     4   ar
    18     4     5   ar
    19     5     6   ar
    20     6     1   ar
    21    16    17   ar
    22    17    18   ar
    23    18    21   ar
    24    21    20   ar
    25    20    19   ar
    26    19    16   ar
