@<TRIPOS>MOLECULE
No_1003-gen_results/8p0m/2024-11-26-14-13-15/
 35 38 0 0 0
SMALL
GASTEIGER

@<TRIPOS>ATOM
      1 C         -28.0162   -0.8135   28.8779 C.3     1  UNL1        0.0348
      2 C         -27.0636   -0.1190   28.6079 C.ar    1  UNL1       -0.0255
      3 C         -25.7923   -0.4302   29.0761 C.ar    1  UNL1       -0.0044
      4 C         -24.5456    0.3494   28.8225 C.ar    1  UNL1        0.0035
      5 C         -24.6586    1.4196   27.8878 C.ar    1  UNL1        0.0472
      6 C         -25.9471    1.6811   27.3792 C.ar    1  UNL1       -0.0007
      7 C         -27.0439    0.9739   27.6871 C.ar    1  UNL1       -0.0257
      8 C         -28.6597   -0.4600   30.2006 C.3     1  UNL1        0.0492
      9 C         -29.7497   -1.2486   30.6773 C.ar    1  UNL1       -0.0120
     10 C         -23.4472    2.1466   27.5918 C.2     1  UNL1        0.2416
     11 N         -22.2595    1.7395   28.0790 N.2     1  UNL1       -0.1156
     12 F         -23.5252    2.9897   26.6724 F       1  UNL1       -0.1815
     13 C         -30.2131   -2.1860   29.9106 C.ar    1  UNL1        0.0337
     14 C         -31.3379   -2.9359   30.4778 C.ar    1  UNL1        0.1453
     15 C         -31.8338   -2.6381   31.6744 C.ar    1  UNL1        0.0376
     16 C         -31.3333   -1.6487   32.4614 C.ar    1  UNL1        0.0060
     17 C         -30.2628   -0.9041   31.9963 C.ar    1  UNL1        0.0355
     18 C         -28.1290    0.6300   31.0311 C.ar    1  UNL1       -0.0149
     19 C         -27.2399    1.5010   30.6918 C.ar    1  UNL1        0.0008
     20 C         -26.9214    2.5095   31.3177 C.ar    1  UNL1        0.0564
     21 C         -27.4762    2.7555   32.6119 C.ar    1  UNL1        0.0047
     22 C         -28.4283    1.8739   33.1003 C.ar    1  UNL1        0.0030
     23 C         -28.7803    0.8426   32.3146 C.ar    1  UNL1        0.0353
     24 C         -29.8164   -0.0339   32.6889 C.2     1  UNL1        0.1950
     25 C         -25.8381    3.5381   30.9530 C.2     1  UNL1        0.2842
     26 N         -24.9659    3.9220   31.6326 N.am    1  UNL1       -0.0837
     27 O         -25.7399    3.7906   29.6308 O.2     1  UNL1       -0.2667
     28 O         -31.8333   -3.9150   29.6651 O.3     1  UNL1       -0.4468
     29 C         -31.4235   -4.5662   28.8385 C.2     1  UNL1        0.2246
     30 C         -30.5810   -5.7210   29.1736 C.2     1  UNL1        0.0477
     31 C         -31.7239   -4.5316   27.4222 C.2     1  UNL1        0.4216
     32 O         -32.2758   -3.4971   26.9728 O.co2   1  UNL1       -0.2371
     33 O         -31.3753   -5.4259   26.6097 O.co2   1  UNL1       -0.2371
     34 O         -30.3194    0.2461   33.9192 O.2     1  UNL1       -0.2866
     35 C         -28.2970    1.3936   27.0152 C.3     1  UNL1        0.0307
@<TRIPOS>BOND
     1     1     2    1
     2     1     8    1
     3     8     9    1
     4     5    10    1
     5    10    11    2
     6    10    12    1
     7     8    18    1
     8    17    24    1
     9    23    24    1
    10    20    25    1
    11    25    26   am
    12    25    27    2
    13    14    28    1
    14    28    29    1
    15    29    30    2
    16    29    31    1
    17    31    32   ar
    18    31    33   ar
    19    24    34    2
    20     7    35    1
    21    18    19   ar
    22    19    20   ar
    23    20    21   ar
    24    21    22   ar
    25    22    23   ar
    26    23    18   ar
    27     2     3   ar
    28     3     4   ar
    29     4     5   ar
    30     5     6   ar
    31     6     7   ar
    32     7     2   ar
    33     9    13   ar
    34    13    14   ar
    35    14    15   ar
    36    15    16   ar
    37    16    17   ar
    38    17     9   ar
