@<TRIPOS>MOLECULE
No_1006-gen_results/8p0m/2024-11-26-14-13-15/
 22 24 0 0 0
SMALL
GASTEIGER

@<TRIPOS>ATOM
      1 C         -28.0162   -0.8135   28.8779 C.3     1  UNL1        0.0117
      2 C         -28.4690   -0.7850   29.8287 C.3     1  UNL1        0.0012
      3 C         -28.1960    0.3478   28.0550 C.3     1  UNL1        0.0798
      4 C         -29.0191    1.3501   28.3782 C.2     1  UNL1        0.1543
      5 C         -29.6249    1.2683   29.6012 C.3     1  UNL1        0.0648
      6 C         -29.3821    0.1816   30.4004 C.3     1  UNL1        0.0078
      7 C         -27.5492    0.5027   26.6783 C.ar    1  UNL1       -0.0155
      8 C         -28.1702    0.3184   25.5296 C.ar    1  UNL1       -0.0039
      9 C         -26.0994    0.6147   26.6544 C.ar    1  UNL1       -0.0036
     10 C         -25.4228    0.7557   25.4073 C.ar    1  UNL1       -0.0003
     11 C         -27.5048    0.4199   24.2615 C.ar    1  UNL1       -0.0003
     12 C         -26.1317    0.5588   24.2353 C.ar    1  UNL1       -0.0000
     13 C         -25.2421    0.7720   27.8394 C.ar    1  UNL1       -0.0001
     14 C         -24.4439    0.2089   28.1882 C.ar    1  UNL1       -0.0000
     15 C         -23.5223    0.4245   29.3292 C.ar    1  UNL1        0.0002
     16 C         -23.9054    1.3389   30.2241 C.ar    1  UNL1        0.0066
     17 C         -25.7247    1.9547   28.7201 C.ar    1  UNL1        0.0066
     18 C         -24.9815    2.1976   29.8750 C.ar    1  UNL1        0.0798
     19 C         -25.4542    3.2342   30.8603 C.2     1  UNL1        0.3878
     20 O         -25.6562    4.3223   30.4931 O.co2   1  UNL1       -0.2406
     21 O         -25.6845    2.7986   32.0685 O.co2   1  UNL1       -0.2406
     22 O         -29.2558    2.4142   27.6422 O.2     1  UNL1       -0.2957
@<TRIPOS>BOND
     1     1     3    1
     2     3     4    1
     3     4     5    1
     4     2     6    1
     5     3     7    1
     6     9    13    1
     7    18    19    1
     8    19    20   ar
     9    19    21   ar
    10     4    22    2
    11     1     2    1
    12     6     5    1
    13     7     8   ar
    14     8    11   ar
    15    11    12   ar
    16    12    10   ar
    17    10     9   ar
    18     9     7   ar
    19    13    14   ar
    20    14    15   ar
    21    15    16   ar
    22    16    18   ar
    23    18    17   ar
    24    17    13   ar
