@<TRIPOS>MOLECULE
No_1007-gen_results/8p0m/2024-11-26-14-13-15/
 24 25 0 0 0
SMALL
GASTEIGER

@<TRIPOS>ATOM
      1 C         -28.0162   -0.8135   28.8779 C.ar    1  UNL1        0.0148
      2 C         -28.4690   -0.7850   29.8287 C.ar    1  UNL1        0.0516
      3 C         -26.5455   -0.8762   28.8500 C.ar    1  UNL1        0.0013
      4 C         -25.8041   -1.0324   30.0571 C.ar    1  UNL1        0.0001
      5 C         -26.5373   -1.0386   31.2171 C.ar    1  UNL1        0.0013
      6 C         -27.8843   -0.9532   31.1862 C.ar    1  UNL1        0.0148
      7 C         -24.3555   -1.1121   30.0346 C.ar    1  UNL1        0.0000
      8 C         -23.7079   -1.1920   30.8827 C.ar    1  UNL1        0.0000
      9 C         -22.1991   -1.0954   30.9345 C.ar    1  UNL1        0.0000
     10 C         -21.6564   -0.8348   29.7237 C.ar    1  UNL1        0.0000
     11 C         -22.4112   -0.6494   28.5512 C.ar    1  UNL1        0.0000
     12 C         -23.8549   -0.7781   28.7009 C.ar    1  UNL1        0.0000
     13 N         -29.9596   -0.6884   29.9130 N.pl3   1  UNL1       -0.2855
     14 C         -30.5582    0.5279   30.1240 C.2     1  UNL1        0.0654
     15 C         -30.0013    1.5043   30.2290 C.2     1  UNL1        0.0161
     16 C         -28.6586    1.7305   30.2420 C.2     1  UNL1        0.0013
     17 C         -28.0803    3.1133   30.3881 C.2     1  UNL1       -0.0003
     18 C         -26.6728    3.2747   30.4353 C.2     1  UNL1       -0.0046
     19 C         -25.8515    2.1339   30.1844 C.2     1  UNL1       -0.0258
     20 C         -24.4342    2.4689   30.3057 C.3     1  UNL1        0.0307
     21 C         -30.5957   -1.9459   29.7432 C.3     1  UNL1        0.1020
     22 C         -31.6125   -2.1931   30.7993 C.3     1  UNL1        0.0707
     23 C         -32.8161   -1.9968   30.3041 C.2     1  UNL1        0.0975
     24 N         -33.6871   -2.6224   30.6010 N.2     1  UNL1       -0.1514
@<TRIPOS>BOND
     1     4     7    1
     2     2    13    1
     3    13    14    1
     4    14    15    2
     5    15    16    1
     6    16    17    2
     7    17    18    1
     8    18    19    2
     9    19    20    1
    10    13    21    1
    11    21    22    1
    12    22    23    1
    13    23    24    2
    14     1     2   ar
    15     2     6   ar
    16     6     5   ar
    17     5     4   ar
    18     4     3   ar
    19     3     1   ar
    20     7     8   ar
    21     8     9   ar
    22     9    10   ar
    23    10    11   ar
    24    11    12   ar
    25    12     7   ar
