@<TRIPOS>MOLECULE
No_1009-gen_results/8p0m/2024-11-26-14-13-15/
 13 13 0 0 0
SMALL
GASTEIGER

@<TRIPOS>ATOM
      1 BR        -28.1146   -0.6256   29.0813 Br      1  UNL1        0.0109
      2 C         -28.0686    0.2105   30.1716 C.1     1  UNL1       -0.0183
      3 C         -28.0003    0.8873   30.9176 C.1     1  UNL1       -0.0521
      4 C         -27.7329    1.7228   31.9805 C.2     1  UNL1        0.0548
      5 C         -27.3559    2.7820   32.5146 C.2     1  UNL1        0.0668
      6 C         -26.8486    3.8421   33.1374 C.2     1  UNL1        0.2498
      7 N         -26.3252    4.9328   33.0509 N.am    1  UNL1       -0.2761
      8 C         -25.6803    5.6570   33.9931 C.3     1  UNL1        0.0937
      9 C         -26.2623    5.5170   31.6833 C.3     1  UNL1        0.0937
     10 O         -26.7532    3.3940   34.5703 O.2     1  UNL1       -0.2699
     11 C         -25.8865    6.7670   31.5683 C.3     1  UNL1        0.0216
     12 C         -25.2400    7.0808   33.7830 C.3     1  UNL1        0.0216
     13 C         -25.2764    7.5601   32.5445 C.3     1  UNL1        0.0035
@<TRIPOS>BOND
     1     1     2    1
     2     2     3    3
     3     3     4    1
     4     4     5    2
     5     5     6    1
     6     6     7   am
     7     7     8    1
     8     7     9    1
     9     6    10    2
    10    11    13    1
    11    12    13    1
    12     8    12    1
    13    11     9    1
