@<TRIPOS>MOLECULE
No_101-gen_results/8p0m/2024-11-26-14-13-15/
 24 25 0 0 0
SMALL
GASTEIGER

@<TRIPOS>ATOM
      1 C         -28.0162   -0.8135   28.8779 C.2     1  UNL1        0.2690
      2 C         -27.0636   -0.1190   28.6079 C.ar    1  UNL1        0.0554
      3 C         -26.9287    1.1713   29.0083 C.ar    1  UNL1        0.0045
      4 C         -25.7702    2.0341   28.6884 C.ar    1  UNL1        0.0040
      5 C         -24.7141    1.4431   27.9188 C.ar    1  UNL1        0.0714
      6 C         -24.8590    0.0783   27.5836 C.ar    1  UNL1        0.0040
      7 C         -25.9647   -0.6606   27.9164 C.ar    1  UNL1        0.0045
      8 N         -27.9821   -1.6367   30.0748 N.am    1  UNL1       -0.1754
      9 O         -29.2163   -0.4132   28.6627 O.2     1  UNL1       -0.2680
     10 C         -28.6751   -2.4607   30.4758 C.ar    1  UNL1        0.0737
     11 C         -23.5261    2.1475   27.5672 C.3     1  UNL1        0.4186
     12 F         -23.3911    2.7163   26.6241 F       1  UNL1       -0.1659
     13 F         -23.0429    2.8831   28.6686 F       1  UNL1       -0.1659
     14 F         -22.3955    1.1633   27.6159 F       1  UNL1       -0.1659
     15 C         -28.5653   -3.8930   30.1012 C.ar    1  UNL1        0.0168
     16 C         -29.0176   -4.6733   30.8021 C.ar    1  UNL1        0.0059
     17 C         -30.0169   -4.5064   31.8326 C.ar    1  UNL1        0.0555
     18 C         -30.1876   -3.1923   32.2364 C.ar    1  UNL1        0.0059
     19 C         -29.4676   -2.2005   31.6472 C.ar    1  UNL1        0.0168
     20 C         -30.6602   -5.6785   32.4643 C.2     1  UNL1        0.2690
     21 O         -30.5748   -6.7699   32.0752 O.2     1  UNL1       -0.2680
     22 N         -31.4206   -5.4578   33.6008 N.am    1  UNL1       -0.1741
     23 C         -31.6874   -4.2428   34.2156 C.2     1  UNL1        0.0890
     24 C         -31.0121   -3.1022   33.5276 C.2     1  UNL1        0.0193
@<TRIPOS>BOND
     1     1     2    1
     2     1     8   am
     3     1     9    2
     4     8    10    1
     5     5    11    1
     6    11    12    1
     7    11    13    1
     8    11    14    1
     9    17    20    1
    10    20    21    2
    11    20    22   am
    12    22    23    1
    13    23    24    2
    14     2     3   ar
    15     3     4   ar
    16     4     5   ar
    17     5     6   ar
    18     6     7   ar
    19     7     2   ar
    20    10    15   ar
    21    15    16   ar
    22    16    17   ar
    23    17    18   ar
    24    18    19   ar
    25    19    10   ar
