@<TRIPOS>MOLECULE
No_1010-gen_results/8p0m/2024-11-26-14-13-15/
 35 38 0 0 0
SMALL
GASTEIGER

@<TRIPOS>ATOM
      1 C         -28.0162   -0.8135   28.8779 C.2     1  UNL1        0.0218
      2 C         -27.0636   -0.1189   28.6079 C.2     1  UNL1       -0.0329
      3 C         -26.9716    0.7139   27.5060 C.3     1  UNL1        0.0803
      4 C         -25.8205    1.4909   27.1160 C.2     1  UNL1        0.1760
      5 C         -24.6562    1.4242   27.9180 C.ar    1  UNL1        0.0314
      6 C         -23.4598    2.1165   27.6160 C.ar    1  UNL1        0.0025
      7 C         -22.3627    1.9155   28.4482 C.ar    1  UNL1        0.0001
      8 C         -22.4137    0.9215   29.4584 C.ar    1  UNL1       -0.0003
      9 C         -23.5531    0.2322   29.7679 C.ar    1  UNL1       -0.0039
     10 C         -24.6758    0.4356   28.9850 C.ar    1  UNL1       -0.0153
     11 C         -25.7809   -0.2644   29.3119 C.3     1  UNL1        0.0486
     12 C         -28.0384   -1.6122   30.1539 C.3     1  UNL1        0.2618
     13 N         -29.1459   -2.2963   30.5623 N.am    1  UNL1       -0.2499
     14 F         -27.0919   -1.9724   30.8900 F       1  UNL1       -0.2097
     15 C         -30.3858   -1.8623   30.3771 C.3     1  UNL1        0.0962
     16 C         -31.4463   -2.8214   30.5867 C.3     1  UNL1        0.0221
     17 C         -29.0421   -3.6409   31.0784 C.2     1  UNL1        0.2277
     18 O         -27.8352   -4.1755   31.0604 O.2     1  UNL1       -0.2748
     19 C         -30.1716   -4.4047   31.2746 C.3     1  UNL1        0.0854
     20 C         -31.3802   -3.9713   31.0775 C.3     1  UNL1        0.0113
     21 C         -28.2047    0.9272   26.6942 C.3     1  UNL1        0.0116
     22 C         -29.0887    1.8582   27.1330 C.3     1  UNL1        0.0130
     23 C         -28.0584    0.8773   25.2689 C.3     1  UNL1        0.0008
     24 C         -30.4112    1.8280   26.6318 C.3     1  UNL1        0.1060
     25 C         -30.4341    1.9286   25.1819 C.3     1  UNL1        0.0123
     26 C         -29.4536    0.9592   24.5381 C.3     1  UNL1        0.0006
     27 C         -31.2267    0.5464   26.9740 C.3     1  UNL1        0.4006
     28 F         -31.6220    0.7413   28.2395 F       1  UNL1       -0.1697
     29 F         -32.3163    0.4820   26.2699 F       1  UNL1       -0.1697
     30 F         -30.5425   -0.5447   26.8525 F       1  UNL1       -0.1697
     31 C         -31.2716    3.0714   27.1862 C.2     1  UNL1       -0.0186
     32 O         -25.8753    2.3364   26.1379 O.2     1  UNL1       -0.2910
     33 C         -31.6679    3.2300   28.1434 C.2     1  UNL1       -0.0043
     34 C         -32.2199    4.4318   28.7707 C.2     1  UNL1       -0.0003
     35 C         -32.3733    5.4433   27.8102 C.2     1  UNL1       -0.0000
@<TRIPOS>BOND
     1     1     2    2
     2     2     3    1
     3     3     4    1
     4     4     5    1
     5     2    11    1
     6    10    11    1
     7     1    12    1
     8    12    13    1
     9    12    14    1
    10    13    15    1
    11    13    17   am
    12    17    18    2
    13    17    19    1
    14    16    20    1
    15    19    20    1
    16     3    21    1
    17    21    22    1
    18    21    23    1
    19    22    24    1
    20    24    25    1
    21    23    26    1
    22    25    26    1
    23    24    27    1
    24    27    28    1
    25    27    29    1
    26    27    30    1
    27    24    31    1
    28     4    32    2
    29    31    33    2
    30    33    34    1
    31    34    35    2
    32    15    16    1
    33     5     6   ar
    34     6     7   ar
    35     7     8   ar
    36     8     9   ar
    37     9    10   ar
    38    10     5   ar
