@<TRIPOS>MOLECULE
No_1011-gen_results/8p0m/2024-11-26-14-13-15/
 28 30 0 0 0
SMALL
GASTEIGER

@<TRIPOS>ATOM
      1 BR        -28.1146   -0.6256   29.0813 Br      1  UNL1       -0.0448
      2 C         -27.4917    0.8142   29.3550 C.ar    1  UNL1        0.0826
      3 C         -26.7100    1.4117   28.9943 C.ar    1  UNL1        0.0947
      4 C         -26.1849    2.7117   29.4208 C.ar    1  UNL1        0.1582
      5 C         -26.8268    3.2448   30.5689 C.ar    1  UNL1        0.0764
      6 C         -27.7611    2.4993   31.1608 C.ar    1  UNL1        0.1010
      7 C         -28.0953    1.3338   30.6686 C.ar    1  UNL1        0.1633
      8 CL        -25.8142    0.9539   27.5232 Cl      1  UNL1       -0.0793
      9 BR        -26.1824    4.9258   31.2175 Br      1  UNL1       -0.0456
     10 F         -25.1889    3.3885   28.8094 F       1  UNL1       -0.2027
     11 CL        -28.4720    3.0807   32.6734 Cl      1  UNL1       -0.0785
     12 O         -29.0602    0.5821   31.3004 O.3     1  UNL1       -0.4521
     13 C         -28.7621   -0.4329   32.0702 C.2     1  UNL1        0.1455
     14 C         -27.8374   -0.5443   32.7863 C.2     1  UNL1        0.0406
     15 C         -29.9637   -1.3059   32.2419 C.ar    1  UNL1        0.0376
     16 C         -31.0981   -1.1709   31.4757 C.ar    1  UNL1        0.0399
     17 C         -32.0768   -2.1120   31.5297 C.ar    1  UNL1        0.1392
     18 C         -31.9370   -3.2064   32.4031 C.ar    1  UNL1        0.0369
     19 C         -30.8090   -3.4051   33.1400 C.ar    1  UNL1        0.0032
     20 C         -29.7640   -2.4870   33.0572 C.ar    1  UNL1        0.0032
     21 O         -33.2487   -1.9646   30.8760 O.3     1  UNL1       -0.4706
     22 C         -34.2343   -1.3343   31.2795 C.3     1  UNL1        0.2320
     23 C         -35.2276   -1.2674   30.6077 C.ar    1  UNL1        0.0212
     24 C         -35.3086   -1.8025   29.3222 C.ar    1  UNL1       -0.0007
     25 C         -36.2281   -1.3981   28.4843 C.ar    1  UNL1       -0.0002
     26 C         -37.3414   -0.6347   28.9208 C.ar    1  UNL1       -0.0000
     27 C         -37.3932   -0.1422   30.1646 C.ar    1  UNL1       -0.0002
     28 C         -36.2991   -0.3473   31.0201 C.ar    1  UNL1       -0.0007
@<TRIPOS>BOND
     1     1     2    1
     2     3     8    1
     3     5     9    1
     4     4    10    1
     5     6    11    1
     6     7    12    1
     7    12    13    1
     8    13    14    2
     9    13    15    1
    10    17    21    1
    11    21    22    1
    12    22    23    1
    13    15    16   ar
    14    16    17   ar
    15    17    18   ar
    16    18    19   ar
    17    19    20   ar
    18    20    15   ar
    19     2     3   ar
    20     3     4   ar
    21     4     5   ar
    22     5     6   ar
    23     6     7   ar
    24     7     2   ar
    25    23    24   ar
    26    24    25   ar
    27    25    26   ar
    28    26    27   ar
    29    27    28   ar
    30    28    23   ar
