@<TRIPOS>MOLECULE
No_1012-gen_results/8p0m/2024-11-26-14-13-15/
 22 24 0 0 0
SMALL
GASTEIGER

@<TRIPOS>ATOM
      1 C         -28.0162   -0.8135   28.8779 C.ar    1  UNL1        0.0915
      2 C         -27.0636   -0.1189   28.6079 C.ar    1  UNL1        0.0145
      3 C         -25.7923   -0.4302   29.0761 C.ar    1  UNL1        0.0010
      4 C         -25.5756   -1.5654   29.9363 C.ar    1  UNL1        0.0032
      5 C         -26.7354   -2.3004   30.2173 C.ar    1  UNL1        0.0378
      6 C         -27.9184   -1.9537   29.7629 C.ar    1  UNL1        0.1495
      7 O         -29.0001   -2.7012   30.1151 O.3     1  UNL1       -0.4691
      8 C         -24.5290    0.3490   28.7998 C.ar    1  UNL1        0.0000
      9 C         -24.4808    1.2113   27.7998 C.ar    1  UNL1        0.0000
     10 C         -23.2478    1.8974   27.4951 C.ar    1  UNL1        0.0000
     11 C         -22.0497    1.5890   28.1642 C.ar    1  UNL1        0.0000
     12 C         -23.3072    0.0149   29.4618 C.ar    1  UNL1        0.0000
     13 C         -22.0852    0.6899   29.1374 C.ar    1  UNL1        0.0000
     14 C         -29.3635   -2.8123   31.4419 C.3     1  UNL1        0.2413
     15 C         -29.7833   -4.1212   31.7495 C.2     1  UNL1        0.2659
     16 O         -29.5089   -5.0211   31.1120 O.2     1  UNL1       -0.2710
     17 N         -30.4546   -4.3860   32.9264 N.am    1  UNL1       -0.2749
     18 C         -30.8702   -3.3148   33.8880 C.3     1  UNL1        0.0937
     19 C         -29.6358   -1.6887   32.2817 C.3     1  UNL1        0.0549
     20 C         -30.1267   -1.7899   33.2530 C.3     1  UNL1        0.0257
     21 C         -30.8819   -5.6546   33.3731 C.3     1  UNL1        0.1150
     22 CL        -29.6011   -0.4137   28.3240 Cl      1  UNL1       -0.0791
@<TRIPOS>BOND
     1     6     7    1
     2     3     8    1
     3     7    14    1
     4    14    15    1
     5    15    16    2
     6    15    17   am
     7    17    18    1
     8    14    19    1
     9    17    21    1
    10     1    22    1
    11    19    20    1
    12    20    18    1
    13     1     2   ar
    14     2     3   ar
    15     3     4   ar
    16     4     5   ar
    17     5     6   ar
    18     6     1   ar
    19     8     9   ar
    20     9    10   ar
    21    10    11   ar
    22    11    13   ar
    23    13    12   ar
    24    12     8   ar
