@<TRIPOS>MOLECULE
No_1013-gen_results/8p0m/2024-11-26-14-13-15/
 14 14 0 0 0
SMALL
GASTEIGER

@<TRIPOS>ATOM
      1 O         -28.1229   -1.3353   28.4874 O.co2   1  UNL1       -0.2203
      2 C         -28.5208   -0.4363   29.0779 C.2     1  UNL1        0.4671
      3 O         -29.6218   -0.0586   29.1075 O.co2   1  UNL1       -0.2203
      4 N         -27.6251    0.0389   30.1149 N.am    1  UNL1       -0.1395
      5 C         -26.6575    0.4270   30.1077 C.ar    1  UNL1        0.0768
      6 C         -26.1417    1.2558   29.1703 C.ar    1  UNL1        0.0206
      7 C         -24.7313    1.6252   29.0733 C.ar    1  UNL1        0.0727
      8 C         -23.8499    1.0847   30.0613 C.ar    1  UNL1        0.0039
      9 C         -24.3111    0.2267   31.0413 C.ar    1  UNL1        0.0013
     10 C         -25.6283   -0.1259   31.0647 C.ar    1  UNL1        0.0167
     11 C         -24.1902    2.5669   28.1037 C.3     1  UNL1        0.4186
     12 F         -24.5901    3.7231   28.2115 F       1  UNL1       -0.1659
     13 F         -22.8130    2.6210   28.1620 F       1  UNL1       -0.1659
     14 F         -24.4835    2.1135   26.8777 F       1  UNL1       -0.1659
@<TRIPOS>BOND
     1     1     2   ar
     2     2     3   ar
     3     2     4   am
     4     7    11    1
     5    11    12    1
     6    11    13    1
     7    11    14    1
     8     4     5    1
     9     5     6   ar
    10     6     7   ar
    11     7     8   ar
    12     8     9   ar
    13     9    10   ar
    14    10     5   ar
