@<TRIPOS>MOLECULE
No_1014-gen_results/8p0m/2024-11-26-14-13-15/
 35 39 0 0 0
SMALL
GASTEIGER

@<TRIPOS>ATOM
      1 C         -28.0162   -0.8135   28.8779 C.ar    1  UNL1        0.0262
      2 C         -28.4690   -0.7850   29.8287 C.ar    1  UNL1        0.0524
      3 C         -26.5042   -0.7777   28.8766 C.ar    1  UNL1        0.0589
      4 C         -25.8103   -0.8531   30.1028 C.ar    1  UNL1        0.0115
      5 C         -27.9906   -0.8916   31.2257 C.ar    1  UNL1        0.0149
      6 C         -26.6042   -0.8676   31.2652 C.ar    1  UNL1        0.0021
      7 N         -29.9538   -0.7893   29.6417 N.pl3   1  UNL1       -0.2871
      8 C         -30.6786    0.2685   30.0366 C.ar    1  UNL1        0.0475
      9 C         -30.2826    1.2155   30.3261 C.ar    1  UNL1        0.0145
     10 C         -31.1784    2.4468   30.6322 C.ar    1  UNL1        0.0013
     11 C         -32.5305    2.1827   30.4534 C.ar    1  UNL1       -0.0002
     12 C         -32.1108    0.0452   29.8322 C.ar    1  UNL1       -0.0085
     13 C         -32.9664    0.9986   30.0511 C.ar    1  UNL1       -0.0030
     14 C         -30.3951   -2.1384   30.2278 C.3     1  UNL1        0.0961
     15 CL        -25.5472   -0.7181   27.4565 Cl      1  UNL1       -0.0822
     16 C         -31.5343   -2.6833   29.7110 C.3     1  UNL1        0.0290
     17 C         -32.6394   -1.5338   29.8082 C.3     1  UNL1        0.0297
     18 C         -32.0279   -3.8403   30.4001 C.3     1  UNL1        0.0309
     19 C         -31.2855   -4.9520   30.0637 C.ar    1  UNL1        0.0120
     20 C         -30.4097   -5.4413   30.8098 C.ar    1  UNL1        0.0537
     21 C         -31.3794   -5.5134   28.7191 C.ar    1  UNL1        0.1635
     22 F         -32.0469   -5.0104   27.9036 F       1  UNL1       -0.2021
     23 C         -30.3821   -6.5020   28.4827 C.ar    1  UNL1        0.1671
     24 C         -30.1579   -4.9284   32.2334 C.2     1  UNL1        0.2687
     25 F         -30.5051   -6.9375   27.2231 F       1  UNL1       -0.2018
     26 N         -29.9704   -3.8025   32.3885 N.am    1  UNL1       -0.1755
     27 C         -29.9830   -3.2680   33.7990 C.ar    1  UNL1        0.0737
     28 O         -30.5012   -5.7431   33.1859 O.2     1  UNL1       -0.2680
     29 C         -31.1626   -2.7602   34.3016 C.ar    1  UNL1        0.0166
     30 C         -31.1240   -1.9175   35.0609 C.ar    1  UNL1        0.0013
     31 C         -29.9217   -1.4345   35.7812 C.ar    1  UNL1        0.0001
     32 C         -28.7043   -1.9838   35.2689 C.ar    1  UNL1        0.0013
     33 C         -28.7298   -2.7712   34.2979 C.ar    1  UNL1        0.0166
     34 C         -30.4377   -7.2759   29.4483 C.ar    1  UNL1        0.0321
     35 C         -30.1381   -6.8482   30.8070 C.ar    1  UNL1        0.0067
@<TRIPOS>BOND
     1     2     7    1
     2     7     8    1
     3     7    14    1
     4     3    15    1
     5    12    17    1
     6    16    17    1
     7    16    18    1
     8    18    19    1
     9    21    22    1
    10    20    24    1
    11    23    25    1
    12    24    26   am
    13    26    27    1
    14    24    28    2
    15    16    14    1
    16    19    20   ar
    17    20    35   ar
    18    35    34   ar
    19    34    23   ar
    20    23    21   ar
    21    21    19   ar
    22    27    29   ar
    23    29    30   ar
    24    30    31   ar
    25    31    32   ar
    26    32    33   ar
    27    33    27   ar
    28     1     2   ar
    29     2     5   ar
    30     5     6   ar
    31     6     4   ar
    32     4     3   ar
    33     3     1   ar
    34     8     9   ar
    35     9    10   ar
    36    10    11   ar
    37    11    13   ar
    38    13    12   ar
    39    12     8   ar
