@<TRIPOS>MOLECULE
No_1015-gen_results/8p0m/2024-11-26-14-13-15/
 32 35 0 0 0
SMALL
GASTEIGER

@<TRIPOS>ATOM
      1 C         -28.0162   -0.8135   28.8779 C.ar    1  UNL1        0.0435
      2 C         -27.0636   -0.1190   28.6079 C.ar    1  UNL1        0.0828
      3 C         -25.7647   -0.3897   29.0360 C.ar    1  UNL1        0.0068
      4 C         -25.5296   -1.5302   29.9014 C.ar    1  UNL1        0.0032
      5 C         -26.6577   -2.2915   30.2035 C.ar    1  UNL1        0.0369
      6 C         -27.8548   -1.9555   29.7630 C.ar    1  UNL1        0.1394
      7 C         -24.5349    0.4128   28.7431 C.ar    1  UNL1        0.0068
      8 C         -23.3062    0.0366   29.0393 C.ar    1  UNL1        0.0798
      9 C         -23.0648   -1.1443   29.7080 C.ar    1  UNL1        0.0066
     10 C         -24.1873   -1.9562   30.1956 C.ar    1  UNL1        0.0003
     11 C         -22.1179    0.8470   28.6508 C.2     1  UNL1        0.3878
     12 O         -20.9981    0.6853   29.0593 O.co2   1  UNL1       -0.2406
     13 O         -22.2929    1.7880   27.7010 O.co2   1  UNL1       -0.2406
     14 O         -28.9635   -2.6784   30.1432 O.3     1  UNL1       -0.4673
     15 C         -29.2416   -2.7787   31.4977 C.3     1  UNL1        0.2719
     16 C         -29.8461   -1.7109   32.0607 C.2     1  UNL1        0.4044
     17 O         -29.5693   -1.3972   33.0831 O.co2   1  UNL1       -0.2416
     18 O         -30.6473   -1.1003   31.2940 O.co2   1  UNL1       -0.2416
     19 C         -27.2014    1.1361   27.7287 C.2     1  UNL1        0.3879
     20 O         -27.4871    2.1536   28.1781 O.co2   1  UNL1       -0.2406
     21 O         -26.8483    0.9347   26.5040 O.co2   1  UNL1       -0.2406
     22 C         -30.0256   -4.1097   31.7485 C.3     1  UNL1        0.0818
     23 C         -30.6934   -4.5065   30.7029 C.ar    1  UNL1       -0.0180
     24 C         -30.5717   -4.4592   29.6181 C.ar    1  UNL1       -0.0041
     25 C         -31.3747   -5.1468   28.5279 C.ar    1  UNL1       -0.0003
     26 C         -31.8764   -6.3645   28.9195 C.ar    1  UNL1       -0.0000
     27 C         -32.6408   -7.0280   27.9491 C.ar    1  UNL1       -0.0000
     28 C         -32.6919   -6.5865   26.6219 C.ar    1  UNL1       -0.0000
     29 C         -32.0815   -5.3530   26.2966 C.ar    1  UNL1       -0.0000
     30 C         -31.3958   -4.6808   27.2100 C.ar    1  UNL1       -0.0000
     31 C         -31.8751   -5.4134   31.2375 C.ar    1  UNL1       -0.0041
     32 C         -32.3331   -6.4463   30.2491 C.ar    1  UNL1       -0.0003
@<TRIPOS>BOND
     1     8    11    1
     2    11    12   ar
     3    11    13   ar
     4     6    14    1
     5    14    15    1
     6    15    16    1
     7    16    17   ar
     8    16    18   ar
     9     2    19    1
    10    19    20   ar
    11    19    21   ar
    12    15    22    1
    13    22    23    1
    14     1     2   ar
    15     2     3   ar
    16     4     5   ar
    17     5     6   ar
    18     6     1   ar
    19    26    27   ar
    20    27    28   ar
    21    28    29   ar
    22    29    30   ar
    23    30    25   ar
    24     3     4   ar
    25     4    10   ar
    26    10     9   ar
    27     9     8   ar
    28     8     7   ar
    29     7     3   ar
    30    23    24   ar
    31    24    25   ar
    32    25    26   ar
    33    26    32   ar
    34    32    31   ar
    35    31    23   ar
