@<TRIPOS>MOLECULE
No_1016-gen_results/8p0m/2024-11-26-14-13-15/
 16 17 0 0 0
SMALL
GASTEIGER

@<TRIPOS>ATOM
      1 C         -28.0162   -0.8135   28.8779 C.ar    1  UNL1        0.0045
      2 C         -28.4690   -0.7850   29.8287 C.ar    1  UNL1        0.0539
      3 C         -26.5042   -0.7777   28.8766 C.ar    1  UNL1        0.0001
      4 C         -25.9150   -0.6580   29.9230 C.ar    1  UNL1        0.0000
      5 C         -30.0078   -0.8570   29.8768 C.2     1  UNL1        0.2528
      6 C         -26.5279   -0.6329   31.1908 C.ar    1  UNL1        0.0001
      7 C         -27.9294   -0.7307   31.1655 C.ar    1  UNL1        0.0045
      8 O         -30.6244   -1.7404   30.3461 O.2     1  UNL1       -0.2696
      9 N         -30.6724    0.1390   29.1922 N.am    1  UNL1       -0.2534
     10 C         -32.0879    0.0903   29.0215 C.3     1  UNL1        0.1203
     11 C         -29.9821    1.2776   28.6039 C.ar    1  UNL1        0.0542
     12 C         -30.2033    2.4806   29.3573 C.ar    1  UNL1        0.0149
     13 C         -29.4420    3.4459   29.0242 C.ar    1  UNL1        0.0013
     14 C         -28.4935    3.4749   27.9284 C.ar    1  UNL1        0.0001
     15 C         -28.3792    2.2895   27.2471 C.ar    1  UNL1        0.0013
     16 C         -29.0669    1.1478   27.6447 C.ar    1  UNL1        0.0149
@<TRIPOS>BOND
     1     2     5    1
     2     5     8    2
     3     5     9   am
     4     9    10    1
     5     9    11    1
     6    11    12   ar
     7    12    13   ar
     8    13    14   ar
     9    14    15   ar
    10    15    16   ar
    11    16    11   ar
    12     1     2   ar
    13     2     7   ar
    14     7     6   ar
    15     6     4   ar
    16     4     3   ar
    17     3     1   ar
