@<TRIPOS>MOLECULE
No_1018-gen_results/8p0m/2024-11-26-14-13-15/
 22 24 0 0 0
SMALL
GASTEIGER

@<TRIPOS>ATOM
      1 C         -28.0162   -0.8135   28.8779 C.ar    1  UNL1       -0.0003
      2 C         -28.4690   -0.7850   29.8287 C.ar    1  UNL1       -0.0000
      3 C         -26.5455   -0.8762   28.8500 C.ar    1  UNL1       -0.0043
      4 C         -25.8041   -1.0324   30.0571 C.ar    1  UNL1       -0.0222
      5 C         -24.3697   -1.0998   30.0718 C.3     1  UNL1        0.0267
      6 C         -27.9902   -1.0051   31.2092 C.ar    1  UNL1       -0.0003
      7 C         -26.4318   -1.0480   31.2503 C.ar    1  UNL1       -0.0043
      8 C         -23.6966    0.1485   29.9413 C.3     1  UNL1        0.0090
      9 C         -24.0069    1.2734   30.5004 C.3     1  UNL1        0.0267
     10 C         -22.4645    0.1625   29.0940 C.3     1  UNL1        0.0050
     11 C         -22.0002    1.2966   28.4548 C.3     1  UNL1        0.0224
     12 C         -25.1963    1.3748   31.3888 C.ar    1  UNL1       -0.0222
     13 C         -22.7603    1.8037   27.4418 C.2     1  UNL1       -0.0399
     14 C         -25.8071    2.5791   31.4365 C.ar    1  UNL1       -0.0043
     15 C         -22.7503    1.5543   26.0904 C.2     1  UNL1       -0.0085
     16 C         -26.9981    2.6768   32.2165 C.ar    1  UNL1       -0.0003
     17 C         -23.9966    1.7509   25.4388 C.2     1  UNL1       -0.0049
     18 C         -25.0567    2.3622   26.2211 C.2     1  UNL1       -0.0218
     19 C         -24.1589    2.4255   27.6848 C.3     1  UNL1        0.0480
     20 C         -27.2393    1.7254   33.1800 C.ar    1  UNL1       -0.0000
     21 C         -26.4247    0.6364   33.3393 C.ar    1  UNL1       -0.0003
     22 C         -25.2984    0.4911   32.4388 C.ar    1  UNL1       -0.0043
@<TRIPOS>BOND
     1     4     5    1
     2     5     8    1
     3     8     9    1
     4     8    10    1
     5    10    11    1
     6     9    12    1
     7    11    13    1
     8    13    15    2
     9    15    17    1
    10    17    18    2
    11    13    19    1
    12    18    19    1
    13     1     2   ar
    14     2     6   ar
    15     6     7   ar
    16     7     4   ar
    17     4     3   ar
    18     3     1   ar
    19    12    14   ar
    20    14    16   ar
    21    16    20   ar
    22    20    21   ar
    23    21    22   ar
    24    22    12   ar
