@<TRIPOS>MOLECULE
No_1019-gen_results/8p0m/2024-11-26-14-13-15/
 27 30 0 0 0
SMALL
GASTEIGER

@<TRIPOS>ATOM
      1 C         -28.0162   -0.8135   28.8779 C.ar    1  UNL1       -0.0003
      2 C         -28.4690   -0.7850   29.8287 C.ar    1  UNL1       -0.0000
      3 C         -27.0871    0.2903   28.6377 C.ar    1  UNL1       -0.0033
      4 C         -26.2516    0.4114   27.4223 C.2     1  UNL1       -0.0003
      5 C         -28.3913    0.1041   30.9805 C.ar    1  UNL1       -0.0003
      6 C         -27.5332    1.1666   30.7866 C.ar    1  UNL1       -0.0035
      7 C         -26.8281    1.2557   29.6454 C.ar    1  UNL1       -0.0110
      8 C         -25.1385    0.6748   27.2307 C.2     1  UNL1        0.0035
      9 C         -24.3158    0.8670   28.4418 C.2     1  UNL1        0.0679
     10 C         -24.4957    1.5112   29.5560 C.2     1  UNL1       -0.0104
     11 C         -25.5260    1.8221   30.0101 C.3     1  UNL1        0.1089
     12 C         -22.8840    0.4487   28.2227 C.3     1  UNL1        0.4183
     13 F         -22.3859    0.0033   29.3104 F       1  UNL1       -0.1659
     14 F         -22.7883   -0.5881   27.3874 F       1  UNL1       -0.1659
     15 F         -22.1142    1.3903   27.6474 F       1  UNL1       -0.1659
     16 C         -27.2174    1.2218   26.5148 C.ar    1  UNL1       -0.0000
     17 C         -27.4877    0.4715   25.3289 C.ar    1  UNL1       -0.0000
     18 C         -28.5843    0.7910   24.5082 C.ar    1  UNL1       -0.0000
     19 C         -29.1152   -0.0896   23.6709 C.ar    1  UNL1        0.0000
     20 C         -30.4314    0.0621   23.3004 C.ar    1  UNL1        0.0000
     21 C         -31.1291    1.2674   23.4737 C.ar    1  UNL1        0.0000
     22 C         -30.4894    2.3352   24.1343 C.ar    1  UNL1        0.0000
     23 C         -29.1743    2.0835   24.6412 C.ar    1  UNL1        0.0000
     24 C         -27.7885    2.4473   26.7610 C.ar    1  UNL1       -0.0000
     25 C         -28.8887    2.9083   25.9040 C.ar    1  UNL1       -0.0000
     26 C         -25.6791    3.1560   30.4432 C.2     1  UNL1        0.2157
     27 O         -25.3700    3.3245   31.6145 O.2     1  UNL1       -0.2876
@<TRIPOS>BOND
     1     3     4    1
     2     4     8    2
     3     8     9    1
     4     9    10    2
     5     7    11    1
     6    10    11    1
     7     9    12    1
     8    12    13    1
     9    12    14    1
    10    12    15    1
    11     4    16    1
    12    11    26    1
    13    26    27    2
    14    18    19   ar
    15    19    20   ar
    16    20    21   ar
    17    21    22   ar
    18    22    23   ar
    19     1     2   ar
    20     2     5   ar
    21     5     6   ar
    22     6     7   ar
    23     7     3   ar
    24     3     1   ar
    25    16    17   ar
    26    17    18   ar
    27    18    23   ar
    28    23    25   ar
    29    25    24   ar
    30    24    16   ar
