@<TRIPOS>MOLECULE
No_1022-gen_results/8p0m/2024-11-26-14-13-15/
 19 21 0 0 0
SMALL
GASTEIGER

@<TRIPOS>ATOM
      1 C         -28.0162   -0.8135   28.8779 C.ar    1  UNL1        0.0031
      2 C         -27.0636   -0.1190   28.6079 C.ar    1  UNL1        0.0353
      3 C         -26.9716    0.7139   27.5060 C.ar    1  UNL1       -0.0144
      4 C         -28.1053    0.7744   26.6421 C.ar    1  UNL1        0.0027
      5 C         -29.2041    0.1179   27.0477 C.ar    1  UNL1        0.0795
      6 C         -29.2127   -0.6088   28.1281 C.ar    1  UNL1        0.0067
      7 C         -25.7106    1.4518   27.1380 C.3     1  UNL1        0.0567
      8 C         -24.6052    0.9253   27.6902 C.ar    1  UNL1        0.0312
      9 C         -24.6227    0.0600   28.8225 C.ar    1  UNL1        0.0405
     10 C         -25.7269   -0.4734   29.2409 C.2     1  UNL1        0.1951
     11 C         -23.2725    1.6786   27.4284 C.ar    1  UNL1        0.2186
     12 N         -22.1234    1.1192   27.8410 N.ar    1  UNL1       -0.2167
     13 F         -23.2665    2.7222   26.7486 F       1  UNL1       -0.1835
     14 C         -30.4399    0.3124   26.2197 C.2     1  UNL1        0.3877
     15 O         -30.7704    1.3075   25.8696 O.co2   1  UNL1       -0.2406
     16 O         -31.1094   -0.7739   25.9461 O.co2   1  UNL1       -0.2406
     17 C         -21.9940    0.1234   28.7047 C.ar    1  UNL1        0.1014
     18 C         -23.2992   -0.4497   29.3239 C.ar    1  UNL1        0.0237
     19 O         -25.7834   -1.3087   30.2320 O.2     1  UNL1       -0.2866
@<TRIPOS>BOND
     1     3     7    1
     2     2    10    1
     3     9    10    1
     4    11    13    1
     5     5    14    1
     6    14    15   ar
     7    14    16   ar
     8    10    19    2
     9     7     8    1
    10     1     2   ar
    11     2     3   ar
    12     3     4   ar
    13     4     5   ar
    14     5     6   ar
    15     6     1   ar
    16     8     9   ar
    17     9    18   ar
    18    18    17   ar
    19    17    12   ar
    20    12    11   ar
    21    11     8   ar
