@<TRIPOS>MOLECULE
No_1023-gen_results/8p0m/2024-11-26-14-13-15/
 23 25 0 0 0
SMALL
GASTEIGER

@<TRIPOS>ATOM
      1 C         -28.0162   -0.8135   28.8779 C.ar    1  UNL1        0.0148
      2 C         -27.0636   -0.1189   28.6079 C.ar    1  UNL1        0.0516
      3 N         -26.9849    0.5972   27.5218 N.pl3   1  UNL1       -0.2850
      4 C         -27.9606   -1.5421   30.1660 C.ar    1  UNL1        0.0013
      5 C         -26.8633   -1.6702   30.6613 C.ar    1  UNL1        0.0001
      6 C         -25.6309   -1.1471   30.3294 C.ar    1  UNL1        0.0013
      7 C         -25.7307   -0.3002   29.1969 C.ar    1  UNL1        0.0148
      8 C         -26.6932    1.9442   27.4779 C.ar    1  UNL1        0.0545
      9 C         -26.0521    2.6977   27.1006 C.ar    1  UNL1        0.0328
     10 C         -24.7959    2.3870   26.2751 C.2     1  UNL1        0.0028
     11 C         -23.6622    2.0800   26.8396 C.2     1  UNL1       -0.0002
     12 C         -23.4832    1.9647   28.2574 C.2     1  UNL1       -0.0046
     13 C         -22.1516    1.5834   28.7450 C.2     1  UNL1       -0.0258
     14 C         -21.1812    1.1787   27.8728 C.3     1  UNL1        0.0307
     15 C         -27.0835    0.0665   26.1607 C.3     1  UNL1        0.1173
     16 C         -27.7579    2.6314   28.5038 C.ar    1  UNL1        0.0313
     17 C         -28.6164    2.3394   29.0241 C.ar    1  UNL1        0.0027
     18 C         -29.4334    3.0989   29.9044 C.ar    1  UNL1        0.0001
     19 C         -29.0703    4.3854   30.1012 C.ar    1  UNL1        0.0015
     20 C         -27.4653    4.1453   28.8840 C.ar    1  UNL1        0.0825
     21 C         -28.0845    4.9553   29.5883 C.ar    1  UNL1        0.0191
     22 N         -26.2063    4.6893   28.1481 N.ar    1  UNL1       -0.2438
     23 C         -25.6606    4.1668   27.3544 C.ar    1  UNL1        0.1000
@<TRIPOS>BOND
     1     2     3    1
     2     3     8    1
     3     9    10    1
     4    10    11    2
     5    11    12    1
     6    12    13    2
     7    13    14    1
     8     3    15    1
     9     8     9   ar
    10     9    23   ar
    11    23    22   ar
    12    22    20   ar
    13    16     8   ar
    14     1     2   ar
    15     2     7   ar
    16     7     6   ar
    17     6     5   ar
    18     5     4   ar
    19     4     1   ar
    20    16    17   ar
    21    17    18   ar
    22    18    19   ar
    23    19    21   ar
    24    21    20   ar
    25    20    16   ar
