@<TRIPOS>MOLECULE
No_1024-gen_results/8p0m/2024-11-26-14-13-15/
 16 18 0 0 0
SMALL
GASTEIGER

@<TRIPOS>ATOM
      1 C         -28.0162   -0.8135   28.8779 C.ar    1  UNL1        0.0033
      2 C         -28.4690   -0.7850   29.8287 C.ar    1  UNL1        0.0422
      3 C         -27.0871    0.2903   28.6377 C.ar    1  UNL1        0.0001
      4 C         -26.2516    0.4114   27.4223 C.ar    1  UNL1        0.0000
      5 C         -29.4309   -1.9307   30.2714 C.2     1  UNL1        0.2342
      6 C         -25.1465    1.2405   27.3564 C.ar    1  UNL1        0.0000
      7 C         -24.2255    1.3321   26.2834 C.ar    1  UNL1        0.0000
      8 C         -28.1740    0.2091   30.9183 C.ar    1  UNL1        0.0033
      9 C         -27.3671    1.2137   30.7558 C.ar    1  UNL1        0.0001
     10 C         -26.6794    1.2845   29.5706 C.ar    1  UNL1        0.0000
     11 C         -23.0808    2.2416   26.4040 C.ar    1  UNL1        0.0000
     12 C         -22.5862    2.4410   27.5306 C.ar    1  UNL1        0.0000
     13 C         -23.2798    2.0368   28.7601 C.ar    1  UNL1        0.0000
     14 C         -24.4589    1.4265   28.6939 C.ar    1  UNL1        0.0000
     15 C         -25.3854    1.5111   29.8308 C.ar    1  UNL1        0.0000
     16 O         -29.4620   -2.5044   31.2092 O.2     1  UNL1       -0.2831
@<TRIPOS>BOND
     1     5    16    2
     2     5     2    1
     3     1     2   ar
     4     2     8   ar
     5     8     9   ar
     6     9    10   ar
     7     3     1   ar
     8     6     7   ar
     9     7    11   ar
    10    11    12   ar
    11    12    13   ar
    12    13    14   ar
    13     3     4   ar
    14     4     6   ar
    15     6    14   ar
    16    14    15   ar
    17    15    10   ar
    18    10     3   ar
