@<TRIPOS>MOLECULE
No_1025-gen_results/8p0m/2024-11-26-14-13-15/
 25 28 0 0 0
SMALL
GASTEIGER

@<TRIPOS>ATOM
      1 C         -28.0162   -0.8135   28.8779 C.ar    1  UNL1        0.0296
      2 C         -28.4690   -0.7850   29.8287 C.ar    1  UNL1        0.0023
      3 C         -26.5455   -0.8762   28.8500 C.ar    1  UNL1        0.1401
      4 C         -25.8041   -1.0324   30.0571 C.ar    1  UNL1        0.0289
      5 C         -26.5373   -1.0386   31.2171 C.ar    1  UNL1        0.0023
      6 C         -27.8843   -0.9532   31.1862 C.ar    1  UNL1        0.0001
      7 C         -24.3555   -1.1121   30.0346 C.ar    1  UNL1        0.0185
      8 C         -23.7079   -1.1920   30.8827 C.ar    1  UNL1        0.0015
      9 C         -22.1991   -1.0954   30.9345 C.ar    1  UNL1        0.0001
     10 C         -21.6564   -0.8348   29.7237 C.ar    1  UNL1        0.0015
     11 C         -22.4112   -0.6494   28.5512 C.ar    1  UNL1        0.0177
     12 C         -23.8549   -0.7781   28.7009 C.ar    1  UNL1        0.0699
     13 F         -25.8849   -0.8531   27.7454 F       1  UNL1       -0.2042
     14 N         -24.6704   -0.6527   27.7375 N.ar    1  UNL1       -0.2409
     15 C         -24.3195    0.1425   26.4741 C.ar    1  UNL1        0.1074
     16 C         -24.1517   -1.8466   27.2635 C.ar    1  UNL1        0.4260
     17 O         -24.8785   -2.7115   27.8327 O.2     1  UNL1       -0.2222
     18 O         -24.5343   -1.7292   26.1932 O.2     1  UNL1       -0.4033
     19 C         -24.7958   -0.1581   25.3427 C.ar    1  UNL1        0.2022
     20 C         -24.9700    1.6500   26.9119 C.ar    1  UNL1        0.0194
     21 C         -23.9973    2.6673   26.6865 C.ar    1  UNL1        0.0015
     22 C         -24.4880    4.0180   26.9672 C.ar    1  UNL1        0.0000
     23 C         -25.8016    4.2360   27.3522 C.ar    1  UNL1        0.0000
     24 C         -26.6308    3.1321   27.5209 C.ar    1  UNL1        0.0000
     25 C         -26.1934    1.8808   27.2860 C.ar    1  UNL1        0.0015
@<TRIPOS>BOND
     1     4     7    1
     2     3    13    1
     3    12    14    1
     4    14    15   ar
     5    14    16   ar
     6    16    17    2
     7    16    18   ar
     8    15    19   ar
     9    18    19   ar
    10    15    20    1
    11    20    21   ar
    12    21    22   ar
    13    22    23   ar
    14    23    24   ar
    15    24    25   ar
    16    25    20   ar
    17     1     2   ar
    18     2     6   ar
    19     6     5   ar
    20     5     4   ar
    21     4     3   ar
    22     3     1   ar
    23     7     8   ar
    24     8     9   ar
    25     9    10   ar
    26    10    11   ar
    27    11    12   ar
    28    12     7   ar
