@<TRIPOS>MOLECULE
No_1026-gen_results/8p0m/2024-11-26-14-13-15/
 21 23 0 0 0
SMALL
GASTEIGER

@<TRIPOS>ATOM
      1 C         -28.0162   -0.8135   28.8779 C.ar    1  UNL1        0.0344
      2 C         -28.4690   -0.7850   29.8287 C.ar    1  UNL1        0.1450
      3 C         -27.0871    0.2903   28.6377 C.ar    1  UNL1       -0.0048
      4 C         -26.2516    0.4114   27.4223 C.3     1  UNL1        0.1015
      5 C         -28.3913    0.1041   30.9805 C.ar    1  UNL1        0.0375
      6 C         -27.5332    1.1666   30.7866 C.ar    1  UNL1        0.0028
      7 C         -26.8281    1.2557   29.6454 C.ar    1  UNL1       -0.0029
      8 C         -25.1384    0.6748   27.2308 C.ar    1  UNL1       -0.0078
      9 C         -24.3157    0.8668   28.4419 C.ar    1  UNL1       -0.0031
     10 C         -22.9392    1.2959   28.0769 C.ar    1  UNL1       -0.0003
     11 C         -22.6163    1.8588   26.8861 C.ar    1  UNL1       -0.0000
     12 C         -23.5208    1.8266   25.8597 C.ar    1  UNL1       -0.0003
     13 C         -24.7474    1.2780   26.0176 C.ar    1  UNL1       -0.0031
     14 BR        -27.3037   -0.2114   25.8895 Br      1  UNL1       -0.0720
     15 O         -29.3407   -1.9500   30.0531 O.3     1  UNL1       -0.4535
     16 C         -30.5246   -1.6863   30.4286 C.ar    1  UNL1        0.1453
     17 C         -31.1185   -0.9130   30.7089 C.ar    1  UNL1        0.0375
     18 C         -31.2038   -3.0857   30.5161 C.ar    1  UNL1        0.0375
     19 C         -32.2403   -0.7266   30.6793 C.ar    1  UNL1        0.0031
     20 C         -32.5640   -3.1082   30.6375 C.ar    1  UNL1        0.0031
     21 C         -33.1544   -1.8617   30.8039 C.ar    1  UNL1        0.0002
@<TRIPOS>BOND
     1     3     4    1
     2     4    14    1
     3     2    15    1
     4    15    16    1
     5     4     8    1
     6     8     9   ar
     7     9    10   ar
     8    10    11   ar
     9    11    12   ar
    10    12    13   ar
    11    13     8   ar
    12     1     2   ar
    13     2     5   ar
    14     5     6   ar
    15     6     7   ar
    16     7     3   ar
    17     3     1   ar
    18    16    17   ar
    19    17    19   ar
    20    19    21   ar
    21    21    20   ar
    22    20    18   ar
    23    18    16   ar
