@<TRIPOS>MOLECULE
No_1027-gen_results/8p0m/2024-11-26-14-13-15/
 10 10 0 0 0
SMALL
GASTEIGER

@<TRIPOS>ATOM
      1 C         -28.0162   -0.8135   28.8779 C.ar    1  UNL1        0.0294
      2 C         -27.0636   -0.1189   28.6079 C.ar    1  UNL1        0.1401
      3 C         -26.9716    0.7139   27.5060 C.ar    1  UNL1        0.0294
      4 C         -28.1053    0.7744   26.6421 C.ar    1  UNL1        0.0019
      5 C         -29.2008    0.1044   27.0527 C.ar    1  UNL1        0.0257
      6 C         -29.2096   -0.6029   28.1853 C.ar    1  UNL1        0.0019
      7 C         -30.3702    0.2264   26.1604 C.3     1  UNL1        0.2619
      8 CL        -31.6357   -0.7259   26.4255 Cl      1  UNL1       -0.0719
      9 F         -30.3497    0.9384   25.1123 F       1  UNL1       -0.2143
     10 F         -25.8538   -0.1818   29.3654 F       1  UNL1       -0.2042
@<TRIPOS>BOND
     1     5     7    1
     2     7     8    1
     3     7     9    1
     4     2    10    1
     5     1     2   ar
     6     2     3   ar
     7     3     4   ar
     8     4     5   ar
     9     5     6   ar
    10     6     1   ar
