@<TRIPOS>MOLECULE
No_1028-gen_results/8p0m/2024-11-26-14-13-15/
 27 27 0 0 0
SMALL
GASTEIGER

@<TRIPOS>ATOM
      1 C         -28.0162   -0.8135   28.8779 C.2     1  UNL1        0.0495
      2 C         -27.0636   -0.1190   28.6079 C.2     1  UNL1       -0.0393
      3 C         -26.8756    1.1325   28.9134 C.3     1  UNL1        0.0311
      4 C         -25.6883    1.9515   28.5672 C.3     1  UNL1        0.0811
      5 C         -24.6394    1.2834   27.8753 C.3     1  UNL1        0.0282
      6 C         -24.8068   -0.0513   27.6040 C.3     1  UNL1        0.0089
      7 C         -25.9019   -0.7670   27.9511 C.3     1  UNL1        0.0225
      8 C         -28.6455   -0.5282   30.2428 C.2     1  UNL1        0.2486
      9 N         -29.6221   -0.8997   30.6143 N.am    1  UNL1       -0.2726
     10 C         -23.4416    1.9849   27.4627 C.2     1  UNL1       -0.0311
     11 C         -23.1253    2.5790   26.6020 C.2     1  UNL1       -0.0329
     12 C         -22.2633    1.6519   28.4588 C.3     1  UNL1        0.1104
     13 N         -22.3925    0.8966   29.5142 N.3     1  UNL1       -0.2136
     14 C         -30.2004   -0.7495   31.8221 C.3     1  UNL1        0.1152
     15 O         -27.9000    0.1669   30.9902 O.2     1  UNL1       -0.2699
     16 C         -30.5177   -1.7631   29.7210 C.3     1  UNL1        0.1152
     17 C         -25.5225    3.3634   28.8878 C.2     1  UNL1        0.2307
     18 CL        -25.8122    4.3751   27.7253 Cl      1  UNL1       -0.0428
     19 O         -25.3053    3.7216   30.1115 O.2     1  UNL1       -0.2788
     20 C         -24.1558    2.9961   25.6941 C.3     1  UNL1        0.0301
     21 C         -22.7537   -0.4196   29.5010 C.3     1  UNL1        0.0891
     22 C         -23.1864   -1.0344   30.7830 C.3     1  UNL1        0.0203
     23 C         -23.2149   -0.1359   31.8546 C.3     1  UNL1        0.0203
     24 C         -24.0785    1.0131   31.6689 C.3     1  UNL1        0.0887
     25 N         -24.9295    1.4176   32.5176 N.3     1  UNL1       -0.2180
     26 C         -25.5228    2.6575   32.4180 C.3     1  UNL1        0.0887
     27 C         -24.8860    3.5060   31.9773 C.3     1  UNL1        0.0203
@<TRIPOS>BOND
     1     1     2    2
     2     2     3    1
     3     3     4    1
     4     4     5    1
     5     5     6    1
     6     2     7    1
     7     6     7    1
     8     1     8    1
     9     8     9   am
    10     5    10    1
    11    10    11    2
    12    10    12    1
    13    12    13    1
    14     9    14    1
    15     8    15    2
    16     9    16    1
    17     4    17    1
    18    17    18    1
    19    17    19    2
    20    11    20    1
    21    13    21    1
    22    21    22    1
    23    22    23    1
    24    23    24    1
    25    24    25    1
    26    25    26    1
    27    26    27    1
