@<TRIPOS>MOLECULE
No_1029-gen_results/8p0m/2024-11-26-14-13-15/
 16 17 0 0 0
SMALL
GASTEIGER

@<TRIPOS>ATOM
      1 C         -28.0162   -0.8135   28.8779 C.ar    1  UNL1       -0.0000
      2 C         -27.0636   -0.1190   28.6079 C.ar    1  UNL1       -0.0000
      3 C         -25.7647   -0.3897   29.0360 C.ar    1  UNL1       -0.0003
      4 C         -25.5296   -1.5302   29.9014 C.ar    1  UNL1       -0.0000
      5 C         -26.6577   -2.2915   30.2035 C.ar    1  UNL1       -0.0000
      6 C         -27.8548   -1.9555   29.7630 C.ar    1  UNL1       -0.0000
      7 C         -24.5349    0.4128   28.7431 C.ar    1  UNL1       -0.0023
      8 C         -24.0543    1.3255   29.5757 C.ar    1  UNL1       -0.0006
      9 C         -22.9412    2.1455   29.2103 C.ar    1  UNL1       -0.0026
     10 C         -22.2591    1.9298   27.9819 C.ar    1  UNL1       -0.0003
     11 C         -23.8354    0.3239   27.4986 C.ar    1  UNL1       -0.0003
     12 C         -22.7850    1.0558   27.1900 C.ar    1  UNL1       -0.0000
     13 C         -24.6740    1.5321   30.9370 C.3     1  UNL1        0.1386
     14 N         -24.8307    2.7532   31.4536 N.pl3   1  UNL1       -0.2315
     15 C         -26.0582    3.3274   31.6887 C.2     1  UNL1        0.0805
     16 C         -25.9821    4.6371   32.1427 C.2     1  UNL1        0.0188
@<TRIPOS>BOND
     1     3     7    1
     2     8    13    1
     3    13    14    1
     4    14    15    1
     5    15    16    2
     6     7     8   ar
     7     8     9   ar
     8     9    10   ar
     9    10    12   ar
    10    12    11   ar
    11    11     7   ar
    12     1     2   ar
    13     2     3   ar
    14     3     4   ar
    15     4     5   ar
    16     5     6   ar
    17     6     1   ar
