@<TRIPOS>MOLECULE
No_103-gen_results/8p0m/2024-11-26-14-13-15/
 15 15 0 0 0
SMALL
GASTEIGER

@<TRIPOS>ATOM
      1 F         -28.0727   -1.2542   28.5316 F       1  UNL1       -0.2018
      2 C         -27.0607   -0.6291   28.8721 C.ar    1  UNL1        0.1673
      3 C         -26.1528   -1.1557   29.4537 C.ar    1  UNL1        0.1676
      4 C         -24.8778   -0.5788   29.8639 C.ar    1  UNL1        0.0385
      5 C         -24.7426    0.8273   29.4808 C.ar    1  UNL1        0.0860
      6 C         -25.7883    1.3927   28.7628 C.ar    1  UNL1        0.0802
      7 C         -26.9145    0.7309   28.4427 C.ar    1  UNL1        0.0360
      8 C         -25.2594    2.7741   28.3902 C.3     1  UNL1        0.4189
      9 F         -24.1632    2.8858   27.8833 F       1  UNL1       -0.1659
     10 F         -25.2797    3.6520   29.4594 F       1  UNL1       -0.1659
     11 F         -26.2459    3.3764   27.5875 F       1  UNL1       -0.1659
     12 F         -26.2143   -2.4549   29.9208 F       1  UNL1       -0.2018
     13 C         -23.4313    1.3502   29.9367 C.2     1  UNL1        0.3878
     14 O         -22.5447    1.7501   29.2231 O.co2   1  UNL1       -0.2406
     15 O         -23.4049    1.6359   31.2578 O.co2   1  UNL1       -0.2406
@<TRIPOS>BOND
     1     1     2    1
     2     6     8    1
     3     8     9    1
     4     8    10    1
     5     8    11    1
     6     3    12    1
     7     5    13    1
     8    13    14   ar
     9    13    15   ar
    10     2     3   ar
    11     3     4   ar
    12     4     5   ar
    13     5     6   ar
    14     6     7   ar
    15     7     2   ar
