@<TRIPOS>MOLECULE
No_1030-gen_results/8p0m/2024-11-26-14-13-15/
 35 38 0 0 0
SMALL
GASTEIGER

@<TRIPOS>ATOM
      1 C         -28.0162   -0.8135   28.8779 C.ar    1  UNL1        0.0369
      2 C         -27.0636   -0.1190   28.6079 C.ar    1  UNL1        0.0028
      3 C         -25.7647   -0.3897   29.0360 C.ar    1  UNL1       -0.0038
      4 C         -24.5516    0.4058   28.7646 C.ar    1  UNL1       -0.0228
      5 C         -23.2300    0.1178   29.2575 C.ar    1  UNL1       -0.0043
      6 C         -23.0942   -1.1309   29.8730 C.ar    1  UNL1       -0.0003
      7 C         -27.7981   -1.9341   29.8560 C.ar    1  UNL1        0.1394
      8 C         -26.5420   -2.3269   30.2580 C.ar    1  UNL1        0.0369
      9 C         -25.4514   -1.5516   29.9079 C.ar    1  UNL1        0.0027
     10 C         -24.1562   -1.9097   30.2809 C.ar    1  UNL1        0.0001
     11 C         -24.6450    1.6582   27.9464 C.3     1  UNL1        0.0190
     12 C         -25.0764    1.5784   26.6992 C.3     1  UNL1        0.0044
     13 C         -23.2842    2.4009   28.0085 C.3     1  UNL1        0.0044
     14 C         -25.5975    2.6286   28.7777 C.3     1  UNL1        0.0067
     15 C         -25.3815    4.0349   28.5942 C.3     1  UNL1        0.0331
     16 C         -26.0248    4.8521   29.6673 C.3     1  UNL1        0.1389
     17 CL        -25.2834    4.9946   30.9468 Cl      1  UNL1       -0.0970
     18 N         -26.3126    6.2212   29.1266 N.3     1  UNL1       -0.2569
     19 O         -28.9256   -2.6486   30.1600 O.3     1  UNL1       -0.4637
     20 C         -29.2143   -2.8798   31.5244 C.3     1  UNL1        0.3186
     21 C         -29.7352   -4.2119   31.7352 C.2     1  UNL1        0.4084
     22 O         -29.5289   -5.0644   31.0304 O.co2   1  UNL1       -0.2415
     23 O         -30.0093   -4.5959   32.9810 O.co2   1  UNL1       -0.2415
     24 C         -26.5469    7.1689   29.7460 C.3     1  UNL1        0.0998
     25 C         -26.8812    6.0895   27.7295 C.3     1  UNL1        0.0781
     26 C         -26.6957    8.4321   29.1980 C.ar    1  UNL1       -0.0064
     27 C         -27.3571    8.5524   27.9807 C.ar    1  UNL1       -0.0171
     28 C         -27.6744    9.7066   27.3407 C.ar    1  UNL1        0.0304
     29 C         -27.3207    7.3171   27.1820 C.3     1  UNL1        0.0439
     30 BR        -28.6813   10.1482   26.1111 Br      1  UNL1       -0.0493
     31 C         -26.9171   10.9858   27.9126 C.ar    1  UNL1        0.0065
     32 C         -26.4929   10.9410   29.1434 C.ar    1  UNL1        0.0035
     33 C         -26.3323    9.7122   29.8554 C.ar    1  UNL1        0.0393
     34 C         -25.5641    9.6916   31.1443 C.2     1  UNL1        0.2339
     35 O         -24.7668    9.0112   31.4014 O.2     1  UNL1       -0.2832
@<TRIPOS>BOND
     1     4    11    1
     2    11    12    1
     3    11    13    1
     4    11    14    1
     5    14    15    1
     6    15    16    1
     7    16    17    1
     8    16    18    1
     9     7    19    1
    10    19    20    1
    11    20    21    1
    12    21    22   ar
    13    21    23   ar
    14    18    24    1
    15    18    25    1
    16    27    29    1
    17    28    30    1
    18    33    34    1
    19    34    35    2
    20    24    26    1
    21    29    25    1
    22     1     2   ar
    23     2     3   ar
    24     9     8   ar
    25     8     7   ar
    26     7     1   ar
    27    26    27   ar
    28    27    28   ar
    29    28    31   ar
    30    31    32   ar
    31    32    33   ar
    32    33    26   ar
    33     3     4   ar
    34     4     5   ar
    35     5     6   ar
    36     6    10   ar
    37    10     9   ar
    38     9     3   ar
