@<TRIPOS>MOLECULE
No_1032-gen_results/8p0m/2024-11-26-14-13-15/
 26 29 0 0 0
SMALL
GASTEIGER

@<TRIPOS>ATOM
      1 C         -28.0162   -0.8135   28.8779 C.3     1  UNL1        0.1218
      2 C         -27.0636   -0.1189   28.6079 C.ar    1  UNL1       -0.0042
      3 C         -27.0010    0.6913   27.4910 C.ar    1  UNL1       -0.0025
      4 C         -25.8548    1.4825   27.0830 C.ar    1  UNL1       -0.0024
      5 C         -24.6901    1.4526   27.8807 C.ar    1  UNL1        0.0063
      6 C         -24.7379    0.6010   29.0416 C.ar    1  UNL1        0.0795
      7 C         -25.8234   -0.1688   29.3887 C.ar    1  UNL1        0.0037
      8 N         -28.7568   -0.5479   30.0191 N.am    1  UNL1       -0.2547
      9 C         -28.9317    0.3890   30.5031 C.3     1  UNL1        0.1218
     10 C         -29.0495    1.5382   29.9451 C.ar    1  UNL1       -0.0032
     11 C         -29.3524    2.7841   30.6720 C.ar    1  UNL1       -0.0031
     12 C         -29.3522    4.0367   30.0216 C.ar    1  UNL1       -0.0033
     13 C         -29.1011    4.0564   28.6129 C.ar    1  UNL1       -0.0088
     14 C         -28.8471    2.9203   27.9422 C.ar    1  UNL1        0.0418
     15 C         -28.7593    1.7236   28.5703 C.ar    1  UNL1        0.0105
     16 C         -27.5912    1.2198   27.8235 C.3     1  UNL1        0.1188
     17 N         -27.8268    2.4554   27.1656 N.pl3   1  UNL1       -0.3005
     18 C         -28.4272    2.4202   25.8565 C.3     1  UNL1        0.1127
     19 C         -29.4979   -1.8628   30.6096 C.2     1  UNL1        0.3238
     20 O         -29.3177   -2.8411   30.3749 O.2     1  UNL1       -0.2508
     21 N         -30.0979   -1.5525   31.8610 N.am    1  UNL1       -0.1865
     22 C         -30.7408   -2.6326   32.5643 C.3     1  UNL1        0.1402
     23 C         -23.4619    0.5765   29.8787 C.2     1  UNL1        0.3877
     24 O         -22.3702    0.7416   29.3981 O.co2   1  UNL1       -0.2406
     25 O         -23.6391    0.4499   31.2194 O.co2   1  UNL1       -0.2406
     26 C         -29.0817    5.3870   27.9148 C.3     1  UNL1        0.0323
@<TRIPOS>BOND
     1     1     2    1
     2     1     8    1
     3     8     9    1
     4     3    16    1
     5    15    16    1
     6    14    17    1
     7    16    17    1
     8    17    18    1
     9     8    19   am
    10    19    20    2
    11    19    21   am
    12    21    22    1
    13     6    23    1
    14    23    24   ar
    15    23    25   ar
    16    13    26    1
    17     9    10    1
    18     2     3   ar
    19     3     4   ar
    20     4     5   ar
    21     5     6   ar
    22     6     7   ar
    23     7     2   ar
    24    10    11   ar
    25    11    12   ar
    26    12    13   ar
    27    13    14   ar
    28    14    15   ar
    29    15    10   ar
