@<TRIPOS>MOLECULE
No_1033-gen_results/8p0m/2024-11-26-14-13-15/
 15 16 0 0 0
SMALL
GASTEIGER

@<TRIPOS>ATOM
      1 C         -28.0162   -0.8135   28.8779 C.2     1  UNL1       -0.0085
      2 C         -27.0636   -0.1190   28.6079 C.2     1  UNL1       -0.0442
      3 C         -25.7647   -0.3897   29.0360 C.3     1  UNL1        0.0225
      4 C         -24.5516    0.4058   28.7646 C.3     1  UNL1        0.0121
      5 C         -24.6957    1.4480   27.7988 C.3     1  UNL1        0.0655
      6 C         -25.9755    1.7250   27.3077 C.3     1  UNL1        0.0121
      7 C         -27.0718    1.0134   27.6535 C.3     1  UNL1        0.0225
      8 C         -28.6043   -0.4743   30.2323 C.ar    1  UNL1       -0.0006
      9 C         -29.6322   -0.5049   30.6010 C.ar    1  UNL1       -0.0000
     10 C         -30.1085   -0.1742   31.9668 C.ar    1  UNL1       -0.0000
     11 C         -29.1617    0.1610   32.9068 C.ar    1  UNL1       -0.0000
     12 C         -27.8097    0.1269   32.5283 C.ar    1  UNL1       -0.0000
     13 C         -27.4816   -0.1779   31.3039 C.ar    1  UNL1       -0.0000
     14 C         -23.4991    2.2013   27.4456 C.2     1  UNL1        0.2070
     15 O         -22.3216    1.8346   27.7412 O.2     1  UNL1       -0.2883
@<TRIPOS>BOND
     1     1     2    2
     2     2     3    1
     3     3     4    1
     4     4     5    1
     5     5     6    1
     6     2     7    1
     7     6     7    1
     8     1     8    1
     9     5    14    1
    10    14    15    2
    11     8     9   ar
    12     9    10   ar
    13    10    11   ar
    14    11    12   ar
    15    12    13   ar
    16    13     8   ar
