@<TRIPOS>MOLECULE
No_1035-gen_results/8p0m/2024-11-26-14-13-15/
 22 24 0 0 0
SMALL
GASTEIGER

@<TRIPOS>ATOM
      1 C         -28.0162   -0.8135   28.8779 C.ar    1  UNL1        0.0432
      2 C         -28.4690   -0.7850   29.8287 C.ar    1  UNL1        0.0828
      3 C         -27.1356    0.2359   28.5352 C.ar    1  UNL1        0.1358
      4 C         -26.8050    1.0509   29.2763 C.ar    1  UNL1        0.0196
      5 C         -28.2372    0.1503   30.9300 C.ar    1  UNL1        0.0065
      6 C         -27.3522    1.1239   30.6071 C.ar    1  UNL1       -0.0004
      7 O         -26.5358    0.1657   27.2407 O.3     1  UNL1       -0.4709
      8 C         -25.9517    1.3444   26.7368 C.3     1  UNL1        0.2317
      9 C         -24.6698    1.5739   27.4291 C.ar    1  UNL1        0.0178
     10 C         -24.6835    2.1201   28.7906 C.ar    1  UNL1       -0.0147
     11 C         -25.5521    2.2198   29.2920 C.3     1  UNL1        0.0691
     12 C         -23.4866    1.5646   26.5625 C.ar    1  UNL1       -0.0010
     13 C         -22.2247    1.6605   27.2427 C.ar    1  UNL1       -0.0002
     14 C         -22.1752    2.0765   28.6419 C.ar    1  UNL1       -0.0003
     15 C         -23.2853    2.2781   29.3178 C.ar    1  UNL1       -0.0038
     16 C         -29.5311   -1.9414   30.2684 C.2     1  UNL1        0.3879
     17 O         -29.1248   -3.1215   30.5274 O.co2   1  UNL1       -0.2406
     18 O         -30.6105   -1.6370   30.8153 O.co2   1  UNL1       -0.2406
     19 C         -26.3614    3.6650   29.0944 C.2     1  UNL1       -0.0176
     20 C         -26.2882    4.3608   30.3025 C.2     1  UNL1       -0.0039
     21 C         -26.8138    5.6977   30.2469 C.2     1  UNL1       -0.0003
     22 C         -27.4857    6.1329   29.1303 C.2     1  UNL1       -0.0000
@<TRIPOS>BOND
     1     3     7    1
     2     7     8    1
     3     8     9    1
     4     4    11    1
     5     2    16    1
     6    16    17   ar
     7    16    18   ar
     8    11    19    1
     9    19    20    2
    10    20    21    1
    11    21    22    2
    12    11    10    1
    13     9    10   ar
    14    10    15   ar
    15    15    14   ar
    16    14    13   ar
    17    13    12   ar
    18    12     9   ar
    19     1     2   ar
    20     2     5   ar
    21     5     6   ar
    22     6     4   ar
    23     4     3   ar
    24     3     1   ar
