@<TRIPOS>MOLECULE
No_1036-gen_results/8p0m/2024-11-26-14-13-15/
 25 27 0 0 0
SMALL
GASTEIGER

@<TRIPOS>ATOM
      1 C         -28.0162   -0.8135   28.8779 C.ar    1  UNL1        0.0000
      2 C         -27.0636   -0.1189   28.6079 C.ar    1  UNL1        0.0000
      3 C         -25.7647   -0.3897   29.0360 C.ar    1  UNL1        0.0001
      4 C         -24.5516    0.4058   28.7646 C.ar    1  UNL1        0.0029
      5 C         -23.2300    0.1178   29.2575 C.ar    1  UNL1        0.0001
      6 C         -23.0942   -1.1309   29.8730 C.ar    1  UNL1        0.0000
      7 C         -27.7981   -1.9341   29.8560 C.ar    1  UNL1        0.0000
      8 C         -26.5420   -2.3269   30.2580 C.ar    1  UNL1        0.0000
      9 C         -25.4514   -1.5516   29.9079 C.ar    1  UNL1        0.0000
     10 C         -24.1562   -1.9097   30.2809 C.ar    1  UNL1        0.0000
     11 C         -24.6450    1.6582   27.9464 C.ar    1  UNL1        0.0340
     12 C         -24.8958    2.7559   28.5615 C.ar    1  UNL1        0.1391
     13 C         -25.1728    3.9344   27.8439 C.ar    1  UNL1        0.0369
     14 C         -24.4838    1.5571   26.5889 C.ar    1  UNL1        0.0030
     15 C         -24.6321    2.6940   25.7850 C.ar    1  UNL1        0.0002
     16 C         -24.8902    3.9231   26.4317 C.ar    1  UNL1        0.0031
     17 O         -25.0758    2.9107   29.9068 O.3     1  UNL1       -0.4673
     18 C         -26.2306    3.1355   30.6083 C.3     1  UNL1        0.2719
     19 C         -26.3258    2.3912   31.7784 C.2     1  UNL1        0.4044
     20 O         -26.5669    2.9786   32.7224 O.co2   1  UNL1       -0.2416
     21 O         -26.2407    1.1070   31.7105 O.co2   1  UNL1       -0.2416
     22 C         -27.2165    3.9469   30.1124 C.3     1  UNL1        0.0811
     23 C         -28.2420    3.3598   29.3395 C.2     1  UNL1       -0.0264
     24 C         -28.8310    4.1430   28.3547 C.2     1  UNL1       -0.0302
     25 C         -28.6902    5.4996   28.4044 C.3     1  UNL1        0.0303
@<TRIPOS>BOND
     1     4    11    1
     2    12    17    1
     3    17    18    1
     4    18    19    1
     5    19    20   ar
     6    19    21   ar
     7    18    22    1
     8    22    23    1
     9    23    24    2
    10    24    25    1
    11     1     2   ar
    12     2     3   ar
    13     9     8   ar
    14     8     7   ar
    15     7     1   ar
    16    11    12   ar
    17    12    13   ar
    18    13    16   ar
    19    16    15   ar
    20    15    14   ar
    21    14    11   ar
    22     3     4   ar
    23     4     5   ar
    24     5     6   ar
    25     6    10   ar
    26    10     9   ar
    27     9     3   ar
