@<TRIPOS>MOLECULE
No_1037-gen_results/8p0m/2024-11-26-14-13-15/
 11 11 0 0 0
SMALL
GASTEIGER

@<TRIPOS>ATOM
      1 C         -28.0162   -0.8135   28.8779 C.ar    1  UNL1       -0.0043
      2 C         -27.0636   -0.1190   28.6079 C.ar    1  UNL1       -0.0218
      3 C         -27.0010    0.6913   27.4910 C.3     1  UNL1        0.0310
      4 C         -28.1373    0.7363   26.6350 C.3     1  UNL1        0.0304
      5 C         -28.1438    1.4323   25.4881 C.2     1  UNL1       -0.0303
      6 C         -27.9644   -1.5920   30.1433 C.ar    1  UNL1       -0.0003
      7 C         -26.7541   -1.7211   30.8035 C.ar    1  UNL1       -0.0000
      8 C         -25.6278   -1.0733   30.4055 C.ar    1  UNL1       -0.0003
      9 C         -25.7245   -0.2495   29.3126 C.ar    1  UNL1       -0.0043
     10 C         -26.9843    2.0884   25.0239 C.2     1  UNL1       -0.0303
     11 C         -25.8258    2.0276   25.7649 C.3     1  UNL1        0.0303
@<TRIPOS>BOND
     1     3     4    1
     2     4     5    1
     3     5    10    2
     4    10    11    1
     5     3     2    1
     6     1     2   ar
     7     2     9   ar
     8     9     8   ar
     9     8     7   ar
    10     7     6   ar
    11     6     1   ar
