@<TRIPOS>MOLECULE
No_104-gen_results/8p0m/2024-11-26-14-13-15/
 27 27 0 0 0
SMALL
GASTEIGER

@<TRIPOS>ATOM
      1 C         -28.0162   -0.8135   28.8779 C.ar    1  UNL1        0.0111
      2 C         -28.4690   -0.7850   29.8287 C.ar    1  UNL1        0.0008
      3 C         -26.5455   -0.8762   28.8500 C.ar    1  UNL1        0.0537
      4 C         -25.8041   -1.0324   30.0571 C.ar    1  UNL1       -0.0113
      5 C         -26.5373   -1.0386   31.2171 C.ar    1  UNL1       -0.0034
      6 C         -27.8843   -0.9532   31.1862 C.ar    1  UNL1       -0.0003
      7 C         -24.3555   -1.1121   30.0346 C.3     1  UNL1        0.0319
      8 C         -23.6610    0.1027   29.8448 C.3     1  UNL1        0.0304
      9 C         -23.9525    1.2330   30.4520 C.3     1  UNL1        0.0303
     10 C         -22.5070    0.1052   28.9319 C.2     1  UNL1       -0.0303
     11 C         -22.0627    1.2509   28.2955 C.2     1  UNL1       -0.0303
     12 C         -25.1038    1.3071   31.3908 C.2     1  UNL1       -0.0303
     13 C         -25.6574    2.5466   31.7054 C.2     1  UNL1       -0.0290
     14 C         -25.0458    3.7191   31.2977 C.3     1  UNL1        0.0458
     15 C         -25.8576    4.7149   31.0724 C.3     1  UNL1        0.0816
     16 C         -25.3222    5.9279   30.4663 C.3     1  UNL1        0.0222
     17 CL        -25.6242   -0.8520   27.3829 Cl      1  UNL1       -0.0826
     18 C         -21.1431    1.2421   27.3157 C.3     1  UNL1        0.0303
     19 N         -27.0545    4.3220   30.3581 N.pl3   1  UNL1       -0.2865
     20 C         -27.0074    3.8034   29.2375 C.2     1  UNL1        0.0607
     21 C         -28.2101    3.2703   28.7218 C.2     1  UNL1       -0.0097
     22 C         -28.8166    4.0568   27.8475 C.3     1  UNL1        0.0320
     23 C         -28.3212    4.5581   31.0092 C.2     1  UNL1        0.0654
     24 C         -30.0571    3.5960   27.2953 C.3     1  UNL1        0.0307
     25 C         -29.1854    3.5922   31.1345 C.2     1  UNL1        0.0174
     26 C         -30.4174    2.3251   27.5052 C.2     1  UNL1       -0.0258
     27 C         -29.7602    1.5172   28.4275 C.2     1  UNL1       -0.0049
@<TRIPOS>BOND
     1     4     7    1
     2     7     8    1
     3     8     9    1
     4     8    10    1
     5    10    11    2
     6     9    12    1
     7    12    13    2
     8    13    14    1
     9    14    15    1
    10    15    16    1
    11     3    17    1
    12    11    18    1
    13    15    19    1
    14    19    20    1
    15    20    21    2
    16    21    22    1
    17    19    23    1
    18    22    24    1
    19    23    25    2
    20    24    26    1
    21    26    27    2
    22     1     2   ar
    23     2     6   ar
    24     6     5   ar
    25     5     4   ar
    26     4     3   ar
    27     3     1   ar
