@<TRIPOS>MOLECULE
No_1041-gen_results/8p0m/2024-11-26-14-13-15/
 32 36 0 0 0
SMALL
GASTEIGER

@<TRIPOS>ATOM
      1 C         -28.0162   -0.8135   28.8779 C.ar    1  UNL1        0.0375
      2 C         -27.0636   -0.1190   28.6079 C.ar    1  UNL1        0.0031
      3 C         -25.7923   -0.4302   29.0761 C.ar    1  UNL1        0.0002
      4 C         -25.5756   -1.5654   29.9363 C.ar    1  UNL1        0.0031
      5 C         -26.7354   -2.3004   30.2173 C.ar    1  UNL1        0.0375
      6 C         -27.9184   -1.9537   29.7629 C.ar    1  UNL1        0.1454
      7 O         -29.0001   -2.7012   30.1151 O.3     1  UNL1       -0.4504
      8 C         -24.5290    0.3490   28.7998 C.ar    1  UNL1        0.0000
      9 C         -24.4808    1.2113   27.7998 C.ar    1  UNL1        0.0000
     10 C         -23.2478    1.8974   27.4951 C.ar    1  UNL1        0.0000
     11 C         -22.0497    1.5890   28.1642 C.ar    1  UNL1        0.0000
     12 C         -23.3072    0.0149   29.4618 C.ar    1  UNL1        0.0000
     13 C         -22.0852    0.6899   29.1374 C.ar    1  UNL1        0.0000
     14 C         -30.1270   -2.1323   30.5815 C.2     1  UNL1        0.1808
     15 C         -30.2256   -1.1430   31.0416 C.2     1  UNL1        0.0404
     16 C         -29.0459   -0.3943   31.5016 C.ar    1  UNL1       -0.0008
     17 C         -29.2756    1.0283   31.9596 C.ar    1  UNL1       -0.0002
     18 C         -28.2060    1.6229   32.6508 C.ar    1  UNL1       -0.0000
     19 C         -26.9058    1.0166   32.7464 C.ar    1  UNL1       -0.0003
     20 C         -26.8269   -0.3198   32.3724 C.ar    1  UNL1       -0.0043
     21 C         -27.8501   -0.9206   31.8238 C.ar    1  UNL1       -0.0217
     22 C         -27.9119   -2.2831   32.4668 C.3     1  UNL1        0.0310
     23 C         -31.2913   -2.9784   30.1298 C.ar    1  UNL1        0.1976
     24 N         -32.2839   -2.5403   29.8021 N.ar    1  UNL1       -0.2224
     25 N         -30.9961   -4.3145   29.7328 N.ar    1  UNL1       -0.2240
     26 C         -31.9376   -5.1192   29.2072 C.ar    1  UNL1        0.0845
     27 C         -33.3812   -3.2416   29.2921 C.ar    1  UNL1        0.1021
     28 C         -33.1909   -4.5783   28.9671 C.ar    1  UNL1        0.0369
     29 C         -34.2627   -5.3605   28.3792 C.ar    1  UNL1        0.0030
     30 C         -34.1057   -6.3495   27.9145 C.ar    1  UNL1        0.0001
     31 C         -32.7267   -7.0659   28.0245 C.ar    1  UNL1        0.0015
     32 C         -31.6684   -6.3914   28.7307 C.ar    1  UNL1        0.0192
@<TRIPOS>BOND
     1     6     7    1
     2     3     8    1
     3     7    14    1
     4    14    15    2
     5    15    16    1
     6    21    22    1
     7    14    23    1
     8     1     2   ar
     9     2     3   ar
    10     3     4   ar
    11     4     5   ar
    12     5     6   ar
    13     6     1   ar
    14    23    24   ar
    15    24    27   ar
    16    27    28   ar
    17    26    25   ar
    18    25    23   ar
    19     8     9   ar
    20     9    10   ar
    21    10    11   ar
    22    11    13   ar
    23    13    12   ar
    24    12     8   ar
    25    26    28   ar
    26    28    29   ar
    27    29    30   ar
    28    30    31   ar
    29    31    32   ar
    30    32    26   ar
    31    16    17   ar
    32    17    18   ar
    33    18    19   ar
    34    19    20   ar
    35    20    21   ar
    36    21    16   ar
