@<TRIPOS>MOLECULE
No_1042-gen_results/8p0m/2024-11-26-14-13-15/
 12 13 0 0 0
SMALL
GASTEIGER

@<TRIPOS>ATOM
      1 O         -28.1229   -1.3353   28.4874 O.2     1  UNL1       -0.2749
      2 C         -27.4806   -0.4044   28.7094 C.2     1  UNL1        0.2251
      3 C         -27.1904    0.2460   29.5268 C.3     1  UNL1        0.0768
      4 N         -26.8157    0.1370   27.4262 N.am    1  UNL1       -0.2812
      5 C         -26.3550    1.4196   29.7643 C.3     1  UNL1        0.0108
      6 C         -27.0032   -0.3835   26.2012 C.3     1  UNL1        0.0933
      7 C         -25.8006    1.8629   28.4858 C.3     1  UNL1        0.0203
      8 C         -25.9935    1.2451   27.3785 C.3     1  UNL1        0.0753
      9 C         -27.7172   -0.2246   31.0011 C.3     1  UNL1        0.0096
     10 C         -27.7107    0.3531   25.2971 C.3     1  UNL1        0.0216
     11 C         -27.9070    1.6099   25.5046 C.3     1  UNL1        0.0035
     12 C         -26.7331    2.2364   26.2907 C.3     1  UNL1        0.0199
@<TRIPOS>BOND
     1     1     2    2
     2     2     3    1
     3     2     4   am
     4     3     5    1
     5     4     6    1
     6     5     7    1
     7     4     8    1
     8     3     9    1
     9     6    10    1
    10     8    12    1
    11    11    12    1
    12    10    11    1
    13     7     8    1
