@<TRIPOS>MOLECULE
No_1043-gen_results/8p0m/2024-11-26-14-13-15/
 15 16 0 0 0
SMALL
GASTEIGER

@<TRIPOS>ATOM
      1 C         -28.0162   -0.8135   28.8779 C.ar    1  UNL1        0.0066
      2 C         -27.0636   -0.1189   28.6079 C.ar    1  UNL1        0.0002
      3 C         -25.7647   -0.3897   29.0360 C.ar    1  UNL1        0.0000
      4 C         -25.5296   -1.5302   29.9014 C.ar    1  UNL1        0.0002
      5 C         -26.6577   -2.2915   30.2035 C.ar    1  UNL1        0.0066
      6 C         -27.8548   -1.9555   29.7630 C.ar    1  UNL1        0.0798
      7 C         -24.5349    0.4128   28.7431 C.ar    1  UNL1        0.0000
      8 C         -24.4835    1.2431   27.7398 C.ar    1  UNL1        0.0000
      9 C         -23.2788    1.9376   27.4159 C.ar    1  UNL1        0.0000
     10 C         -22.0791    1.6509   28.0212 C.ar    1  UNL1        0.0000
     11 C         -23.1830   -0.0213   29.1395 C.ar    1  UNL1        0.0000
     12 C         -22.0315    0.6434   28.8742 C.ar    1  UNL1        0.0000
     13 C         -29.0107   -2.7934   30.1967 C.2     1  UNL1        0.3878
     14 O         -30.0524   -2.5159   30.0304 O.co2   1  UNL1       -0.2406
     15 O         -28.6689   -3.9145   30.8534 O.co2   1  UNL1       -0.2406
@<TRIPOS>BOND
     1     3     7    1
     2     6    13    1
     3    13    14   ar
     4    13    15   ar
     5     7     8   ar
     6     8     9   ar
     7     9    10   ar
     8    10    12   ar
     9    12    11   ar
    10    11     7   ar
    11     1     2   ar
    12     2     3   ar
    13     3     4   ar
    14     4     5   ar
    15     5     6   ar
    16     6     1   ar
