@<TRIPOS>MOLECULE
No_1045-gen_results/8p0m/2024-11-26-14-13-15/
 22 24 0 0 0
SMALL
GASTEIGER

@<TRIPOS>ATOM
      1 C         -28.0162   -0.8135   28.8779 C.ar    1  UNL1        0.0574
      2 C         -27.0636   -0.1189   28.6079 C.ar    1  UNL1        0.0068
      3 C         -26.9716    0.7139   27.5060 C.ar    1  UNL1       -0.0252
      4 C         -28.1053    0.7744   26.6421 C.ar    1  UNL1       -0.0233
      5 C         -29.2008    0.1044   27.0527 C.ar    1  UNL1        0.0313
      6 C         -29.1473   -0.5384   28.3531 C.ar    1  UNL1        0.0139
      7 C         -30.3942    0.2495   26.2458 C.2     1  UNL1        0.1728
      8 C         -30.2965    0.3331   24.9368 C.3     1  UNL1        0.0695
      9 C         -29.1432    1.0951   24.3912 C.3     1  UNL1        0.0128
     10 C         -27.9535    1.1236   25.2406 C.3     1  UNL1        0.0266
     11 CL        -27.9807   -1.6728   30.4565 Cl      1  UNL1       -0.0823
     12 C         -25.8675    1.5048   26.9964 C.3     1  UNL1        0.0261
     13 C         -25.8279    2.7610   27.6678 C.3     1  UNL1        0.0264
     14 C         -24.7783    1.0237   26.3127 C.3     1  UNL1        0.0050
     15 C         -25.9955    3.3036   28.5531 C.ar    1  UNL1       -0.0222
     16 C         -26.0312    4.6886   28.8830 C.ar    1  UNL1       -0.0043
     17 C         -26.3580    5.2503   30.1619 C.ar    1  UNL1       -0.0003
     18 C         -26.4645    4.3582   31.2000 C.ar    1  UNL1       -0.0000
     19 C         -26.3580    3.0013   31.0498 C.ar    1  UNL1       -0.0003
     20 C         -26.1734    2.5217   29.8494 C.ar    1  UNL1       -0.0043
     21 C         -25.0727    3.6082   26.5096 C.3     1  UNL1        0.0050
     22 O         -31.5167   -0.3325   26.6955 O.2     1  UNL1       -0.2913
@<TRIPOS>BOND
     1     5     7    1
     2     7     8    1
     3     4    10    1
     4     9    10    1
     5     1    11    1
     6     3    12    1
     7    12    13    1
     8    12    14    1
     9    13    15    1
    10    13    21    1
    11     7    22    2
    12     9     8    1
    13     1     2   ar
    14     2     3   ar
    15     3     4   ar
    16     4     5   ar
    17     5     6   ar
    18     6     1   ar
    19    15    16   ar
    20    16    17   ar
    21    17    18   ar
    22    18    19   ar
    23    19    20   ar
    24    20    15   ar
