@<TRIPOS>MOLECULE
No_1046-gen_results/8p0m/2024-11-26-14-13-15/
 28 30 0 0 0
SMALL
GASTEIGER

@<TRIPOS>ATOM
      1 O         -28.1229   -1.3353   28.4874 O.2     1  UNL1       -0.2695
      2 C         -27.4806   -0.4044   28.7094 C.2     1  UNL1        0.2540
      3 C         -26.3804   -0.0867   27.9394 C.ar    1  UNL1        0.0675
      4 N         -27.6664    0.4468   29.8988 N.am    1  UNL1       -0.2534
      5 C         -26.4086    0.8567   26.8802 C.ar    1  UNL1        0.0560
      6 C         -25.2466    1.1198   26.1102 C.ar    1  UNL1        0.0150
      7 C         -23.9991    0.7500   26.5964 C.ar    1  UNL1        0.0013
      8 C         -23.9411    0.0388   27.7865 C.ar    1  UNL1        0.0002
      9 C         -25.0420   -0.3844   28.4675 C.ar    1  UNL1        0.0058
     10 C         -28.7623    0.1142   30.7677 C.3     1  UNL1        0.1203
     11 C         -26.8511    1.5212   30.2105 C.ar    1  UNL1        0.0543
     12 C         -26.3258    1.6272   31.1634 C.ar    1  UNL1        0.0149
     13 C         -25.3945    2.7864   31.4181 C.ar    1  UNL1        0.0014
     14 C         -25.1281    3.6371   30.3383 C.ar    1  UNL1        0.0046
     15 C         -25.7620    3.3921   29.1189 C.ar    1  UNL1        0.0551
     16 C         -26.6358    2.3526   29.0286 C.ar    1  UNL1        0.0194
     17 C         -25.4484    4.4033   28.0719 C.2     1  UNL1        0.2528
     18 N         -26.0822    5.1064   27.3925 N.am    1  UNL1       -0.2525
     19 C         -27.3578    5.1546   27.4368 C.2     1  UNL1        0.0632
     20 O         -24.1973    3.9577   27.5253 O.2     1  UNL1       -0.2696
     21 C         -25.4194    6.3025   26.7680 C.3     1  UNL1        0.1204
     22 N         -27.5910    1.2208   26.3261 N.pl3   1  UNL1       -0.2857
     23 C         -28.7373    1.1494   26.4663 C.2     1  UNL1        0.0608
     24 C         -29.7428    1.8054   25.7787 C.2     1  UNL1       -0.0083
     25 C         -29.0512    2.4351   24.8539 C.3     1  UNL1        0.0492
     26 C         -27.5462    2.2257   25.0764 C.3     1  UNL1        0.1003
     27 C         -28.2950    5.5595   27.9881 C.2     1  UNL1       -0.0096
     28 C         -29.7018    5.3209   27.8609 C.3     1  UNL1        0.0321
@<TRIPOS>BOND
     1     1     2    2
     2     2     3    1
     3     2     4   am
     4     4    10    1
     5     4    11    1
     6    15    17    1
     7    17    18   am
     8    18    19    1
     9    17    20    2
    10    18    21    1
    11     5    22    1
    12    22    23    1
    13    23    24    2
    14    24    25    1
    15    22    26    1
    16    25    26    1
    17    19    27    2
    18    27    28    1
    19    11    12   ar
    20    12    13   ar
    21    13    14   ar
    22    14    15   ar
    23    15    16   ar
    24    16    11   ar
    25     3     5   ar
    26     5     6   ar
    27     6     7   ar
    28     7     8   ar
    29     8     9   ar
    30     9     3   ar
