@<TRIPOS>MOLECULE
No_1047-gen_results/8p0m/2024-11-26-14-13-15/
 34 37 0 0 0
SMALL
GASTEIGER

@<TRIPOS>ATOM
      1 C         -28.0162   -0.8135   28.8779 C.ar    1  UNL1        0.1414
      2 C         -27.0636   -0.1189   28.6079 C.ar    1  UNL1        0.0297
      3 C         -25.7923   -0.4302   29.0761 C.ar    1  UNL1        0.0023
      4 C         -25.5756   -1.5654   29.9363 C.ar    1  UNL1        0.0002
      5 C         -26.7354   -2.3004   30.2173 C.ar    1  UNL1        0.0036
      6 C         -27.9184   -1.9537   29.7629 C.ar    1  UNL1        0.0441
      7 C         -29.0732   -2.7835   30.1783 C.2     1  UNL1        0.0908
      8 N         -28.9369   -4.0716   30.3653 N.am    1  UNL1       -0.1775
      9 C         -30.0462   -4.8326   30.6607 C.2     1  UNL1        0.2500
     10 C         -29.9285   -6.1305   30.9459 C.3     1  UNL1        0.1135
     11 O         -31.1051   -4.2536   30.9015 O.2     1  UNL1       -0.2726
     12 C         -30.8188   -6.7855   31.8891 C.ar    1  UNL1       -0.0130
     13 C         -31.8809   -6.9027   31.5412 C.ar    1  UNL1       -0.0038
     14 C         -30.1969   -7.4607   33.0365 C.ar    1  UNL1       -0.0038
     15 C         -24.5358    0.3646   28.7158 C.ar    1  UNL1        0.0033
     16 C         -24.5330    1.2281   27.6971 C.ar    1  UNL1        0.0420
     17 C         -23.5592    1.8915   27.3550 C.ar    1  UNL1        0.1957
     18 C         -22.2703    1.7398   27.9294 C.ar    1  UNL1        0.0420
     19 C         -23.3832    0.2297   29.5609 C.ar    1  UNL1        0.0002
     20 C         -22.2014    0.9187   29.0898 C.ar    1  UNL1        0.0033
     21 O         -23.6974    2.8188   26.3272 O.3     1  UNL1       -0.2866
     22 C         -30.9080   -8.3828   33.7245 C.ar    1  UNL1       -0.0003
     23 C         -32.8217   -7.8165   32.3490 C.ar    1  UNL1       -0.0003
     24 C         -32.3101   -8.4674   33.4265 C.ar    1  UNL1       -0.0000
     25 F         -29.2483   -0.5156   28.4563 F       1  UNL1       -0.2041
     26 C         -34.2303   -7.9215   31.9820 C.ar    1  UNL1        0.0002
     27 C         -35.0406   -7.0022   32.5147 C.ar    1  UNL1        0.0000
     28 C         -35.8179   -6.3890   32.3635 C.ar    1  UNL1        0.0002
     29 C         -36.4280   -6.2234   30.9885 C.ar    1  UNL1        0.0066
     30 C         -35.8935   -7.1967   30.1357 C.ar    1  UNL1        0.0798
     31 C         -34.6078   -7.9419   30.5407 C.ar    1  UNL1        0.0066
     32 C         -36.3164   -7.3405   28.7714 C.2     1  UNL1        0.3878
     33 O         -36.3948   -8.2806   28.1794 O.co2   1  UNL1       -0.2406
     34 O         -36.6960   -6.1964   28.1725 O.co2   1  UNL1       -0.2406
@<TRIPOS>BOND
     1     6     7    1
     2     7     8    2
     3     8     9    1
     4     9    10    1
     5     9    11    2
     6    10    12    1
     7     3    15    1
     8    17    21    1
     9     1    25    1
    10    23    26    1
    11    30    32    1
    12    32    33   ar
    13    32    34   ar
    14    12    13   ar
    15    13    23   ar
    16    23    24   ar
    17    24    22   ar
    18    22    14   ar
    19    14    12   ar
    20     1     2   ar
    21     2     3   ar
    22     3     4   ar
    23     4     5   ar
    24     5     6   ar
    25     6     1   ar
    26    26    27   ar
    27    27    28   ar
    28    28    29   ar
    29    29    30   ar
    30    30    31   ar
    31    31    26   ar
    32    15    16   ar
    33    16    17   ar
    34    17    18   ar
    35    18    20   ar
    36    20    19   ar
    37    19    15   ar
