@<TRIPOS>MOLECULE
No_1048-gen_results/8p0m/2024-11-26-14-13-15/
 15 16 0 0 0
SMALL
GASTEIGER

@<TRIPOS>ATOM
      1 C         -28.0162   -0.8135   28.8779 C.ar    1  UNL1        0.0046
      2 C         -28.4690   -0.7850   29.8287 C.ar    1  UNL1        0.0554
      3 C         -26.5042   -0.7777   28.8766 C.ar    1  UNL1        0.0001
      4 C         -25.8103   -0.8531   30.1028 C.ar    1  UNL1        0.0000
      5 C         -27.9906   -0.8916   31.2257 C.ar    1  UNL1        0.0046
      6 C         -26.6042   -0.8676   31.2652 C.ar    1  UNL1        0.0001
      7 C         -30.0739   -0.8360   29.8615 C.2     1  UNL1        0.2690
      8 O         -30.5608   -0.4417   28.9417 O.2     1  UNL1       -0.2680
      9 N         -30.7486   -1.4028   30.9473 N.am    1  UNL1       -0.1754
     10 C         -32.1750   -1.4682   30.8889 C.ar    1  UNL1        0.0737
     11 C         -32.6810   -2.3081   31.6133 C.ar    1  UNL1        0.0166
     12 C         -33.9767   -2.6184   31.6363 C.ar    1  UNL1        0.0013
     13 C         -34.8147   -1.8122   30.7408 C.ar    1  UNL1        0.0001
     14 C         -34.2275   -0.9820   30.0460 C.ar    1  UNL1        0.0013
     15 C         -32.8658   -0.6897   29.9861 C.ar    1  UNL1        0.0166
@<TRIPOS>BOND
     1     2     7    1
     2     7     8    2
     3     7     9   am
     4     9    10    1
     5     1     2   ar
     6     2     5   ar
     7     5     6   ar
     8     6     4   ar
     9     4     3   ar
    10     3     1   ar
    11    10    11   ar
    12    11    12   ar
    13    12    13   ar
    14    13    14   ar
    15    14    15   ar
    16    15    10   ar
