@<TRIPOS>MOLECULE
No_1049-gen_results/8p0m/2024-11-26-14-13-15/
 15 16 0 0 0
SMALL
GASTEIGER

@<TRIPOS>ATOM
      1 C         -28.0162   -0.8135   28.8779 C.ar    1  UNL1       -0.0042
      2 C         -27.0636   -0.1189   28.6079 C.ar    1  UNL1       -0.0178
      3 C         -25.7923   -0.4302   29.0761 C.ar    1  UNL1       -0.0042
      4 C         -25.5756   -1.5654   29.9363 C.ar    1  UNL1       -0.0031
      5 C         -26.7354   -2.3004   30.2173 C.ar    1  UNL1       -0.0032
      6 C         -26.5841   -3.5078   30.9846 C.3     1  UNL1        0.1356
      7 C         -27.9637   -1.9827   29.6995 C.ar    1  UNL1       -0.0031
      8 N         -26.6327   -4.5278   29.9568 N.3     1  UNL1       -0.1262
      9 C         -27.1213    1.1713   27.7949 C.3     1  UNL1        0.0526
     10 C         -26.2484    1.4210   26.9036 C.ar    1  UNL1       -0.0178
     11 C         -26.2810    2.6171   26.1167 C.ar    1  UNL1       -0.0039
     12 C         -25.1571    3.1146   25.4007 C.ar    1  UNL1       -0.0003
     13 C         -23.9229    2.3599   25.5539 C.ar    1  UNL1       -0.0000
     14 C         -23.8619    1.2583   26.4366 C.ar    1  UNL1       -0.0003
     15 C         -24.9225    0.8177   27.0859 C.ar    1  UNL1       -0.0039
@<TRIPOS>BOND
     1     5     6    1
     2     6     8    1
     3     2     9    1
     4     9    10    1
     5     1     2   ar
     6     2     3   ar
     7     3     4   ar
     8     4     5   ar
     9     5     7   ar
    10     7     1   ar
    11    10    11   ar
    12    11    12   ar
    13    12    13   ar
    14    13    14   ar
    15    14    15   ar
    16    15    10   ar
