@<TRIPOS>MOLECULE
No_105-gen_results/8p0m/2024-11-26-14-13-15/
 15 16 0 0 0
SMALL
GASTEIGER

@<TRIPOS>ATOM
      1 N         -28.0544   -1.0498   28.7246 N.am    1  UNL1       -0.2485
      2 C         -26.9659   -0.4722   28.7709 C.ar    1  UNL1        0.0504
      3 C         -26.8762    0.8133   29.2194 C.ar    1  UNL1       -0.0081
      4 C         -25.6021    1.3795   29.4629 C.ar    1  UNL1       -0.0030
      5 C         -24.3996    0.7085   29.1014 C.ar    1  UNL1       -0.0002
      6 C         -24.5784   -0.6219   28.6929 C.ar    1  UNL1        0.0013
      7 C         -25.7937   -1.2051   28.5265 C.ar    1  UNL1        0.0146
      8 C         -28.6457   -1.5098   29.9186 C.3     1  UNL1        0.1849
      9 C         -30.0790   -1.6834   29.9348 C.2     1  UNL1        0.2624
     10 N         -30.7583   -0.8831   29.2845 N.am    1  UNL1       -0.1940
     11 O         -30.5618   -2.6045   30.6919 O.2     1  UNL1       -0.2715
     12 C         -30.2943    0.2064   28.5893 C.3     1  UNL1        0.2002
     13 C         -29.1178    0.2359   28.3460 C.2     1  UNL1        0.2518
     14 O         -28.3128    1.2398   28.0329 O.2     1  UNL1       -0.2726
     15 C         -27.5559    1.0414   30.6458 C.3     1  UNL1        0.0323
@<TRIPOS>BOND
     1     1     2    1
     2     1     8    1
     3     8     9    1
     4     9    10   am
     5     9    11    2
     6    10    12    1
     7     1    13   am
     8    12    13    1
     9    13    14    2
    10     3    15    1
    11     2     3   ar
    12     3     4   ar
    13     4     5   ar
    14     5     6   ar
    15     6     7   ar
    16     7     2   ar
