@<TRIPOS>MOLECULE
No_1051-gen_results/8p0m/2024-11-26-14-13-15/
 29 31 0 0 0
SMALL
GASTEIGER

@<TRIPOS>ATOM
      1 C         -28.0162   -0.8135   28.8779 C.ar    1  UNL1        0.0067
      2 C         -27.0636   -0.1189   28.6079 C.ar    1  UNL1        0.0046
      3 C         -25.7923   -0.4302   29.0761 C.ar    1  UNL1        0.0001
      4 C         -24.5456    0.3494   28.8225 C.ar    1  UNL1        0.0039
      5 C         -24.6586    1.4196   27.8878 C.ar    1  UNL1        0.0716
      6 C         -25.9471    1.6811   27.3792 C.ar    1  UNL1        0.0084
      7 C         -27.0439    0.9739   27.6871 C.ar    1  UNL1        0.0539
      8 C         -28.0241   -1.6475   30.1262 C.ar    1  UNL1        0.0798
      9 C         -26.7278   -2.0846   30.5807 C.ar    1  UNL1        0.0066
     10 C         -25.5915   -1.4064   30.1489 C.ar    1  UNL1        0.0002
     11 C         -23.4497    2.1789   27.5290 C.3     1  UNL1        0.4186
     12 F         -23.7214    3.2949   27.0470 F       1  UNL1       -0.1659
     13 F         -22.6670    2.4847   28.6162 F       1  UNL1       -0.1659
     14 F         -22.6459    1.5028   26.7043 F       1  UNL1       -0.1659
     15 C         -28.3010    1.3299   27.0057 C.2     1  UNL1        0.2528
     16 O         -28.6559    0.7562   26.0029 O.2     1  UNL1       -0.2696
     17 N         -29.0550    2.3115   27.5774 N.am    1  UNL1       -0.2525
     18 C         -30.3255    2.7087   27.0235 C.3     1  UNL1        0.1204
     19 C         -28.6625    3.0771   28.8111 C.ar    1  UNL1        0.0669
     20 C         -29.0124    2.5473   29.9460 C.ar    1  UNL1        0.0159
     21 C         -28.2041    2.8770   31.0479 C.ar    1  UNL1        0.0036
     22 C         -27.2327    3.8808   30.9829 C.ar    1  UNL1        0.0306
     23 C         -26.9690    4.4518   29.7027 C.ar    1  UNL1        0.1518
     24 C         -27.5990    3.9278   28.5528 C.ar    1  UNL1        0.0987
     25 F         -25.8837    5.1371   29.7558 F       1  UNL1       -0.2032
     26 C         -29.2255   -2.3822   30.5146 C.2     1  UNL1        0.3878
     27 O         -30.0854   -1.8197   30.9797 O.co2   1  UNL1       -0.2406
     28 O         -29.1541   -3.6241   30.4638 O.co2   1  UNL1       -0.2406
     29 CL        -27.2002    4.6265   27.0532 Cl      1  UNL1       -0.0786
@<TRIPOS>BOND
     1     5    11    1
     2    11    12    1
     3    11    13    1
     4    11    14    1
     5     7    15    1
     6    15    16    2
     7    15    17   am
     8    17    18    1
     9    17    19    1
    10    23    25    1
    11     8    26    1
    12    26    27   ar
    13    26    28   ar
    14    24    29    1
    15     3     4   ar
    16     4     5   ar
    17     5     6   ar
    18     6     7   ar
    19     7     2   ar
    20     1     2   ar
    21     2     3   ar
    22     3    10   ar
    23    10     9   ar
    24     9     8   ar
    25     8     1   ar
    26    19    20   ar
    27    20    21   ar
    28    21    22   ar
    29    22    23   ar
    30    23    24   ar
    31    24    19   ar
