@<TRIPOS>MOLECULE
No_1052-gen_results/8p0m/2024-11-26-14-13-15/
 22 24 0 0 0
SMALL
GASTEIGER

@<TRIPOS>ATOM
      1 C         -28.0162   -0.8135   28.8779 C.ar    1  UNL1        0.0067
      2 C         -27.0636   -0.1189   28.6079 C.ar    1  UNL1        0.0005
      3 C         -25.7923   -0.4302   29.0761 C.ar    1  UNL1        0.0001
      4 C         -24.5456    0.3494   28.8225 C.ar    1  UNL1        0.0030
      5 C         -24.6586    1.4196   27.8878 C.ar    1  UNL1        0.0369
      6 C         -23.5403    2.1791   27.5500 C.ar    1  UNL1        0.1386
      7 C         -22.2925    1.7429   28.0473 C.ar    1  UNL1        0.0369
      8 C         -22.1712    0.7080   28.9284 C.ar    1  UNL1        0.0031
      9 C         -23.3345   -0.0624   29.3081 C.ar    1  UNL1        0.0002
     10 C         -27.9546   -1.8765   29.8726 C.ar    1  UNL1        0.0346
     11 C         -26.7258   -2.3300   30.3106 C.ar    1  UNL1        0.0067
     12 C         -25.6021   -1.5640   29.9668 C.ar    1  UNL1        0.0005
     13 BR        -29.5603   -2.6807   30.3365 Br      1  UNL1       -0.0490
     14 O         -23.6406    3.1679   26.6970 O.3     1  UNL1       -0.4751
     15 C         -25.0059    3.6853   26.5047 C.3     1  UNL1        0.2101
     16 C         -25.4379    4.8178   27.1410 C.3     1  UNL1        0.0736
     17 C         -25.9154    4.7812   28.3466 C.ar    1  UNL1       -0.0184
     18 C         -25.9684    5.8989   29.1828 C.ar    1  UNL1       -0.0041
     19 C         -26.3797    5.8672   30.5731 C.ar    1  UNL1       -0.0003
     20 C         -26.7440    4.5869   31.0657 C.ar    1  UNL1       -0.0000
     21 C         -26.7221    3.4786   30.2497 C.ar    1  UNL1       -0.0003
     22 C         -26.2706    3.5828   28.9494 C.ar    1  UNL1       -0.0041
@<TRIPOS>BOND
     1     3     4    1
     2    10    13    1
     3     6    14    1
     4    14    15    1
     5    15    16    1
     6    16    17    1
     7    17    18   ar
     8    18    19   ar
     9    19    20   ar
    10    20    21   ar
    11    21    22   ar
    12    22    17   ar
    13     1     2   ar
    14     2     3   ar
    15     3    12   ar
    16    12    11   ar
    17    11    10   ar
    18    10     1   ar
    19     4     5   ar
    20     5     6   ar
    21     6     7   ar
    22     7     8   ar
    23     8     9   ar
    24     9     4   ar
