@<TRIPOS>MOLECULE
No_1053-gen_results/8p0m/2024-11-26-14-13-15/
 21 22 0 0 0
SMALL
GASTEIGER

@<TRIPOS>ATOM
      1 O         -28.1229   -1.3353   28.4874 O.2     1  UNL1       -0.2541
      2 C         -27.4806   -0.4044   28.7094 C.2     1  UNL1        0.3334
      3 C         -26.3804   -0.0867   27.9394 C.ar    1  UNL1        0.0675
      4 F         -27.7306    0.3455   29.8481 F       1  UNL1       -0.1586
      5 C         -26.5062    0.7764   26.8083 C.ar    1  UNL1        0.0054
      6 C         -25.0418   -0.5004   28.2767 C.ar    1  UNL1        0.0014
      7 C         -25.3567    1.0257   25.9729 C.ar    1  UNL1        0.0002
      8 C         -23.8905   -0.1150   27.5106 C.ar    1  UNL1       -0.0001
      9 C         -24.0947    0.6620   26.3747 C.ar    1  UNL1       -0.0000
     10 C         -24.8197   -1.3208   29.4593 C.2     1  UNL1       -0.0216
     11 C         -27.7967    1.1054   26.2862 C.ar    1  UNL1        0.0002
     12 C         -28.2662    0.6205   25.0907 C.ar    1  UNL1        0.0000
     13 C         -29.6178    0.7056   24.7606 C.ar    1  UNL1        0.0000
     14 C         -30.3556    1.0565   25.5065 C.ar    1  UNL1        0.0000
     15 C         -28.7384    1.7711   27.1152 C.ar    1  UNL1        0.0000
     16 C         -30.0683    1.7532   26.7528 C.ar    1  UNL1        0.0000
     17 C         -24.8041   -1.0336   30.5441 C.2     1  UNL1       -0.0028
     18 C         -24.3413   -2.6545   29.0913 C.3     1  UNL1        0.0310
     19 C         -25.0049    0.2890   31.2075 C.2     1  UNL1        0.0191
     20 C         -23.9783    1.2852   30.8817 C.2     1  UNL1        0.1057
     21 N         -24.3037    2.5106   30.9252 N.pl3   1  UNL1       -0.1266
@<TRIPOS>BOND
     1     1     2    2
     2     2     3    1
     3     2     4    1
     4     6    10    1
     5     5    11    1
     6    10    17    2
     7    10    18    1
     8    17    19    1
     9    19    20    2
    10    20    21    1
    11    11    12   ar
    12    12    13   ar
    13    13    14   ar
    14    14    16   ar
    15    16    15   ar
    16    15    11   ar
    17     3     5   ar
    18     5     7   ar
    19     7     9   ar
    20     9     8   ar
    21     8     6   ar
    22     6     3   ar
