@<TRIPOS>MOLECULE
No_1055-gen_results/8p0m/2024-11-26-14-13-15/
 35 38 0 0 0
SMALL
GASTEIGER

@<TRIPOS>ATOM
      1 C         -28.0162   -0.8135   28.8779 C.ar    1  UNL1        0.0384
      2 C         -28.4690   -0.7850   29.8287 C.ar    1  UNL1        0.0147
      3 C         -28.1960    0.3478   28.0550 C.ar    1  UNL1        0.1455
      4 C         -29.0191    1.3501   28.3782 C.ar    1  UNL1        0.0429
      5 C         -29.4107    0.1803   30.3782 C.ar    1  UNL1        0.0623
      6 C         -29.6059    1.2495   29.6193 C.ar    1  UNL1        0.0691
      7 O         -27.5003    0.3576   26.8164 O.3     1  UNL1       -0.4535
      8 C         -26.4976    1.3388   26.6595 C.ar    1  UNL1        0.1453
      9 C         -25.2287    0.7278   26.6101 C.ar    1  UNL1        0.0390
     10 C         -24.0880    1.5526   26.6229 C.ar    1  UNL1        0.0207
     11 C         -22.7905    1.0979   26.8973 C.ar    1  UNL1        0.0828
     12 C         -21.7701    2.1257   27.0157 C.ar    1  UNL1        0.0192
     13 C         -21.4916    2.4658   28.0177 C.ar    1  UNL1        0.0045
     14 C         -24.4405    2.9698   26.4064 C.ar    1  UNL1        0.0017
     15 C         -25.7271    3.4457   26.3586 C.ar    1  UNL1        0.0032
     16 C         -26.7836    2.5844   26.5190 C.ar    1  UNL1        0.0375
     17 C         -21.5176    1.3896   29.2341 C.ar    1  UNL1        0.0361
     18 C         -22.4306    0.2782   29.1254 C.ar    1  UNL1        0.1517
     19 N         -22.9054    0.1960   27.8497 N.ar    1  UNL1       -0.2289
     20 C         -30.5468    2.3641   30.0264 C.2     1  UNL1        0.2729
     21 N         -30.3991    2.9364   31.0654 N.am    1  UNL1       -0.1313
     22 C         -30.1741    3.9766   31.5049 C.2     1  UNL1        0.3061
     23 BR        -30.1975    5.4535   30.3727 Br      1  UNL1        0.0166
     24 O         -29.6870    4.2950   32.6144 O.2     1  UNL1       -0.2603
     25 N         -22.5423   -0.5762   30.0244 N.pl3   1  UNL1       -0.1919
     26 C         -23.7052   -0.7515   30.8025 C.ar    1  UNL1        0.0995
     27 C         -23.6530   -0.2156   32.0274 C.ar    1  UNL1        0.0197
     28 C         -24.9069   -0.2623   32.8433 C.ar    1  UNL1        0.0129
     29 C         -26.0594   -0.8293   32.2022 C.ar    1  UNL1        0.0600
     30 C         -25.9936   -1.4667   31.0225 C.ar    1  UNL1        0.0424
     31 C         -24.8024   -1.3378   30.2457 C.ar    1  UNL1        0.1561
     32 O         -31.3977    2.7099   29.1796 O.2     1  UNL1       -0.2679
     33 CL        -27.4991   -0.9038   33.2072 Cl      1  UNL1       -0.0822
     34 F         -24.7828   -1.8891   29.0880 F       1  UNL1       -0.2028
     35 CL        -30.2069    0.0296   31.9108 Cl      1  UNL1       -0.0821
@<TRIPOS>BOND
     1     3     7    1
     2     7     8    1
     3    10    11    1
     4     6    20    1
     5    20    21   am
     6    21    22   am
     7    22    23    1
     8    22    24    2
     9    18    25    1
    10    25    26    1
    11    20    32    2
    12    29    33    1
    13    31    34    1
    14     5    35    1
    15    26    27   ar
    16    27    28   ar
    17    28    29   ar
    18    29    30   ar
    19    30    31   ar
    20    31    26   ar
    21     8     9   ar
    22     9    10   ar
    23    10    14   ar
    24    14    15   ar
    25    15    16   ar
    26    16     8   ar
    27     1     2   ar
    28     2     5   ar
    29     5     6   ar
    30     6     4   ar
    31     4     3   ar
    32     3     1   ar
    33    11    12   ar
    34    12    13   ar
    35    13    17   ar
    36    17    18   ar
    37    18    19   ar
    38    19    11   ar
