@<TRIPOS>MOLECULE
No_1056-gen_results/8p0m/2024-11-26-14-13-15/
 15 15 0 0 0
SMALL
GASTEIGER

@<TRIPOS>ATOM
      1 CL        -28.1493   -0.8198   28.9079 Cl      1  UNL1       -0.0791
      2 C         -26.9116   -0.0797   28.9452 C.ar    1  UNL1        0.0915
      3 C         -26.0490   -0.0718   27.8591 C.ar    1  UNL1        0.0147
      4 C         -24.7194    0.4034   27.9174 C.ar    1  UNL1        0.0076
      5 C         -24.2099    0.9302   29.0839 C.ar    1  UNL1        0.0828
      6 C         -25.0231    0.9078   30.1875 C.ar    1  UNL1        0.0443
      7 C         -26.2531    0.3904   30.1401 C.ar    1  UNL1        0.1492
      8 C         -22.8477    1.4431   29.0581 C.2     1  UNL1        0.3879
      9 O         -21.9192    1.2697   28.5770 O.co2   1  UNL1       -0.2406
     10 O         -22.8086    2.4801   30.1236 O.co2   1  UNL1       -0.2406
     11 O         -27.0259    0.3310   31.2893 O.3     1  UNL1       -0.4742
     12 C         -27.1189    1.4075   32.0693 C.3     1  UNL1        0.2118
     13 C         -27.2989    2.5782   31.6031 C.3     1  UNL1        0.0962
     14 C         -26.7395    3.5993   32.2654 C.2     1  UNL1        0.0995
     15 N         -26.6154    4.8856   31.7275 N.2     1  UNL1       -0.1513
@<TRIPOS>BOND
     1     1     2    1
     2     5     8    1
     3     8     9   ar
     4     8    10   ar
     5     7    11    1
     6    11    12    1
     7    12    13    1
     8    13    14    1
     9    14    15    2
    10     2     3   ar
    11     3     4   ar
    12     4     5   ar
    13     5     6   ar
    14     6     7   ar
    15     7     2   ar
