@<TRIPOS>MOLECULE
No_1057-gen_results/8p0m/2024-11-26-14-13-15/
 35 38 0 0 0
SMALL
GASTEIGER

@<TRIPOS>ATOM
      1 C         -28.0162   -0.8135   28.8779 C.ar    1  UNL1        0.0377
      2 C         -27.0636   -0.1189   28.6079 C.ar    1  UNL1        0.0043
      3 C         -26.8756    1.1325   28.9134 C.ar    1  UNL1        0.0136
      4 C         -27.9014    1.8066   29.6436 C.ar    1  UNL1        0.0108
      5 C         -29.0458   -0.2316   29.7181 C.ar    1  UNL1        0.1513
      6 C         -28.9402    1.0517   30.0597 C.ar    1  UNL1        0.1142
      7 O         -30.0593   -1.0632   30.0946 O.3     1  UNL1       -0.4542
      8 C         -25.6684    1.9362   28.4484 C.2     1  UNL1        0.0537
      9 N         -24.9744    2.6172   28.9157 N.2     1  UNL1       -0.2747
     10 C         -25.3709    1.7935   26.9695 C.3     1  UNL1        0.0474
     11 C         -24.1881    2.5375   26.8005 C.3     1  UNL1        0.0325
     12 C         -23.8972    3.1516   28.0647 C.3     1  UNL1        0.1255
     13 C         -29.8635   -2.1294   30.8569 C.2     1  UNL1        0.1607
     14 C         -30.1234   -3.3540   30.2209 C.2     1  UNL1        0.1686
     15 C         -29.4690   -4.5303   30.7745 C.2     1  UNL1        0.0355
     16 C         -28.6505   -5.0201   30.3713 C.2     1  UNL1       -0.0182
     17 C         -27.7692   -4.2490   29.4028 C.3     1  UNL1        0.0521
     18 C         -27.1211   -3.1125   29.9557 C.ar    1  UNL1       -0.0213
     19 O         -31.0172   -3.4650   29.3915 O.2     1  UNL1       -0.4722
     20 C         -25.6635   -3.0079   29.6979 C.ar    1  UNL1       -0.0042
     21 C         -24.9233   -1.9597   30.2647 C.ar    1  UNL1       -0.0003
     22 C         -25.4628   -1.0841   31.2843 C.ar    1  UNL1       -0.0003
     23 C         -26.8322   -1.3835   31.7135 C.ar    1  UNL1       -0.0041
     24 C         -27.5284   -2.3516   31.0835 C.ar    1  UNL1       -0.0181
     25 C         -28.9461   -2.2609   31.4779 C.3     1  UNL1        0.0937
     26 C         -29.9718    1.7431   30.9336 C.2     1  UNL1        0.3907
     27 O         -29.9081    2.6035   31.4425 O.co2   1  UNL1       -0.2404
     28 O         -31.2350    1.1748   30.6073 O.co2   1  UNL1       -0.2404
     29 C         -31.6826   -4.5560   29.0286 C.3     1  UNL1        0.2152
     30 C         -32.1140   -4.5742   27.7260 C.3     1  UNL1        0.1357
     31 C         -32.1914   -3.4628   27.0700 C.2     1  UNL1        0.2645
     32 O         -31.9369   -2.4972   27.4699 O.2     1  UNL1       -0.2715
     33 N         -32.5705   -3.5524   25.6905 N.am    1  UNL1       -0.0877
     34 C         -24.7260    0.0767   31.4724 C.2     1  UNL1       -0.0000
     35 C         -25.2258    1.0967   32.3359 C.2     1  UNL1       -0.0000
@<TRIPOS>BOND
     1     5     7    1
     2     3     8    1
     3     8     9    2
     4     8    10    1
     5    10    11    1
     6     9    12    1
     7    11    12    1
     8     7    13    1
     9    13    14    2
    10    14    15    1
    11    15    16    2
    12    16    17    1
    13    17    18    1
    14    14    19    1
    15    13    25    1
    16    24    25    1
    17     6    26    1
    18    26    27   ar
    19    26    28   ar
    20    19    29    1
    21    29    30    1
    22    30    31    1
    23    31    32    2
    24    31    33   am
    25    22    34    1
    26    34    35    2
    27     1     2   ar
    28     2     3   ar
    29     3     4   ar
    30     4     6   ar
    31     6     5   ar
    32     5     1   ar
    33    18    20   ar
    34    20    21   ar
    35    21    22   ar
    36    22    23   ar
    37    23    24   ar
    38    24    18   ar
