@<TRIPOS>MOLECULE
No_1058-gen_results/8p0m/2024-11-26-14-13-15/
 30 33 0 0 0
SMALL
GASTEIGER

@<TRIPOS>ATOM
      1 C         -28.0162   -0.8135   28.8779 C.ar    1  UNL1        0.0045
      2 C         -27.0636   -0.1189   28.6079 C.ar    1  UNL1        0.0001
      3 C         -25.7923   -0.4302   29.0761 C.ar    1  UNL1        0.0001
      4 C         -24.5456    0.3494   28.8225 C.ar    1  UNL1        0.0022
      5 C         -23.2409    0.0217   29.3323 C.ar    1  UNL1        0.0001
      6 C         -27.8820   -1.8995   29.8633 C.ar    1  UNL1        0.0539
      7 C         -26.6526   -2.3141   30.3138 C.ar    1  UNL1        0.0045
      8 C         -25.5153   -1.5607   29.9787 C.ar    1  UNL1        0.0001
      9 C         -22.1645    0.7936   28.9524 C.ar    1  UNL1        0.0023
     10 C         -22.1241    1.7484   27.9889 C.ar    1  UNL1        0.0296
     11 C         -24.5235    1.3782   27.7946 C.ar    1  UNL1        0.0296
     12 C         -23.3387    2.0417   27.4305 C.ar    1  UNL1        0.1401
     13 C         -29.0500   -2.7282   30.2957 C.2     1  UNL1        0.2527
     14 O         -28.9890   -3.9429   30.3915 O.2     1  UNL1       -0.2696
     15 N         -30.1844   -2.0913   30.6364 N.am    1  UNL1       -0.2543
     16 C         -31.3543   -2.8398   31.0654 C.3     1  UNL1        0.0986
     17 F         -23.4509    2.9838   26.4843 F       1  UNL1       -0.2042
     18 C         -30.3150   -0.6507   30.6765 C.2     1  UNL1        0.0638
     19 C         -30.5753   -0.1566   32.0476 C.2     1  UNL1       -0.0025
     20 C         -31.9341   -0.1514   32.2736 C.3     1  UNL1        0.0571
     21 C         -32.6057   -1.4743   32.5032 C.3     1  UNL1        0.0140
     22 C         -32.6697   -2.3184   31.4212 C.3     1  UNL1        0.0229
     23 C         -32.1079    0.8181   33.5440 C.ar    1  UNL1       -0.0152
     24 C         -32.6727    0.5809   31.1612 C.2     1  UNL1       -0.0186
     25 C         -31.4648    0.6239   34.5908 C.ar    1  UNL1       -0.0037
     26 C         -33.0529    1.8627   33.3975 C.ar    1  UNL1       -0.0037
     27 C         -33.2128    2.7092   34.5582 C.ar    1  UNL1       -0.0003
     28 C         -31.6058    1.4137   35.7864 C.ar    1  UNL1       -0.0003
     29 C         -32.5179    2.4649   35.7171 C.ar    1  UNL1       -0.0000
     30 C         -33.4843    1.5026   31.3242 C.2     1  UNL1       -0.0043
@<TRIPOS>BOND
     1     3     4    1
     2     6    13    1
     3    13    14    2
     4    13    15   am
     5    15    16    1
     6    12    17    1
     7    15    18    1
     8    18    19    2
     9    19    20    1
    10    20    21    1
    11    16    22    1
    12    21    22    1
    13    20    23    1
    14    20    24    1
    15    24    30    2
    16    23    25   ar
    17    25    28   ar
    18    28    29   ar
    19    29    27   ar
    20    27    26   ar
    21    26    23   ar
    22     1     2   ar
    23     2     3   ar
    24     3     8   ar
    25     8     7   ar
    26     7     6   ar
    27     6     1   ar
    28     4     5   ar
    29     5     9   ar
    30     9    10   ar
    31    10    12   ar
    32    12    11   ar
    33    11     4   ar
