@<TRIPOS>MOLECULE
No_1060-gen_results/8p0m/2024-11-26-14-13-15/
 19 21 0 0 0
SMALL
GASTEIGER

@<TRIPOS>ATOM
      1 C         -28.0162   -0.8135   28.8779 C.3     1  UNL1        0.1010
      2 C         -27.0636   -0.1190   28.6079 C.ar    1  UNL1       -0.0100
      3 C         -27.0010    0.6913   27.4910 C.ar    1  UNL1       -0.0249
      4 C         -25.8548    1.4825   27.0830 C.ar    1  UNL1       -0.0034
      5 C         -24.6901    1.4526   27.8807 C.ar    1  UNL1        0.0432
      6 C         -24.7379    0.6010   29.0416 C.ar    1  UNL1        0.0008
      7 C         -25.8234   -0.1688   29.3887 C.ar    1  UNL1       -0.0034
      8 N         -29.2150   -0.1726   29.0132 N.3     1  UNL1       -0.2410
      9 C         -29.7200    0.5474   28.3236 C.3     1  UNL1        0.1365
     10 C         -29.3480    1.1490   27.1739 C.3     1  UNL1        0.0389
     11 C         -28.3167    1.0442   26.5989 C.3     1  UNL1        0.0289
     12 C         -23.4777    2.1369   27.5553 C.3     1  UNL1        0.3410
     13 F         -23.5055    2.8282   26.6410 F       1  UNL1       -0.1933
     14 F         -22.3875    1.8661   28.1792 F       1  UNL1       -0.1933
     15 N         -31.1911    0.6087   28.4749 N.3     1  UNL1       -0.1707
     16 C         -31.7872    0.2052   29.5542 C.3     1  UNL1        0.2432
     17 C         -30.0141   -0.8148   30.1167 C.3     1  UNL1        0.1677
     18 N         -31.2295   -0.5543   30.3668 N.3     1  UNL1       -0.1678
     19 N         -33.1238    0.5286   29.6663 N.3     1  UNL1       -0.0936
@<TRIPOS>BOND
     1     1     2    1
     2     1     8    1
     3     8     9    1
     4     3    11    1
     5    10    11    1
     6     5    12    1
     7    12    13    1
     8    12    14    1
     9     9    15    1
    10    15    16    1
    11     8    17    1
    12    16    18    1
    13    16    19    1
    14    10     9    1
    15    18    17    1
    16     2     3   ar
    17     3     4   ar
    18     4     5   ar
    19     5     6   ar
    20     6     7   ar
    21     7     2   ar
