@<TRIPOS>MOLECULE
No_1061-gen_results/8p0m/2024-11-26-14-13-15/
 12 12 0 0 0
SMALL
GASTEIGER

@<TRIPOS>ATOM
      1 C         -28.0162   -0.8135   28.8779 C.ar    1  UNL1        0.0077
      2 C         -28.4690   -0.7850   29.8287 C.ar    1  UNL1        0.0796
      3 C         -27.1356    0.2359   28.5352 C.ar    1  UNL1        0.0438
      4 C         -26.8745    1.2825   29.3982 C.ar    1  UNL1        0.0011
      5 C         -28.3613    0.1987   30.9244 C.ar    1  UNL1        0.0066
      6 C         -27.5277    1.2234   30.6356 C.ar    1  UNL1        0.0001
      7 C         -26.3987    0.2949   27.2279 C.3     1  UNL1        0.3410
      8 F         -26.9307   -0.1351   26.3032 F       1  UNL1       -0.1933
      9 F         -25.1330    0.6630   27.2119 F       1  UNL1       -0.1933
     10 C         -29.4067   -1.9859   30.3465 C.2     1  UNL1        0.3877
     11 O         -29.8178   -1.9316   31.5479 O.co2   1  UNL1       -0.2406
     12 O         -29.8271   -2.7809   29.5309 O.co2   1  UNL1       -0.2406
@<TRIPOS>BOND
     1     3     7    1
     2     7     8    1
     3     7     9    1
     4     2    10    1
     5    10    11   ar
     6    10    12   ar
     7     1     2   ar
     8     2     5   ar
     9     5     6   ar
    10     6     4   ar
    11     4     3   ar
    12     3     1   ar
