@<TRIPOS>MOLECULE
No_1063-gen_results/8p0m/2024-11-26-14-13-15/
 18 20 0 0 0
SMALL
GASTEIGER

@<TRIPOS>ATOM
      1 C         -28.0162   -0.8135   28.8779 C.3     1  UNL1        0.0171
      2 C         -28.4690   -0.7850   29.8287 C.3     1  UNL1        0.0243
      3 C         -28.1960    0.3478   28.0550 C.3     1  UNL1        0.0554
      4 C         -27.4421    0.5100   26.7946 C.3     1  UNL1        0.1649
      5 C         -26.1689   -0.0794   26.6787 C.3     1  UNL1        0.0361
      6 C         -25.7312   -0.9607   27.6875 C.3     1  UNL1        0.0120
      7 C         -26.5043   -1.2222   28.7582 C.3     1  UNL1        0.0787
      8 C         -28.4210   -2.0451   30.7337 C.3     1  UNL1        0.1152
      9 N         -27.2229   -2.6821   30.7089 N.am    1  UNL1       -0.2054
     10 C         -26.1623   -2.3712   29.6990 C.2     1  UNL1        0.2409
     11 O         -25.1949   -3.0486   29.5840 O.2     1  UNL1       -0.2734
     12 C         -29.5028    0.9702   27.9787 C.ar    1  UNL1       -0.0198
     13 C         -30.5981    0.3856   27.5899 C.ar    1  UNL1       -0.0042
     14 C         -31.8477    0.9810   27.6651 C.ar    1  UNL1       -0.0003
     15 C         -31.9333    2.2718   28.1925 C.ar    1  UNL1       -0.0000
     16 C         -29.5988    2.3282   28.6192 C.ar    1  UNL1       -0.0042
     17 C         -30.8089    2.9462   28.6860 C.ar    1  UNL1       -0.0003
     18 F         -27.7995    1.4031   25.9632 F       1  UNL1       -0.2369
@<TRIPOS>BOND
     1     1     3    1
     2     3     4    1
     3     4     5    1
     4     5     6    1
     5     1     7    1
     6     6     7    1
     7     2     8    1
     8     7    10    1
     9     9    10   am
    10    10    11    2
    11     3    12    1
    12     4    18    1
    13     1     2    1
    14     8     9    1
    15    12    13   ar
    16    13    14   ar
    17    14    15   ar
    18    15    17   ar
    19    17    16   ar
    20    16    12   ar
