@<TRIPOS>MOLECULE
No_1064-gen_results/8p0m/2024-11-26-14-13-15/
 8 8 0 0 0
SMALL
GASTEIGER

@<TRIPOS>ATOM
      1 C         -28.0162   -0.8135   28.8779 C.ar    1  UNL1        0.0032
      2 C         -27.0636   -0.1189   28.6079 C.ar    1  UNL1        0.0297
      3 C         -26.9716    0.7139   27.5060 C.ar    1  UNL1        0.1410
      4 C         -28.1053    0.7744   26.6421 C.ar    1  UNL1        0.0410
      5 C         -29.2041    0.1179   27.0477 C.ar    1  UNL1        0.0599
      6 C         -29.2127   -0.6088   28.1281 C.ar    1  UNL1        0.0115
      7 F         -25.8738    1.4073   27.1728 F       1  UNL1       -0.2041
      8 CL        -30.5542    0.2517   26.0049 Cl      1  UNL1       -0.0822
@<TRIPOS>BOND
     1     3     7    1
     2     5     8    1
     3     1     2   ar
     4     2     3   ar
     5     3     4   ar
     6     4     5   ar
     7     5     6   ar
     8     6     1   ar
