@<TRIPOS>MOLECULE
No_1065-gen_results/8p0m/2024-11-26-14-13-15/
 32 34 0 0 0
SMALL
GASTEIGER

@<TRIPOS>ATOM
      1 C         -28.0162   -0.8135   28.8779 C.ar    1  UNL1        0.0382
      2 C         -27.0636   -0.1189   28.6079 C.ar    1  UNL1        0.0123
      3 C         -26.9716    0.7139   27.5060 C.ar    1  UNL1        0.0352
      4 C         -28.1053    0.7744   26.6421 C.ar    1  UNL1        0.1520
      5 C         -29.2041    0.1179   27.0477 C.ar    1  UNL1        0.1253
      6 C         -29.2127   -0.6088   28.1281 C.ar    1  UNL1        0.1527
      7 C         -25.7106    1.4519   27.1380 C.ar    1  UNL1        0.0069
      8 C         -24.6052    0.9253   27.6902 C.ar    1  UNL1        0.0717
      9 C         -24.6227    0.0600   28.8225 C.ar    1  UNL1        0.0104
     10 C         -25.7269   -0.4734   29.2409 C.ar    1  UNL1        0.0799
     11 C         -23.4285    1.8727   27.4612 C.3     1  UNL1        0.4186
     12 F         -23.2475    2.2172   26.3228 F       1  UNL1       -0.1659
     13 F         -23.4450    2.9983   28.2664 F       1  UNL1       -0.1659
     14 F         -22.2146    1.2346   27.8759 F       1  UNL1       -0.1659
     15 CL        -30.7332    0.2989   26.2606 Cl      1  UNL1       -0.0759
     16 C         -25.6728   -1.4599   30.3157 C.2     1  UNL1        0.3877
     17 O         -25.4707   -1.1349   31.3798 O.co2   1  UNL1       -0.2406
     18 O         -26.0935   -2.6493   29.9488 O.co2   1  UNL1       -0.2406
     19 O         -28.0985    1.6326   25.5965 O.3     1  UNL1       -0.4705
     20 C         -27.6367    1.0893   24.4433 C.3     1  UNL1        0.2525
     21 O         -30.3337   -1.2521   28.5376 O.3     1  UNL1       -0.4646
     22 C         -30.4938   -1.5230   29.8907 C.3     1  UNL1        0.2897
     23 C         -31.8776   -1.7218   30.2049 C.2     1  UNL1        0.2718
     24 O         -32.1997   -1.9950   31.2422 O.2     1  UNL1       -0.2708
     25 N         -32.7404   -1.6334   29.1762 N.am    1  UNL1       -0.2546
     26 C         -34.1508   -1.8716   29.3644 C.3     1  UNL1        0.0957
     27 C         -34.7055   -1.4530   28.5123 C.3     1  UNL1        0.0217
     28 C         -34.2486   -1.3011   27.2735 C.3     1  UNL1        0.0061
     29 C         -32.8906   -1.2590   26.9662 C.3     1  UNL1        0.0510
     30 C         -32.2152   -1.3647   27.9285 C.3     1  UNL1        0.1943
     31 O         -31.5533   -1.8594   27.3545 O.3     1  UNL1       -0.3349
     32 C         -31.5295   -3.2122   27.2006 C.3     1  UNL1        0.1761
@<TRIPOS>BOND
     1     8    11    1
     2    11    12    1
     3    11    13    1
     4    11    14    1
     5     5    15    1
     6    10    16    1
     7    16    17   ar
     8    16    18   ar
     9     4    19    1
    10    19    20    1
    11     6    21    1
    12    21    22    1
    13    22    23    1
    14    23    24    2
    15    23    25   am
    16    25    26    1
    17    27    28    1
    18    25    30    1
    19    29    30    1
    20    30    31    1
    21    31    32    1
    22    26    27    1
    23    28    29    1
    24     1     2   ar
    25     3     4   ar
    26     4     5   ar
    27     5     6   ar
    28     6     1   ar
    29     2     3   ar
    30     3     7   ar
    31     7     8   ar
    32     8     9   ar
    33     9    10   ar
    34    10     2   ar
