@<TRIPOS>MOLECULE
No_1068-gen_results/8p0m/2024-11-26-14-13-15/
 9 9 0 0 0
SMALL
GASTEIGER

@<TRIPOS>ATOM
      1 C         -28.0162   -0.8135   28.8779 C.ar    1  UNL1        0.0375
      2 C         -27.0636   -0.1189   28.6079 C.ar    1  UNL1        0.1454
      3 C         -26.9287    1.1713   29.0083 C.ar    1  UNL1        0.0375
      4 C         -27.9560    1.7411   29.7840 C.ar    1  UNL1        0.0031
      5 C         -29.0569   -0.3271   29.7466 C.ar    1  UNL1        0.0031
      6 C         -28.9828    0.9722   30.1516 C.ar    1  UNL1        0.0002
      7 O         -25.9911   -0.6119   27.8566 O.3     1  UNL1       -0.4504
      8 C         -25.0310    0.1531   27.2538 C.2     1  UNL1        0.1796
      9 C         -24.8348    1.3807   27.4783 C.2     1  UNL1        0.0439
@<TRIPOS>BOND
     1     2     7    1
     2     7     8    1
     3     8     9    2
     4     1     2   ar
     5     2     3   ar
     6     3     4   ar
     7     4     6   ar
     8     6     5   ar
     9     5     1   ar
