@<TRIPOS>MOLECULE
No_1069-gen_results/8p0m/2024-11-26-14-13-15/
 14 15 0 0 0
SMALL
GASTEIGER

@<TRIPOS>ATOM
      1 O         -28.1229   -1.3353   28.4874 O.3     1  UNL1       -0.4216
      2 C         -27.0637   -0.8242   28.8687 C.ar    1  UNL1        0.1782
      3 C         -27.0246    0.1877   29.7358 C.ar    1  UNL1        0.1784
      4 C         -25.8391    0.8513   29.9958 C.ar    1  UNL1        0.0468
      5 C         -25.7067   -1.4103   28.6301 C.ar    1  UNL1        0.0405
      6 C         -24.5042   -0.8257   28.9555 C.ar    1  UNL1        0.0099
      7 C         -24.5804    0.3504   29.6719 C.ar    1  UNL1        0.0830
      8 C         -23.3085    1.0231   29.9581 C.2     1  UNL1        0.3879
      9 O         -23.3454    2.0434   30.5315 O.co2   1  UNL1       -0.2406
     10 O         -22.1678    0.3851   29.8978 O.co2   1  UNL1       -0.2406
     11 C         -29.2664   -0.7531   29.1214 C.3     1  UNL1        0.4670
     12 O         -28.7888    0.1127   29.7523 O.3     1  UNL1       -0.4216
     13 N         -30.4340   -1.0444   28.9520 N.2     1  UNL1       -0.1884
     14 C         -31.2598   -1.6969   29.2574 C.2     1  UNL1        0.1211
@<TRIPOS>BOND
     1     1     2    1
     2     7     8    1
     3     8     9   ar
     4     8    10   ar
     5     1    11    1
     6     3    12    1
     7    11    12    1
     8    11    13    1
     9    13    14    2
    10     2     3   ar
    11     3     4   ar
    12     4     7   ar
    13     7     6   ar
    14     6     5   ar
    15     5     2   ar
