@<TRIPOS>MOLECULE
No_1070-gen_results/8p0m/2024-11-26-14-13-15/
 21 24 0 0 0
SMALL
GASTEIGER

@<TRIPOS>ATOM
      1 C         -28.0162   -0.8135   28.8779 C.ar    1  UNL1        0.0034
      2 C         -27.0636   -0.1189   28.6079 C.ar    1  UNL1        0.0390
      3 C         -26.9716    0.7139   27.5060 C.ar    1  UNL1        0.0033
      4 C         -28.1053    0.7744   26.6421 C.ar    1  UNL1        0.0067
      5 C         -29.2041    0.1179   27.0477 C.ar    1  UNL1        0.0798
      6 C         -29.2127   -0.6088   28.1281 C.ar    1  UNL1        0.0067
      7 C         -25.7106    1.4519   27.1380 C.ar    1  UNL1        0.0002
      8 C         -24.6052    0.9253   27.6902 C.ar    1  UNL1        0.0031
      9 C         -23.3087    1.6018   27.4923 C.ar    1  UNL1        0.0001
     10 C         -23.2169    2.4959   26.4391 C.ar    1  UNL1        0.0000
     11 C         -25.5553    2.4208   26.1832 C.ar    1  UNL1        0.0000
     12 C         -24.3322    3.0724   25.9239 C.ar    1  UNL1        0.0000
     13 C         -22.0936    1.0267   28.1293 C.ar    1  UNL1        0.0000
     14 C         -22.2192   -0.1003   28.9895 C.ar    1  UNL1        0.0001
     15 C         -23.4538   -0.7700   29.1290 C.ar    1  UNL1        0.0032
     16 C         -24.5983   -0.2172   28.5324 C.ar    1  UNL1        0.0389
     17 C         -25.7143   -0.5588   29.1665 C.2     1  UNL1        0.1955
     18 O         -25.8147   -1.3828   30.1454 O.2     1  UNL1       -0.2866
     19 C         -30.4262    0.3366   26.2442 C.2     1  UNL1        0.3878
     20 O         -31.4275    0.5903   26.6456 O.co2   1  UNL1       -0.2406
     21 O         -30.2825    0.1487   24.9182 O.co2   1  UNL1       -0.2406
@<TRIPOS>BOND
     1     3     7    1
     2     2    17    1
     3    16    17    1
     4    17    18    2
     5     5    19    1
     6    19    20   ar
     7    19    21   ar
     8     1     2   ar
     9     2     3   ar
    10     3     4   ar
    11     4     5   ar
    12     5     6   ar
    13     6     1   ar
    14     7    11   ar
    15    11    12   ar
    16    12    10   ar
    17    10     9   ar
    18     8     7   ar
    19     8     9   ar
    20     9    13   ar
    21    13    14   ar
    22    14    15   ar
    23    15    16   ar
    24    16     8   ar
