@<TRIPOS>MOLECULE
No_1071-gen_results/8p0m/2024-11-26-14-13-15/
 25 28 0 0 0
SMALL
GASTEIGER

@<TRIPOS>ATOM
      1 C         -28.0162   -0.8135   28.8779 C.ar    1  UNL1        0.0178
      2 C         -28.4690   -0.7850   29.8287 C.ar    1  UNL1        0.0765
      3 C         -26.5042   -0.7777   28.8766 C.ar    1  UNL1        0.0579
      4 C         -25.8103   -0.8531   30.1028 C.ar    1  UNL1        0.0106
      5 C         -27.9906   -0.8916   31.2257 C.ar    1  UNL1        0.0065
      6 C         -26.6042   -0.8676   31.2652 C.ar    1  UNL1        0.0010
      7 C         -24.3894   -0.8049   30.1638 C.ar    1  UNL1        0.0008
      8 C         -23.7660   -0.9500   31.0679 C.ar    1  UNL1        0.0000
      9 C         -24.4866   -1.0287   32.3849 C.ar    1  UNL1        0.0000
     10 C         -25.8375   -0.9259   32.4678 C.ar    1  UNL1        0.0000
     11 CL        -25.5987   -0.6958   27.4185 Cl      1  UNL1       -0.0822
     12 C         -30.1040   -0.8568   29.8235 C.2     1  UNL1        0.3416
     13 O         -30.5056   -0.3049   28.9165 O.3     1  UNL1       -0.4404
     14 O         -30.7595   -1.3746   30.7419 O.2     1  UNL1       -0.2449
     15 C         -31.7866    0.1986   28.7818 C.3     1  UNL1        0.2354
     16 C         -31.9615    1.0977   27.8200 C.ar    1  UNL1        0.0213
     17 C         -33.1514    1.5027   27.5257 C.ar    1  UNL1       -0.0007
     18 C         -30.8734    1.6450   27.0469 C.ar    1  UNL1       -0.0007
     19 C         -31.0351    2.5644   25.9990 C.ar    1  UNL1       -0.0002
     20 C         -33.3985    2.5155   26.4420 C.ar    1  UNL1       -0.0002
     21 C         -32.3421    3.0254   25.7410 C.ar    1  UNL1       -0.0000
     22 C         -34.7567    3.0052   26.1725 C.ar    1  UNL1       -0.0000
     23 C         -35.0523    3.5725   25.1294 C.ar    1  UNL1       -0.0000
     24 C         -33.9238    4.1498   24.2700 C.ar    1  UNL1       -0.0000
     25 C         -32.5718    3.8946   24.5863 C.ar    1  UNL1       -0.0000
@<TRIPOS>BOND
     1     3    11    1
     2     2    12    1
     3    12    13    1
     4    12    14    2
     5    13    15    1
     6    15    16    1
     7     6    10   ar
     8    10     9   ar
     9     9     8   ar
    10     8     7   ar
    11     7     4   ar
    12    16    17   ar
    13    17    20   ar
    14    21    19   ar
    15    19    18   ar
    16    18    16   ar
    17    20    21   ar
    18    21    25   ar
    19    25    24   ar
    20    24    23   ar
    21    23    22   ar
    22    22    20   ar
    23     1     2   ar
    24     2     5   ar
    25     5     6   ar
    26     6     4   ar
    27     4     3   ar
    28     3     1   ar
