@<TRIPOS>MOLECULE
No_1072-gen_results/8p0m/2024-11-26-14-13-15/
 30 31 0 0 0
SMALL
GASTEIGER

@<TRIPOS>ATOM
      1 C         -28.0162   -0.8135   28.8779 C.ar    1  UNL1        0.0375
      2 C         -28.4690   -0.7850   29.8287 C.ar    1  UNL1        0.1490
      3 C         -27.0871    0.2903   28.6377 C.ar    1  UNL1        0.0063
      4 C         -26.2516    0.4114   27.4223 C.2     1  UNL1        0.0549
      5 C         -28.3913    0.1041   30.9805 C.ar    1  UNL1        0.0374
      6 C         -27.5332    1.1666   30.7866 C.ar    1  UNL1        0.0018
      7 C         -26.8281    1.2557   29.6454 C.ar    1  UNL1        0.0144
      8 C         -25.1382    0.6747   27.2309 C.2     1  UNL1        0.0082
      9 C         -24.3156    0.8664   28.4421 C.2     1  UNL1        0.0703
     10 C         -24.4954    1.5107   29.5562 C.2     1  UNL1        0.0169
     11 C         -25.5259    1.8219   30.0101 C.3     1  UNL1        0.2053
     12 C         -22.8844    0.4468   28.2234 C.3     1  UNL1        0.4184
     13 F         -22.0699    1.2800   27.7468 F       1  UNL1       -0.1659
     14 F         -22.2874    0.0317   29.4743 F       1  UNL1       -0.1659
     15 F         -22.7552   -0.6649   27.5167 F       1  UNL1       -0.1659
     16 C         -27.1011    0.3156   26.1625 C.2     1  UNL1        0.2650
     17 O         -26.5792   -0.0100   25.1167 O.2     1  UNL1       -0.2684
     18 N         -28.3050    0.8755   26.0838 N.am    1  UNL1       -0.1925
     19 C         -29.1458    0.8623   24.9501 C.3     1  UNL1        0.2182
     20 C         -30.1186   -0.0669   24.8146 C.3     1  UNL1        0.4175
     21 F         -29.7934   -1.1752   24.9584 F       1  UNL1       -0.1681
     22 F         -31.0791    0.1090   25.8342 F       1  UNL1       -0.1681
     23 F         -30.8426    0.0259   23.6759 F       1  UNL1       -0.1681
     24 F         -25.5878    2.7943   30.9276 F       1  UNL1       -0.2276
     25 O         -29.5890   -1.7522   30.0318 O.3     1  UNL1       -0.4165
     26 C         -29.4974   -2.9773   30.6601 C.2     1  UNL1        0.4267
     27 C         -30.2994   -3.9249   30.0494 C.2     1  UNL1        0.4625
     28 O         -31.4456   -3.9078   30.4923 O.co2   1  UNL1       -0.2332
     29 O         -29.7763   -5.1054   29.7138 O.co2   1  UNL1       -0.2332
     30 O         -28.4395   -3.1065   31.3931 O.2     1  UNL1       -0.2370
@<TRIPOS>BOND
     1     3     4    1
     2     4     8    2
     3     8     9    1
     4     9    10    2
     5     7    11    1
     6    10    11    1
     7     9    12    1
     8    12    13    1
     9    12    14    1
    10    12    15    1
    11     4    16    1
    12    16    17    2
    13    16    18   am
    14    18    19    1
    15    19    20    1
    16    20    21    1
    17    20    22    1
    18    20    23    1
    19    11    24    1
    20     2    25    1
    21    25    26    1
    22    26    27    1
    23    27    28   ar
    24    27    29   ar
    25    26    30    2
    26     1     2   ar
    27     2     5   ar
    28     5     6   ar
    29     6     7   ar
    30     7     3   ar
    31     3     1   ar
