@<TRIPOS>MOLECULE
No_1073-gen_results/8p0m/2024-11-26-14-13-15/
 20 21 0 0 0
SMALL
GASTEIGER

@<TRIPOS>ATOM
      1 C         -28.0162   -0.8135   28.8779 C.ar    1  UNL1       -0.0000
      2 C         -27.0636   -0.1190   28.6079 C.ar    1  UNL1       -0.0003
      3 C         -25.7647   -0.3897   29.0360 C.ar    1  UNL1       -0.0039
      4 C         -24.5516    0.4058   28.7646 C.ar    1  UNL1       -0.0189
      5 C         -23.2300    0.1178   29.2575 C.ar    1  UNL1       -0.0042
      6 C         -23.0942   -1.1309   29.8730 C.ar    1  UNL1       -0.0003
      7 C         -27.7981   -1.9341   29.8560 C.ar    1  UNL1       -0.0000
      8 C         -26.5420   -2.3269   30.2580 C.ar    1  UNL1       -0.0000
      9 C         -25.4514   -1.5516   29.9079 C.ar    1  UNL1       -0.0003
     10 C         -24.1562   -1.9097   30.2809 C.ar    1  UNL1       -0.0000
     11 C         -24.6450    1.6582   27.9464 C.3     1  UNL1        0.0660
     12 C         -25.0764    1.5784   26.6992 C.3     1  UNL1        0.0085
     13 C         -24.3307    2.9033   28.6159 C.3     1  UNL1        0.2098
     14 O         -25.1757    3.5244   28.7641 O.2     1  UNL1       -0.4721
     15 C         -25.5584    4.4900   28.0621 C.2     1  UNL1        0.1722
     16 C         -26.3628    5.4561   28.6097 C.2     1  UNL1        0.0400
     17 C         -26.7485    5.3078   29.7937 C.2     1  UNL1        0.0032
     18 C         -26.7535    4.4882   30.5725 C.2     1  UNL1        0.0001
     19 C         -26.5243    3.4912   30.5011 C.2     1  UNL1        0.0000
     20 C         -26.6922    2.5154   31.6183 C.2     1  UNL1        0.0000
@<TRIPOS>BOND
     1     4    11    1
     2    11    12    1
     3    11    13    1
     4    13    14    1
     5    14    15    1
     6    15    16    2
     7    16    17    1
     8    17    18    2
     9    18    19    1
    10    19    20    2
    11     1     2   ar
    12     2     3   ar
    13     9     8   ar
    14     8     7   ar
    15     7     1   ar
    16     3     4   ar
    17     4     5   ar
    18     5     6   ar
    19     6    10   ar
    20    10     9   ar
    21     9     3   ar
