@<TRIPOS>MOLECULE
No_1074-gen_results/8p0m/2024-11-26-14-13-15/
 17 18 0 0 0
SMALL
GASTEIGER

@<TRIPOS>ATOM
      1 C         -28.0162   -0.8135   28.8779 C.ar    1  UNL1        0.0046
      2 C         -27.0636   -0.1190   28.6079 C.ar    1  UNL1       -0.0001
      3 C         -27.0010    0.6913   27.4910 C.ar    1  UNL1        0.0005
      4 C         -25.7770    1.0214   26.9135 C.ar    1  UNL1        0.0064
      5 C         -24.5088    0.7364   27.5686 C.ar    1  UNL1        0.0306
      6 C         -24.5930   -0.0361   28.7390 C.ar    1  UNL1       -0.0160
      7 C         -25.8114   -0.4771   29.1584 C.ar    1  UNL1       -0.0035
      8 C         -28.1069   -1.4831   30.2046 C.ar    1  UNL1        0.0550
      9 C         -29.3401   -2.1557   30.6205 C.2     1  UNL1        0.2648
     10 C         -26.9104   -1.7118   30.9836 C.ar    1  UNL1        0.0046
     11 C         -25.7320   -1.2708   30.3891 C.ar    1  UNL1       -0.0002
     12 O         -30.3107   -1.7258   30.1636 O.2     1  UNL1       -0.2684
     13 N         -29.2743   -3.1753   31.4803 N.am    1  UNL1       -0.1998
     14 C         -30.4640   -3.9204   31.9082 C.3     1  UNL1        0.1388
     15 BR        -22.8968    1.4972   26.9519 Br      1  UNL1       -0.0493
     16 C         -23.2413   -0.2893   29.3804 C.3     1  UNL1        0.0269
     17 C         -22.0927    0.0459   29.0079 C.3     1  UNL1        0.0050
@<TRIPOS>BOND
     1     8     9    1
     2     9    12    2
     3     9    13   am
     4    13    14    1
     5     5    15    1
     6     6    16    1
     7    16    17    1
     8     2     3   ar
     9     3     4   ar
    10     4     5   ar
    11     5     6   ar
    12     6     7   ar
    13     1     2   ar
    14     2     7   ar
    15     7    11   ar
    16    11    10   ar
    17    10     8   ar
    18     8     1   ar
