@<TRIPOS>MOLECULE
No_1075-gen_results/8p0m/2024-11-26-14-13-15/
 35 39 0 0 0
SMALL
GASTEIGER

@<TRIPOS>ATOM
      1 O         -28.1229   -1.3353   28.4874 O.2     1  UNL1       -0.2695
      2 C         -27.4806   -0.4044   28.7094 C.2     1  UNL1        0.2545
      3 C         -26.3804   -0.0867   27.9394 C.ar    1  UNL1        0.0513
      4 N         -27.4232    0.1749   30.0549 N.am    1  UNL1       -0.2258
      5 C         -25.4065    0.7421   28.2860 C.ar    1  UNL1        0.0019
      6 C         -24.2797    1.1770   27.5072 C.ar    1  UNL1        0.0543
      7 C         -24.4975    1.0973   26.1181 C.ar    1  UNL1        0.0111
      8 C         -25.5539    0.2862   25.6704 C.ar    1  UNL1        0.0010
      9 C         -26.4527   -0.1693   26.5147 C.ar    1  UNL1        0.0043
     10 C         -26.7330    1.2056   30.5420 C.2     1  UNL1        0.2360
     11 C         -25.4733    1.4521   29.7489 C.3     1  UNL1        0.1129
     12 C         -28.5866   -0.3183   30.9327 C.3     1  UNL1        0.1067
     13 O         -26.8767    1.8606   31.5485 O.2     1  UNL1       -0.2741
     14 CL        -22.9837    2.1533   28.0087 Cl      1  UNL1       -0.0826
     15 C         -29.7665   -0.2843   30.8854 C.3     1  UNL1        0.0484
     16 C         -30.3179    0.8322   30.3189 C.ar    1  UNL1       -0.0205
     17 C         -30.7941    1.0642   29.4064 C.ar    1  UNL1       -0.0042
     18 C         -31.3009    2.3593   28.8662 C.ar    1  UNL1       -0.0003
     19 C         -31.1810    3.4456   29.7123 C.ar    1  UNL1       -0.0000
     20 C         -30.5975    3.2585   30.9399 C.ar    1  UNL1       -0.0003
     21 C         -30.1470    2.0592   31.2980 C.ar    1  UNL1       -0.0042
     22 C         -27.8481   -1.0339   32.1134 C.3     1  UNL1        0.1113
     23 N         -28.1025   -0.6950   33.1695 N.pl3   1  UNL1       -0.3058
     24 C         -28.0563    0.1306   33.9428 C.ar    1  UNL1        0.0479
     25 C         -26.9249    0.7926   34.2534 C.ar    1  UNL1        0.0145
     26 C         -26.8682    2.0412   35.0032 C.ar    1  UNL1        0.0013
     27 C         -27.7113    2.7717   34.8440 C.ar    1  UNL1        0.0001
     28 C         -27.7267    4.0506   35.6026 C.ar    1  UNL1        0.0000
     29 C         -28.7807    4.9676   35.6826 C.ar    1  UNL1        0.0000
     30 C         -29.9140    4.5557   34.8986 C.ar    1  UNL1        0.0000
     31 C         -30.0104    3.3990   34.2253 C.ar    1  UNL1        0.0000
     32 C         -28.9299    2.5290   34.2333 C.ar    1  UNL1        0.0012
     33 C         -29.1153    1.1693   33.7384 C.ar    1  UNL1        0.0145
     34 C         -29.2470   -1.7533   33.6239 C.3     1  UNL1        0.0909
     35 C         -29.3792   -1.8055   34.9673 C.3     1  UNL1        0.0232
@<TRIPOS>BOND
     1     1     2    2
     2     2     3    1
     3     2     4   am
     4     4    10   am
     5     5    11    1
     6    10    11    1
     7     4    12    1
     8    10    13    2
     9     6    14    1
    10    12    15    1
    11    15    16    1
    12    12    22    1
    13    22    23    1
    14    23    24    1
    15    23    34    1
    16    34    35    1
    17     3     9   ar
    18     9     8   ar
    19     8     7   ar
    20     7     6   ar
    21     6     5   ar
    22     5     3   ar
    23    27    28   ar
    24    28    29   ar
    25    29    30   ar
    26    30    31   ar
    27    31    32   ar
    28    24    25   ar
    29    25    26   ar
    30    26    27   ar
    31    27    32   ar
    32    32    33   ar
    33    33    24   ar
    34    16    17   ar
    35    17    18   ar
    36    18    19   ar
    37    19    20   ar
    38    20    21   ar
    39    21    16   ar
