@<TRIPOS>MOLECULE
No_1077-gen_results/8p0m/2024-11-26-14-13-15/
 18 19 0 0 0
SMALL
GASTEIGER

@<TRIPOS>ATOM
      1 C         -28.0162   -0.8135   28.8779 C.2     1  UNL1       -0.0014
      2 C         -27.0636   -0.1189   28.6079 C.2     1  UNL1        0.0125
      3 C         -26.9716    0.7139   27.5060 C.2     1  UNL1        0.1694
      4 C         -25.8205    1.4909   27.1160 C.3     1  UNL1        0.0773
      5 C         -24.6562    1.4242   27.9180 C.3     1  UNL1        0.1031
      6 C         -24.6847    0.5901   29.0659 C.3     1  UNL1        0.0137
      7 C         -25.8099   -0.1265   29.3338 C.3     1  UNL1        0.0295
      8 C         -28.0540   -1.5468   30.1892 C.ar    1  UNL1       -0.0002
      9 C         -29.1862   -2.2765   30.5561 C.ar    1  UNL1       -0.0000
     10 C         -23.4656    2.2222   27.6194 C.3     1  UNL1        0.3979
     11 F         -22.7924    2.4899   28.6448 F       1  UNL1       -0.1700
     12 F         -22.5545    1.5185   26.8319 F       1  UNL1       -0.1700
     13 F         -23.7976    3.3392   27.0006 F       1  UNL1       -0.1700
     14 C         -29.6306   -2.3153   31.5571 C.ar    1  UNL1       -0.0000
     15 C         -29.0673   -1.7238   32.7425 C.ar    1  UNL1       -0.0000
     16 C         -27.9362   -0.9318   32.4514 C.ar    1  UNL1       -0.0000
     17 C         -27.8719   -0.3945   31.2557 C.ar    1  UNL1       -0.0000
     18 O         -28.0150    0.8534   26.7139 O.2     1  UNL1       -0.2917
@<TRIPOS>BOND
     1     1     2    2
     2     2     3    1
     3     3     4    1
     4     4     5    1
     5     5     6    1
     6     2     7    1
     7     6     7    1
     8     1     8    1
     9     5    10    1
    10    10    11    1
    11    10    12    1
    12    10    13    1
    13     3    18    2
    14     8     9   ar
    15     9    14   ar
    16    14    15   ar
    17    15    16   ar
    18    16    17   ar
    19    17     8   ar
