@<TRIPOS>MOLECULE
No_1078-gen_results/8p0m/2024-11-26-14-13-15/
 10 10 0 0 0
SMALL
GASTEIGER

@<TRIPOS>ATOM
      1 C         -28.0162   -0.8135   28.8779 C.ar    1  UNL1        0.0039
      2 C         -28.4690   -0.7850   29.8287 C.ar    1  UNL1        0.0714
      3 C         -27.0871    0.2903   28.6377 C.ar    1  UNL1       -0.0001
      4 C         -26.7676    1.0274   29.4716 C.ar    1  UNL1       -0.0000
      5 C         -29.4593   -1.9217   30.2024 C.3     1  UNL1        0.4186
      6 C         -27.3079    1.0334   30.7802 C.ar    1  UNL1       -0.0001
      7 C         -28.2256   -0.0215   31.0470 C.ar    1  UNL1        0.0039
      8 F         -29.7925   -1.7203   31.5943 F       1  UNL1       -0.1659
      9 F         -28.8428   -3.0980   30.1712 F       1  UNL1       -0.1659
     10 F         -30.5106   -1.9650   29.5146 F       1  UNL1       -0.1659
@<TRIPOS>BOND
     1     2     5    1
     2     5     8    1
     3     5     9    1
     4     5    10    1
     5     1     2   ar
     6     2     7   ar
     7     7     6   ar
     8     6     4   ar
     9     4     3   ar
    10     3     1   ar
