@<TRIPOS>MOLECULE
No_1079-gen_results/8p0m/2024-11-26-14-13-15/
 12 12 0 0 0
SMALL
GASTEIGER

@<TRIPOS>ATOM
      1 C         -28.0162   -0.8135   28.8779 C.2     1  UNL1        0.2342
      2 C         -27.0636   -0.1189   28.6079 C.ar    1  UNL1        0.0422
      3 C         -26.8756    1.1325   28.9134 C.ar    1  UNL1        0.0032
      4 C         -25.6883    1.9515   28.5672 C.ar    1  UNL1        0.0040
      5 C         -24.6394    1.2834   27.8753 C.ar    1  UNL1        0.0714
      6 C         -23.4556    1.9996   27.5653 C.3     1  UNL1        0.4186
      7 C         -25.8432   -0.7373   27.9210 C.ar    1  UNL1        0.0032
      8 C         -24.6903   -0.0521   27.5832 C.ar    1  UNL1        0.0040
      9 F         -22.5238    1.5575   27.3583 F       1  UNL1       -0.1659
     10 F         -23.2698    3.0428   28.5371 F       1  UNL1       -0.1659
     11 F         -23.7792    2.8850   26.4818 F       1  UNL1       -0.1659
     12 O         -29.2121   -0.3798   28.7688 O.2     1  UNL1       -0.2831
@<TRIPOS>BOND
     1     5     6    1
     2     6     9    1
     3     6    10    1
     4     6    11    1
     5     1    12    2
     6     1     2    1
     7     2     3   ar
     8     3     4   ar
     9     4     5   ar
    10     5     8   ar
    11     8     7   ar
    12     7     2   ar
