@<TRIPOS>MOLECULE
No_108-gen_results/8p0m/2024-11-26-14-13-15/
 24 25 0 0 0
SMALL
GASTEIGER

@<TRIPOS>ATOM
      1 C         -28.0162   -0.8135   28.8779 C.ar    1  UNL1        0.0552
      2 C         -28.4690   -0.7850   29.8287 C.2     1  UNL1        0.2651
      3 C         -28.1816    0.4277   28.1134 C.ar    1  UNL1        0.0077
      4 C         -27.4498    0.6435   26.8500 C.ar    1  UNL1        0.0370
      5 C         -26.1815    0.0357   26.7145 C.ar    1  UNL1        0.1386
      6 C         -25.7800   -0.9326   27.6938 C.ar    1  UNL1        0.0370
      7 C         -26.5568   -1.2134   28.7413 C.ar    1  UNL1        0.0077
      8 N         -29.6101   -0.2783   30.1938 N.am    1  UNL1       -0.1968
      9 O         -28.0389   -1.6599   30.8481 O.2     1  UNL1       -0.2684
     10 C         -30.4672   -0.5472   31.3820 C.3     1  UNL1        0.1418
     11 O         -25.3512    0.2980   25.6733 O.3     1  UNL1       -0.4755
     12 C         -24.6863    1.5160   25.6835 C.3     1  UNL1        0.2054
     13 C         -23.2714    1.4253   25.7523 C.3     1  UNL1        0.0479
     14 C         -22.6799    1.8494   27.0850 C.3     1  UNL1        0.0156
     15 C         -21.5790    1.1536   27.5858 C.3     1  UNL1        0.1142
     16 C         -21.7812    0.0775   28.4872 C.2     1  UNL1        0.3649
     17 O         -22.9042   -0.0639   29.0042 O.co2   1  UNL1       -0.2457
     18 O         -20.8399   -0.7229   28.7029 O.co2   1  UNL1       -0.2457
     19 C         -30.1705   -0.6867   32.4641 C.ar    1  UNL1       -0.0006
     20 C         -31.0576   -0.9474   33.5801 C.ar    1  UNL1       -0.0026
     21 C         -30.6254   -1.1729   34.8803 C.ar    1  UNL1       -0.0003
     22 C         -29.2358   -1.1854   35.1940 C.ar    1  UNL1       -0.0000
     23 C         -28.2900   -0.9968   34.1561 C.ar    1  UNL1       -0.0003
     24 C         -28.7474   -0.7608   32.8708 C.ar    1  UNL1       -0.0026
@<TRIPOS>BOND
     1     1     2    1
     2     2     8   am
     3     2     9    2
     4     8    10    1
     5     5    11    1
     6    11    12    1
     7    12    13    1
     8    13    14    1
     9    14    15    1
    10    15    16    1
    11    16    17   ar
    12    16    18   ar
    13    10    19    1
    14    19    20   ar
    15    20    21   ar
    16    21    22   ar
    17    22    23   ar
    18    23    24   ar
    19    24    19   ar
    20     1     3   ar
    21     3     4   ar
    22     4     5   ar
    23     5     6   ar
    24     6     7   ar
    25     7     1   ar
