@<TRIPOS>MOLECULE
No_1080-gen_results/8p0m/2024-11-26-14-13-15/
 9 9 0 0 0
SMALL
GASTEIGER

@<TRIPOS>ATOM
      1 BR        -28.1146   -0.6256   29.0813 Br      1  UNL1        0.0109
      2 C         -28.0686    0.2105   30.1716 C.1     1  UNL1       -0.0184
      3 C         -28.0003    0.8873   30.9176 C.1     1  UNL1       -0.0529
      4 C         -27.7309    2.2146   30.7251 C.ar    1  UNL1        0.0425
      5 C         -27.5301    3.2106   31.8095 C.ar    1  UNL1        0.0083
      6 C         -27.1205    4.5730   31.5388 C.ar    1  UNL1        0.0006
      7 C         -26.8759    4.9224   30.1798 C.ar    1  UNL1        0.0000
      8 C         -26.9597    3.9610   29.2289 C.ar    1  UNL1        0.0006
      9 C         -27.2959    2.7312   29.5323 C.ar    1  UNL1        0.0083
@<TRIPOS>BOND
     1     1     2    1
     2     2     3    3
     3     3     4    1
     4     4     5   ar
     5     5     6   ar
     6     6     7   ar
     7     7     8   ar
     8     8     9   ar
     9     9     4   ar
