@<TRIPOS>MOLECULE
No_1081-gen_results/8p0m/2024-11-26-14-13-15/
 35 38 0 0 0
SMALL
GASTEIGER

@<TRIPOS>ATOM
      1 C         -28.0162   -0.8135   28.8779 C.ar    1  UNL1        0.0064
      2 C         -28.4690   -0.7850   29.8287 C.ar    1  UNL1        0.0756
      3 C         -26.5042   -0.7777   28.8766 C.ar    1  UNL1        0.0005
      4 C         -25.6540   -0.6597   27.7191 C.ar    1  UNL1        0.0023
      5 C         -27.9180   -0.9374   31.1824 C.ar    1  UNL1        0.0064
      6 C         -26.5424   -0.9399   31.2606 C.ar    1  UNL1        0.0004
      7 C         -25.7832   -0.8935   30.1201 C.ar    1  UNL1        0.0067
      8 C         -24.3096   -0.3015   27.8531 C.ar    1  UNL1        0.0298
      9 C         -23.6669   -0.4595   29.0986 C.ar    1  UNL1        0.1446
     10 C         -24.3700   -0.6645   30.2027 C.ar    1  UNL1        0.0841
     11 F         -22.3572   -0.2482   29.1369 F       1  UNL1       -0.2040
     12 C         -30.0712   -0.8656   29.8821 C.2     1  UNL1        0.3411
     13 O         -30.7100   -0.0922   30.7561 O.3     1  UNL1       -0.4484
     14 O         -30.6603   -1.4584   29.0296 O.2     1  UNL1       -0.2449
     15 C         -23.6724   -0.7583   31.5308 C.2     1  UNL1        0.2864
     16 N         -23.9792    0.0121   32.5527 N.am    1  UNL1       -0.0836
     17 O         -22.7353   -1.5511   31.6863 O.2     1  UNL1       -0.2666
     18 C         -32.0006   -0.0509   30.9015 C.3     1  UNL1        0.1810
     19 C         -32.7822    0.7155   30.5252 C.3     1  UNL1        0.0673
     20 C         -34.1838    0.6727   30.6060 C.ar    1  UNL1       -0.0157
     21 C         -35.0712    1.6419   30.1082 C.ar    1  UNL1        0.0025
     22 C         -36.4746    1.5686   30.2408 C.ar    1  UNL1        0.0795
     23 C         -36.9286    0.3745   30.8776 C.ar    1  UNL1        0.0066
     24 C         -36.1082   -0.5917   31.3453 C.ar    1  UNL1        0.0027
     25 C         -34.7260   -0.4554   31.2094 C.ar    1  UNL1        0.0310
     26 C         -32.4407   -1.2988   31.6484 C.3     1  UNL1        0.1130
     27 C         -33.8646   -1.4411   31.7307 C.2     1  UNL1        0.1764
     28 C         -37.3198    2.5882   29.7604 C.2     1  UNL1        0.3877
     29 O         -38.2710    2.9013   30.3325 O.co2   1  UNL1       -0.2406
     30 O         -36.9278    3.1844   28.6982 O.co2   1  UNL1       -0.2406
     31 O         -34.3046   -2.4943   32.3601 O.2     1  UNL1       -0.2912
     32 C         -32.2278    1.9839   29.7611 C.3     1  UNL1        0.0337
     33 C         -31.0860    2.2510   29.4209 C.2     1  UNL1       -0.0302
     34 C         -30.7610    3.3889   28.6518 C.2     1  UNL1       -0.0303
     35 C         -31.7451    4.2124   28.2495 C.3     1  UNL1        0.0303
@<TRIPOS>BOND
     1     9    11    1
     2     2    12    1
     3    12    13    1
     4    12    14    2
     5    10    15    1
     6    15    16   am
     7    15    17    2
     8    13    18    1
     9    18    19    1
    10    18    26    1
    11    25    27    1
    12    26    27    1
    13    22    28    1
    14    28    29   ar
    15    28    30   ar
    16    27    31    2
    17    19    32    1
    18    32    33    1
    19    33    34    2
    20    34    35    1
    21    20    19    1
    22     1     2   ar
    23     2     5   ar
    24     5     6   ar
    25     6     7   ar
    26     3     1   ar
    27    20    21   ar
    28    21    22   ar
    29    22    23   ar
    30    23    24   ar
    31    24    25   ar
    32    25    20   ar
    33     3     4   ar
    34     4     8   ar
    35     8     9   ar
    36     9    10   ar
    37    10     7   ar
    38     7     3   ar
