@<TRIPOS>MOLECULE
No_1083-gen_results/8p0m/2024-11-26-14-13-15/
 33 37 0 0 0
SMALL
GASTEIGER

@<TRIPOS>ATOM
      1 C         -28.0162   -0.8135   28.8779 C.ar    1  UNL1        0.0045
      2 C         -27.0636   -0.1190   28.6079 C.ar    1  UNL1        0.0001
      3 C         -26.9287    1.1713   29.0083 C.ar    1  UNL1        0.0001
      4 C         -25.7702    2.0341   28.6884 C.ar    1  UNL1        0.0032
      5 C         -25.6189    3.3482   29.0918 C.ar    1  UNL1        0.0002
      6 C         -29.0712   -0.3338   29.7689 C.ar    1  UNL1        0.0539
      7 C         -29.0128    0.9333   30.1718 C.ar    1  UNL1        0.0045
      8 C         -27.8993    1.7759   29.8587 C.ar    1  UNL1        0.0001
      9 C         -24.7637    1.5278   27.7799 C.ar    1  UNL1        0.0420
     10 C         -23.6558    2.3377   27.4155 C.ar    1  UNL1        0.1957
     11 C         -24.6190    4.2235   28.5229 C.ar    1  UNL1        0.0033
     12 C         -23.6236    3.6589   27.7229 C.ar    1  UNL1        0.0420
     13 C         -30.1497   -1.2693   30.0881 C.2     1  UNL1        0.2528
     14 O         -31.0614   -1.2360   29.5204 O.2     1  UNL1       -0.2696
     15 N         -30.0386   -1.8155   31.3666 N.am    1  UNL1       -0.2514
     16 C         -31.0735   -2.7611   31.8117 C.2     1  UNL1        0.0633
     17 C         -28.8369   -1.7768   32.1654 C.3     1  UNL1        0.1325
     18 O         -22.6990    1.8598   26.5693 O.3     1  UNL1       -0.2866
     19 C         -30.7010   -3.8269   32.1809 C.2     1  UNL1       -0.0090
     20 C         -29.9803   -4.7263   31.3830 C.2     1  UNL1       -0.0284
     21 C         -29.6304   -4.4003   30.1092 C.2     1  UNL1       -0.0259
     22 C         -28.6196   -5.3583   29.4537 C.3     1  UNL1        0.0517
     23 C         -27.5281   -4.9383   29.7768 C.ar    1  UNL1       -0.0195
     24 C         -26.3486   -5.0046   28.9641 C.ar    1  UNL1       -0.0042
     25 C         -25.0514   -4.3701   29.4169 C.ar    1  UNL1       -0.0003
     26 C         -25.2113   -3.0028   29.9233 C.ar    1  UNL1       -0.0003
     27 C         -26.3941   -2.7534   30.7451 C.ar    1  UNL1       -0.0022
     28 C         -27.4712   -3.5296   30.5801 C.ar    1  UNL1        0.0026
     29 C         -28.5663   -3.0579   31.4494 C.3     1  UNL1        0.1573
     30 O         -28.6774   -3.9616   32.4274 O.3     1  UNL1       -0.3497
     31 C         -29.1896   -3.8798   33.6301 C.3     1  UNL1        0.1473
     32 C         -30.0581   -6.1207   31.8258 C.3     1  UNL1        0.0304
     33 C         -30.3162   -3.8288   33.6913 C.3     1  UNL1        0.0594
@<TRIPOS>BOND
     1     3     4    1
     2     6    13    1
     3    13    14    2
     4    13    15   am
     5    15    16    1
     6    15    17    1
     7    10    18    1
     8    16    19    2
     9    19    20    1
    10    20    21    2
    11    21    22    1
    12    17    29    1
    13    28    29    1
    14    29    30    1
    15    30    31    1
    16    20    32    1
    17    19    33    1
    18    31    33    1
    19    22    23    1
    20    23    24   ar
    21    24    25   ar
    22    25    26   ar
    23    26    27   ar
    24    27    28   ar
    25    28    23   ar
    26     1     2   ar
    27     2     3   ar
    28     3     8   ar
    29     8     7   ar
    30     7     6   ar
    31     6     1   ar
    32     4     5   ar
    33     5    11   ar
    34    11    12   ar
    35    12    10   ar
    36    10     9   ar
    37     9     4   ar
