@<TRIPOS>MOLECULE
No_1084-gen_results/8p0m/2024-11-26-14-13-15/
 23 25 0 0 0
SMALL
GASTEIGER

@<TRIPOS>ATOM
      1 F         -28.0727   -1.2542   28.5316 F       1  UNL1       -0.2045
      2 C         -27.3591   -0.3792   28.7224 C.ar    1  UNL1        0.1365
      3 C         -26.3323   -0.6441   29.4520 C.ar    1  UNL1        0.0302
      4 C         -25.2562    0.3203   29.7818 C.ar    1  UNL1        0.0137
      5 C         -25.4242    1.6275   29.2026 C.ar    1  UNL1        0.0575
      6 C         -26.5263    1.8254   28.4032 C.ar    1  UNL1        0.0097
      7 C         -27.4513    0.8601   28.1355 C.ar    1  UNL1        0.0099
      8 C         -28.5399    1.2022   27.2448 C.3     1  UNL1        0.0469
      9 C         -29.4852    0.8770   27.0868 C.ar    1  UNL1       -0.0153
     10 C         -30.4923    1.2139   26.0511 C.ar    1  UNL1       -0.0038
     11 C         -31.7734    0.7077   25.9002 C.ar    1  UNL1        0.0028
     12 C         -32.0877   -0.3924   26.7310 C.ar    1  UNL1        0.0375
     13 C         -31.2201   -0.8603   27.7151 C.ar    1  UNL1        0.1450
     14 C         -30.0810   -0.3123   27.9220 C.ar    1  UNL1        0.0335
     15 C         -27.9856    2.2833   26.2348 C.3     1  UNL1        0.0095
     16 CL        -24.2483    2.7990   29.5811 Cl      1  UNL1       -0.0823
     17 O         -31.7040   -1.8733   28.5000 O.3     1  UNL1       -0.4535
     18 C         -31.0867   -2.1723   29.6547 C.ar    1  UNL1        0.1453
     19 C         -31.9572   -2.5787   30.7396 C.ar    1  UNL1        0.0375
     20 C         -31.3327   -2.8214   31.9194 C.ar    1  UNL1        0.0031
     21 C         -29.9037   -2.8191   32.0858 C.ar    1  UNL1        0.0002
     22 C         -29.1463   -2.4575   30.9416 C.ar    1  UNL1        0.0031
     23 C         -29.7128   -2.1437   29.8374 C.ar    1  UNL1        0.0375
@<TRIPOS>BOND
     1     1     2    1
     2     7     8    1
     3     8    15    1
     4     5    16    1
     5    13    17    1
     6    17    18    1
     7     8     9    1
     8    18    19   ar
     9    19    20   ar
    10    20    21   ar
    11    21    22   ar
    12    22    23   ar
    13    23    18   ar
    14     2     3   ar
    15     3     4   ar
    16     4     5   ar
    17     5     6   ar
    18     6     7   ar
    19     7     2   ar
    20     9    10   ar
    21    10    11   ar
    22    11    12   ar
    23    12    13   ar
    24    13    14   ar
    25    14     9   ar
