@<TRIPOS>MOLECULE
No_1085-gen_results/8p0m/2024-11-26-14-13-15/
 22 26 0 0 0
SMALL
GASTEIGER

@<TRIPOS>ATOM
      1 C         -28.0162   -0.8135   28.8779 C.ar    1  UNL1       -0.0027
      2 C         -27.0636   -0.1190   28.6079 C.ar    1  UNL1       -0.0002
      3 C         -26.9716    0.7139   27.5060 C.ar    1  UNL1        0.0009
      4 C         -28.1053    0.7744   26.6421 C.ar    1  UNL1        0.0099
      5 C         -28.0677    1.4872   25.5121 C.ar    1  UNL1       -0.0119
      6 C         -29.2691   -0.5335   28.2245 C.ar    1  UNL1       -0.0041
      7 C         -29.2230    0.1355   27.0328 C.ar    1  UNL1        0.0501
      8 N         -30.3504    0.2122   26.2618 N.am    1  UNL1       -0.2544
      9 C         -26.9191    2.1780   25.1253 C.ar    1  UNL1       -0.0037
     10 C         -29.1981    1.5812   24.6178 C.3     1  UNL1        0.1119
     11 C         -30.3551    0.8430   25.0382 C.2     1  UNL1        0.2340
     12 C         -25.6867    1.2926   27.1017 C.ar    1  UNL1        0.0000
     13 C         -25.6850    2.1665   25.9462 C.ar    1  UNL1       -0.0003
     14 C         -31.5663   -0.5178   26.6030 C.3     1  UNL1        0.1244
     15 C         -32.0819   -0.0597   27.7891 C.ar    1  UNL1       -0.0056
     16 C         -33.2286    0.4227   27.7601 C.ar    1  UNL1       -0.0029
     17 C         -31.3658   -0.1441   29.0739 C.ar    1  UNL1       -0.0201
     18 C         -30.3336   -0.6438   29.1537 C.3     1  UNL1        0.0536
     19 O         -31.2293    0.6299   24.1949 O.2     1  UNL1       -0.2742
     20 C         -33.8903    1.0647   28.8552 C.ar    1  UNL1       -0.0003
     21 C         -33.2548    0.9377   30.1094 C.ar    1  UNL1       -0.0003
     22 C         -32.0562    0.3581   30.2426 C.ar    1  UNL1       -0.0042
@<TRIPOS>BOND
     1     7     8    1
     2     5    10    1
     3     8    11   am
     4    10    11    1
     5     8    14    1
     6    14    15    1
     7     6    18    1
     8    11    19    2
     9    18    17    1
    10    15    16   ar
    11    16    20   ar
    12    20    21   ar
    13    21    22   ar
    14    22    17   ar
    15    17    15   ar
    16     4     5   ar
    17     5     9   ar
    18     9    13   ar
    19    13    12   ar
    20    12     3   ar
    21     1     2   ar
    22     2     3   ar
    23     3     4   ar
    24     4     7   ar
    25     7     6   ar
    26     6     1   ar
