@<TRIPOS>MOLECULE
No_1086-gen_results/8p0m/2024-11-26-14-13-15/
 35 39 0 0 0
SMALL
GASTEIGER

@<TRIPOS>ATOM
      1 C         -28.0162   -0.8135   28.8779 C.ar    1  UNL1        0.0369
      2 C         -28.4690   -0.7850   29.8287 C.ar    1  UNL1        0.1391
      3 C         -27.0871    0.2903   28.6377 C.ar    1  UNL1        0.0032
      4 C         -26.0239    0.3644   29.2526 C.ar    1  UNL1        0.0066
      5 C         -27.5370   -0.6187   31.0883 C.ar    1  UNL1        0.0369
      6 C         -26.3844    0.1834   30.8012 C.ar    1  UNL1        0.0033
      7 O         -29.5100   -1.6195   30.2653 O.3     1  UNL1       -0.4699
      8 C         -30.7241   -1.2384   29.8510 C.3     1  UNL1        0.2412
      9 C         -31.5691   -2.3374   29.6640 C.2     1  UNL1        0.2661
     10 O         -31.2626   -3.4164   29.8770 O.2     1  UNL1       -0.2710
     11 N         -32.8152   -2.1125   29.0815 N.am    1  UNL1       -0.2725
     12 C         -33.2843   -0.7840   28.7047 C.3     1  UNL1        0.0940
     13 C         -31.0362    0.0483   29.5353 C.3     1  UNL1        0.0549
     14 C         -32.1245    0.3373   29.1460 C.3     1  UNL1        0.0257
     15 C         -26.8112    0.5418   27.0872 C.ar    1  UNL1        0.0001
     16 C         -27.6690    0.6484   26.2150 C.ar    1  UNL1        0.0008
     17 C         -29.0548    0.7538   26.5594 C.ar    1  UNL1        0.0114
     18 C         -30.0773    0.9299   25.5943 C.ar    1  UNL1        0.0577
     19 C         -29.6527    0.8737   24.3215 C.ar    1  UNL1        0.0114
     20 C         -27.5370    0.8276   24.7826 C.ar    1  UNL1        0.0001
     21 C         -28.4095    0.8737   23.8571 C.ar    1  UNL1        0.0009
     22 C         -25.3797    0.6619   26.7623 C.ar    1  UNL1        0.0002
     23 C         -24.3118    0.7628   27.7143 C.ar    1  UNL1        0.0066
     24 C         -24.7072    0.7455   29.0730 C.ar    1  UNL1        0.0798
     25 C         -23.6231    0.8487   30.0793 C.2     1  UNL1        0.3878
     26 O         -23.8031    1.5086   31.0196 O.co2   1  UNL1       -0.2406
     27 O         -22.6021    0.0273   29.9837 O.co2   1  UNL1       -0.2406
     28 CL        -31.7243    0.9600   26.0230 Cl      1  UNL1       -0.0822
     29 C         -33.7929   -3.1053   28.8366 C.3     1  UNL1        0.1202
     30 C         -34.8065   -3.3199   29.6782 C.ar    1  UNL1       -0.0023
     31 C         -35.1765   -2.5724   30.4685 C.ar    1  UNL1       -0.0026
     32 C         -36.3415   -2.8023   31.4299 C.ar    1  UNL1       -0.0003
     33 C         -36.9599   -4.0281   31.1826 C.ar    1  UNL1       -0.0000
     34 C         -36.5468   -4.8719   30.2385 C.ar    1  UNL1       -0.0003
     35 C         -35.4267   -4.5823   29.4368 C.ar    1  UNL1       -0.0026
@<TRIPOS>BOND
     1     2     7    1
     2     7     8    1
     3     8     9    1
     4     9    10    2
     5     9    11   am
     6    11    12    1
     7     8    13    1
     8    15    16    1
     9    24    25    1
    10    25    26   ar
    11    25    27   ar
    12    18    28    1
    13    11    29    1
    14    29    30    1
    15    13    14    1
    16    14    12    1
    17    30    31   ar
    18    31    32   ar
    19    32    33   ar
    20    33    34   ar
    21    34    35   ar
    22    35    30   ar
    23    16    17   ar
    24    17    18   ar
    25    18    19   ar
    26    19    21   ar
    27    21    20   ar
    28    20    16   ar
    29     4    24   ar
    30    24    23   ar
    31    23    22   ar
    32    22    15   ar
    33    15     3   ar
    34     1     2   ar
    35     2     5   ar
    36     5     6   ar
    37     6     4   ar
    38     4     3   ar
    39     3     1   ar
