@<TRIPOS>MOLECULE
No_1088-gen_results/8p0m/2024-11-26-14-13-15/
 15 16 0 0 0
SMALL
GASTEIGER

@<TRIPOS>ATOM
      1 C         -28.0162   -0.8135   28.8779 C.ar    1  UNL1        0.0116
      2 C         -27.0636   -0.1190   28.6079 C.ar    1  UNL1        0.0040
      3 C         -25.7647   -0.3897   29.0360 C.ar    1  UNL1        0.0391
      4 C         -24.5516    0.4058   28.7646 C.ar    1  UNL1        0.0053
      5 C         -24.6957    1.4480   27.7988 C.ar    1  UNL1        0.0297
      6 C         -23.5821    2.2165   27.4626 C.ar    1  UNL1        0.1401
      7 C         -22.3211    1.8240   27.9807 C.ar    1  UNL1        0.0296
      8 C         -22.1777    0.8172   28.8883 C.ar    1  UNL1        0.0023
      9 C         -23.3181    0.0417   29.2597 C.ar    1  UNL1        0.0002
     10 C         -27.8970   -1.8952   29.8587 C.ar    1  UNL1        0.0609
     11 C         -26.6530   -2.3395   30.2732 C.ar    1  UNL1        0.0534
     12 C         -25.5330   -1.5566   29.9092 C.ar    1  UNL1        0.1965
     13 CL        -29.2509   -2.8451   30.2832 Cl      1  UNL1       -0.0821
     14 F         -23.6494    3.1771   26.5896 F       1  UNL1       -0.2042
     15 O         -24.3123   -1.8623   30.1654 O.3     1  UNL1       -0.2865
@<TRIPOS>BOND
     1     3     4    1
     2    10    13    1
     3     6    14    1
     4    12    15    1
     5     1     2   ar
     6     2     3   ar
     7     3    12   ar
     8    12    11   ar
     9    11    10   ar
    10    10     1   ar
    11     4     5   ar
    12     5     6   ar
    13     6     7   ar
    14     7     8   ar
    15     8     9   ar
    16     9     4   ar
