@<TRIPOS>MOLECULE
No_1090-gen_results/8p0m/2024-11-26-14-13-15/
 15 16 0 0 0
SMALL
GASTEIGER

@<TRIPOS>ATOM
      1 C         -28.0162   -0.8135   28.8779 C.ar    1  UNL1        0.0145
      2 C         -27.0636   -0.1189   28.6079 C.ar    1  UNL1        0.0013
      3 C         -25.7647   -0.3897   29.0360 C.ar    1  UNL1        0.0015
      4 C         -25.5296   -1.5302   29.9014 C.ar    1  UNL1        0.0013
      5 C         -26.6888   -2.2893   30.1810 C.ar    1  UNL1        0.0145
      6 C         -27.8727   -1.9508   29.7373 C.ar    1  UNL1        0.0478
      7 N         -28.9290   -2.7583   30.1275 N.pl3   1  UNL1       -0.3075
      8 C         -30.1307   -2.3161   30.3537 C.3     1  UNL1        0.0908
      9 C         -31.1385   -3.3353   30.6074 C.3     1  UNL1        0.0215
     10 C         -28.7714   -4.1570   30.2708 C.3     1  UNL1        0.0908
     11 C         -29.6870   -5.0997   30.5535 C.3     1  UNL1        0.0215
     12 C         -30.8979   -4.6083   30.7855 C.3     1  UNL1        0.0035
     13 C         -24.4210    0.2343   28.7173 C.2     1  UNL1        0.0194
     14 C         -24.0561    1.3446   29.3944 C.2     1  UNL1        0.1057
     15 N         -22.8747    1.9381   28.9948 N.pl3   1  UNL1       -0.1266
@<TRIPOS>BOND
     1     6     7    1
     2     7     8    1
     3     7    10    1
     4     9    12    1
     5    11    12    1
     6     3    13    1
     7    13    14    2
     8    14    15    1
     9     8     9    1
    10    11    10    1
    11     1     2   ar
    12     2     3   ar
    13     3     4   ar
    14     4     5   ar
    15     5     6   ar
    16     6     1   ar
