@<TRIPOS>MOLECULE
No_1091-gen_results/8p0m/2024-11-26-14-13-15/
 33 37 0 0 0
SMALL
GASTEIGER

@<TRIPOS>ATOM
      1 C         -28.0162   -0.8135   28.8779 C.ar    1  UNL1        0.0046
      2 C         -27.0636   -0.1189   28.6079 C.ar    1  UNL1        0.0001
      3 C         -25.7923   -0.4302   29.0761 C.ar    1  UNL1       -0.0000
      4 C         -25.5756   -1.5654   29.9363 C.ar    1  UNL1        0.0001
      5 C         -26.7354   -2.3004   30.2173 C.ar    1  UNL1        0.0046
      6 C         -27.9184   -1.9537   29.7629 C.ar    1  UNL1        0.0554
      7 C         -29.0732   -2.7835   30.1783 C.2     1  UNL1        0.2690
      8 O         -30.1487   -2.3834   30.0722 O.2     1  UNL1       -0.2680
      9 N         -28.7657   -4.0371   30.6695 N.am    1  UNL1       -0.1741
     10 C         -29.8448   -4.9661   31.0133 C.ar    1  UNL1        0.0886
     11 C         -29.6623   -5.5690   32.1752 C.ar    1  UNL1        0.0179
     12 C         -30.5586   -6.6989   32.4822 C.ar    1  UNL1        0.0016
     13 C         -31.5473   -7.0376   31.5482 C.ar    1  UNL1        0.0059
     14 C         -31.6055   -6.3114   30.3462 C.ar    1  UNL1        0.0701
     15 C         -30.6835   -5.3093   30.0705 C.ar    1  UNL1        0.0869
     16 C         -24.5353    0.3528   28.7076 C.ar    1  UNL1       -0.0003
     17 C         -24.5194    1.1757   27.6473 C.ar    1  UNL1       -0.0043
     18 C         -23.2908    1.8528   27.3288 C.ar    1  UNL1       -0.0218
     19 C         -23.2031    2.7701   26.2632 C.3     1  UNL1        0.0310
     20 C         -23.2876    0.1199   29.4027 C.ar    1  UNL1       -0.0000
     21 C         -22.0550    1.6177   28.0336 C.ar    1  UNL1       -0.0043
     22 C         -22.0699    0.7635   29.0651 C.ar    1  UNL1       -0.0003
     23 C         -32.5974   -6.6933   29.3253 C.2     1  UNL1        0.2553
     24 N         -32.3243   -6.8304   28.1789 N.am    1  UNL1       -0.2358
     25 C         -31.5021   -5.9418   27.6414 C.3     1  UNL1        0.2128
     26 N         -30.5076   -5.3600   28.6045 N.pl3   1  UNL1       -0.2138
     27 C         -33.1081   -7.3834   27.1070 C.ar    1  UNL1        0.0557
     28 C         -33.0344   -8.5573   27.1658 C.ar    1  UNL1        0.0150
     29 C         -32.2896   -9.2000   26.4368 C.ar    1  UNL1        0.0013
     30 C         -31.7365   -8.6489   25.3545 C.ar    1  UNL1        0.0001
     31 C         -32.2873   -7.4028   24.9273 C.ar    1  UNL1        0.0013
     32 C         -33.0680   -6.7358   25.8349 C.ar    1  UNL1        0.0150
     33 O         -33.7379   -7.1000   29.7935 O.2     1  UNL1       -0.2695
@<TRIPOS>BOND
     1     6     7    1
     2     7     8    2
     3     7     9   am
     4     9    10    1
     5     3    16    1
     6    14    23    1
     7    23    24   am
     8    24    25    1
     9    15    26    1
    10    24    27    1
    11    23    33    2
    12    19    18    1
    13    26    25    1
    14     1     2   ar
    15     2     3   ar
    16     3     4   ar
    17     4     5   ar
    18     5     6   ar
    19     6     1   ar
    20    16    17   ar
    21    17    18   ar
    22    18    21   ar
    23    21    22   ar
    24    22    20   ar
    25    20    16   ar
    26    27    28   ar
    27    28    29   ar
    28    29    30   ar
    29    30    31   ar
    30    31    32   ar
    31    32    27   ar
    32    10    11   ar
    33    11    12   ar
    34    12    13   ar
    35    13    14   ar
    36    14    15   ar
    37    15    10   ar
