@<TRIPOS>MOLECULE
No_1092-gen_results/8p0m/2024-11-26-14-13-15/
 10 10 0 0 0
SMALL
GASTEIGER

@<TRIPOS>ATOM
      1 C         -28.0162   -0.8135   28.8779 C.ar    1  UNL1        0.0001
      2 C         -28.4690   -0.7850   29.8287 C.ar    1  UNL1        0.0000
      3 C         -26.6028   -1.0596   28.5384 C.ar    1  UNL1        0.0047
      4 C         -25.7969   -1.4490   29.7273 C.ar    1  UNL1        0.0584
      5 C         -26.4284   -1.5407   30.9833 C.ar    1  UNL1        0.0047
      6 C         -27.7563   -1.2444   31.0750 C.ar    1  UNL1        0.0001
      7 C         -24.3921   -1.7399   29.5644 C.2     1  UNL1        0.3064
      8 N         -23.9654   -2.6088   29.2307 N.am    1  UNL1        0.0431
      9 O         -23.6019   -0.7303   30.0278 O.2     1  UNL1       -0.2648
     10 O         -24.6135   -3.7170   28.8028 O.2     1  UNL1       -0.1528
@<TRIPOS>BOND
     1     4     7    1
     2     7     8    1
     3     7     9    2
     4     8    10    2
     5     1     2   ar
     6     2     6   ar
     7     6     5   ar
     8     5     4   ar
     9     4     3   ar
    10     3     1   ar
