@<TRIPOS>MOLECULE
No_1093-gen_results/8p0m/2024-11-26-14-13-15/
 15 16 0 0 0
SMALL
GASTEIGER

@<TRIPOS>ATOM
      1 C         -28.0162   -0.8135   28.8779 C.ar    1  UNL1        0.0320
      2 C         -27.0636   -0.1190   28.6079 C.ar    1  UNL1        0.1417
      3 C         -26.8756    1.1325   28.9134 C.ar    1  UNL1        0.0474
      4 C         -27.9014    1.8066   29.6436 C.ar    1  UNL1        0.0334
      5 C         -29.0458   -0.2316   29.7181 C.ar    1  UNL1        0.0319
      6 C         -28.9402    1.0517   30.0597 C.ar    1  UNL1        0.1403
      7 F         -26.0208   -0.6774   27.8774 F       1  UNL1       -0.2041
      8 F         -29.9120    1.5959   30.7993 F       1  UNL1       -0.2042
      9 C         -25.6705    1.9364   28.4378 C.ar    1  UNL1        0.0859
     10 N         -25.7971    3.1239   28.0285 N.ar    1  UNL1       -0.2179
     11 C         -24.7256    3.7598   27.3612 C.ar    1  UNL1        0.2223
     12 F         -24.8433    5.0454   27.0039 F       1  UNL1       -0.1832
     13 C         -23.6652    3.0071   26.8885 C.ar    1  UNL1        0.0497
     14 C         -23.5326    1.6907   27.3881 C.ar    1  UNL1        0.0055
     15 C         -24.5764    1.1265   28.1054 C.ar    1  UNL1        0.0194
@<TRIPOS>BOND
     1     2     7    1
     2     6     8    1
     3     3     9    1
     4    11    12    1
     5     1     2   ar
     6     2     3   ar
     7     3     4   ar
     8     4     6   ar
     9     6     5   ar
    10     5     1   ar
    11     9    10   ar
    12    10    11   ar
    13    11    13   ar
    14    13    14   ar
    15    14    15   ar
    16    15     9   ar
