@<TRIPOS>MOLECULE
No_1094-gen_results/8p0m/2024-11-26-14-13-15/
 15 16 0 0 0
SMALL
GASTEIGER

@<TRIPOS>ATOM
      1 BR        -28.1146   -0.6256   29.0813 Br      1  UNL1       -0.0490
      2 C         -26.9268    0.4545   28.6846 C.ar    1  UNL1        0.0345
      3 C         -25.8457    0.7043   29.3312 C.ar    1  UNL1        0.0064
      4 C         -24.8514    1.6413   28.9474 C.ar    1  UNL1       -0.0023
      5 C         -25.0097    2.3205   27.7273 C.ar    1  UNL1       -0.0032
      6 C         -26.1307    2.0369   26.9913 C.ar    1  UNL1       -0.0023
      7 C         -27.0265    1.1434   27.3985 C.ar    1  UNL1        0.0060
      8 C         -23.9671    3.2752   27.3123 C.3     1  UNL1        0.1356
      9 N         -24.1099    3.7461   26.0792 N.3     1  UNL1       -0.1262
     10 C         -28.2111    0.8455   26.5365 C.ar    1  UNL1        0.0005
     11 C         -29.2986    1.0661   26.6164 C.ar    1  UNL1        0.0000
     12 C         -30.3223    0.6927   25.7086 C.ar    1  UNL1        0.0000
     13 C         -27.8009    0.2440   25.2333 C.ar    1  UNL1        0.0000
     14 C         -28.6211   -0.1024   24.2773 C.ar    1  UNL1        0.0000
     15 C         -29.9409    0.1272   24.4900 C.ar    1  UNL1        0.0000
@<TRIPOS>BOND
     1     1     2    1
     2     5     8    1
     3     8     9    1
     4     7    10    1
     5     2     3   ar
     6     3     4   ar
     7     4     5   ar
     8     5     6   ar
     9     6     7   ar
    10     7     2   ar
    11    10    11   ar
    12    11    12   ar
    13    12    15   ar
    14    15    14   ar
    15    14    13   ar
    16    13    10   ar
