@<TRIPOS>MOLECULE
No_1096-gen_results/8p0m/2024-11-26-14-13-15/
 29 32 0 0 0
SMALL
GASTEIGER

@<TRIPOS>ATOM
      1 C         -28.0162   -0.8135   28.8779 C.ar    1  UNL1        0.0001
      2 C         -28.4690   -0.7850   29.8287 C.ar    1  UNL1        0.0308
      3 C         -26.5042   -0.7777   28.8766 C.ar    1  UNL1       -0.0002
      4 C         -25.6540   -0.6597   27.7191 C.ar    1  UNL1       -0.0000
      5 C         -29.9920   -0.8134   29.9579 C.3     1  UNL1        0.2764
      6 C         -24.2081   -0.6354   27.9684 C.ar    1  UNL1       -0.0000
      7 C         -23.7063   -0.7914   29.2384 C.ar    1  UNL1       -0.0000
      8 C         -24.5067   -0.9064   30.3194 C.ar    1  UNL1       -0.0000
      9 C         -25.8427   -0.9378   30.1742 C.ar    1  UNL1       -0.0000
     10 C         -27.8431   -0.9668   31.2073 C.ar    1  UNL1        0.0001
     11 C         -26.6376   -1.0149   31.3406 C.ar    1  UNL1       -0.0002
     12 N         -30.5515   -0.0135   29.1955 N.pl3   1  UNL1       -0.2024
     13 C         -31.8796    0.0046   28.8694 C.ar    1  UNL1        0.0681
     14 C         -32.7083   -0.4792   29.5787 C.ar    1  UNL1        0.0116
     15 F         -30.5167   -1.3314   30.9340 F       1  UNL1       -0.2081
     16 C         -34.1778   -0.4316   29.2955 C.ar    1  UNL1       -0.0239
     17 C         -32.1998   -0.0351   27.4998 C.ar    1  UNL1        0.0158
     18 C         -33.5441   -0.0332   27.0877 C.ar    1  UNL1       -0.0033
     19 C         -34.4864   -0.2928   28.0041 C.ar    1  UNL1       -0.0260
     20 C         -35.9076   -0.3216   27.5567 C.3     1  UNL1        0.0270
     21 C         -36.8749    0.0534   28.3668 C.3     1  UNL1        0.0170
     22 C         -36.4989    0.6468   29.5850 C.3     1  UNL1        0.0587
     23 C         -35.2389    0.1756   30.2085 C.3     1  UNL1        0.0381
     24 C         -37.6009    0.5575   30.7287 C.3     1  UNL1        0.0134
     25 C         -36.1683    2.1383   29.3190 C.1     1  UNL1       -0.0880
     26 C         -36.5118    3.1173   29.4966 C.1     1  UNL1       -0.0641
     27 C         -35.7575    4.0423   30.1724 C.2     1  UNL1        0.0447
     28 C         -34.3755    4.1609   29.8905 C.2     1  UNL1       -0.0170
     29 C         -33.8123    2.9693   29.3453 C.3     1  UNL1        0.0314
@<TRIPOS>BOND
     1     5    12    1
     2    12    13    1
     3     5    15    1
     4    19    20    1
     5    21    22    1
     6    16    23    1
     7    22    23    1
     8    22    24    1
     9    22    25    1
    10    25    26    3
    11    26    27    1
    12    27    28    2
    13    28    29    1
    14     5     2    1
    15    21    20    1
    16     3     4   ar
    17     4     6   ar
    18     6     7   ar
    19     7     8   ar
    20     8     9   ar
    21    13    14   ar
    22    14    16   ar
    23    16    19   ar
    24    19    18   ar
    25    18    17   ar
    26    17    13   ar
    27     1     2   ar
    28     2    10   ar
    29    10    11   ar
    30    11     9   ar
    31     9     3   ar
    32     3     1   ar
