@<TRIPOS>MOLECULE
No_1098-gen_results/8p0m/2024-11-26-14-13-15/
 18 19 0 0 0
SMALL
GASTEIGER

@<TRIPOS>ATOM
      1 C         -28.0162   -0.8135   28.8779 C.ar    1  UNL1        0.0374
      2 C         -28.4690   -0.7850   29.8287 C.ar    1  UNL1        0.1453
      3 C         -26.5042   -0.7777   28.8766 C.ar    1  UNL1        0.0070
      4 C         -25.8103   -0.8531   30.1028 C.ar    1  UNL1        0.0716
      5 C         -27.9906   -0.8916   31.2257 C.ar    1  UNL1        0.0374
      6 C         -26.6042   -0.8676   31.2652 C.ar    1  UNL1        0.0070
      7 O         -29.9385   -0.8194   29.8358 O.3     1  UNL1       -0.4535
      8 C         -30.6978   -1.6543   30.3501 C.ar    1  UNL1        0.1458
      9 C         -24.3665   -0.8009   30.1517 C.3     1  UNL1        0.4186
     10 F         -23.7964   -1.3338   29.2355 F       1  UNL1       -0.1659
     11 F         -23.9143   -1.4857   31.3305 F       1  UNL1       -0.1659
     12 F         -23.9540    0.4756   30.3174 F       1  UNL1       -0.1659
     13 C         -31.7560   -1.9507   29.5950 C.ar    1  UNL1        0.0442
     14 C         -32.5378   -3.1260   29.8692 C.ar    1  UNL1        0.0376
     15 C         -32.2360   -3.8531   31.0648 C.ar    1  UNL1        0.0069
     16 C         -31.1447   -3.5065   31.8304 C.ar    1  UNL1        0.0036
     17 C         -30.3097   -2.4976   31.4308 C.ar    1  UNL1        0.0375
     18 BR        -34.1197   -3.4815   28.9683 Br      1  UNL1       -0.0489
@<TRIPOS>BOND
     1     2     7    1
     2     7     8    1
     3     4     9    1
     4     9    10    1
     5     9    11    1
     6     9    12    1
     7    14    18    1
     8     8    13   ar
     9    13    14   ar
    10    14    15   ar
    11    15    16   ar
    12    16    17   ar
    13    17     8   ar
    14     1     2   ar
    15     2     5   ar
    16     5     6   ar
    17     6     4   ar
    18     4     3   ar
    19     3     1   ar
