@<TRIPOS>MOLECULE
No_11-gen_results/8p0m/2024-11-26-14-13-15/
 21 23 0 0 0
SMALL
GASTEIGER

@<TRIPOS>ATOM
      1 C         -28.0162   -0.8135   28.8779 C.ar    1  UNL1        0.0031
      2 C         -27.0636   -0.1189   28.6079 C.ar    1  UNL1        0.0378
      3 C         -26.9716    0.7139   27.5060 C.ar    1  UNL1        0.0173
      4 C         -28.1053    0.7744   26.6421 C.ar    1  UNL1        0.0033
      5 C         -29.2041    0.1179   27.0477 C.ar    1  UNL1        0.0534
      6 C         -29.2127   -0.6088   28.1281 C.ar    1  UNL1        0.0046
      7 C         -25.6104    1.3028   27.2626 C.3     1  UNL1        0.2058
      8 C         -24.5790    0.9447   27.8782 C.ar    1  UNL1        0.0172
      9 C         -23.2546    1.5743   27.6994 C.ar    1  UNL1       -0.0012
     10 C         -22.1658    1.2309   28.5550 C.ar    1  UNL1       -0.0002
     11 C         -22.2725    0.2005   29.4335 C.ar    1  UNL1        0.0001
     12 C         -23.4523   -0.5087   29.5813 C.ar    1  UNL1        0.0030
     13 C         -24.5311   -0.1449   28.8444 C.ar    1  UNL1        0.0378
     14 C         -25.7657   -0.5616   29.2528 C.2     1  UNL1        0.1951
     15 F         -25.6017    2.2031   26.2641 F       1  UNL1       -0.2275
     16 O         -25.8935   -1.4243   30.2130 O.2     1  UNL1       -0.2866
     17 C         -30.4191    0.3156   26.2337 C.2     1  UNL1        0.2491
     18 O         -30.5357   -0.2740   25.1274 O.2     1  UNL1       -0.2699
     19 N         -31.2266    1.3265   26.5137 N.am    1  UNL1       -0.2726
     20 C         -32.4204    1.6233   25.7015 C.3     1  UNL1        0.1152
     21 C         -30.7152    2.6294   26.9369 C.3     1  UNL1        0.1152
@<TRIPOS>BOND
     1     3     7    1
     2     2    14    1
     3    13    14    1
     4     7    15    1
     5    14    16    2
     6     5    17    1
     7    17    18    2
     8    17    19   am
     9    19    20    1
    10    19    21    1
    11     7     8    1
    12     1     2   ar
    13     2     3   ar
    14     3     4   ar
    15     4     5   ar
    16     5     6   ar
    17     6     1   ar
    18     8     9   ar
    19     9    10   ar
    20    10    11   ar
    21    11    12   ar
    22    12    13   ar
    23    13     8   ar
