@<TRIPOS>MOLECULE
No_1101-gen_results/8p0m/2024-11-26-14-13-15/
 28 30 0 0 0
SMALL
GASTEIGER

@<TRIPOS>ATOM
      1 C         -28.0162   -0.8135   28.8779 C.2     1  UNL1        0.2494
      2 C         -27.0636   -0.1189   28.6079 C.ar    1  UNL1        0.0497
      3 C         -25.7923   -0.4302   29.0761 C.ar    1  UNL1        0.0043
      4 C         -24.5456    0.3494   28.8225 C.ar    1  UNL1        0.0083
      5 C         -24.6586    1.4196   27.8878 C.ar    1  UNL1        0.0345
      6 C         -25.9471    1.6811   27.3792 C.ar    1  UNL1       -0.0012
      7 C         -27.0439    0.9739   27.6871 C.ar    1  UNL1       -0.0155
      8 O         -28.0017   -1.8582   29.6867 O.2     1  UNL1       -0.2699
      9 N         -29.2973   -0.4205   28.5637 N.am    1  UNL1       -0.2605
     10 C         -29.5635    0.6631   27.8183 C.3     1  UNL1        0.1839
     11 C         -28.4044    1.4041   27.3347 C.3     1  UNL1        0.0580
     12 C         -23.4500    2.1402   27.5683 C.ar    1  UNL1        0.1696
     13 N         -22.2521    1.7447   28.0425 N.ar    1  UNL1       -0.2260
     14 N         -23.5179    3.1233   26.6577 N.pl3   1  UNL1       -0.1072
     15 C         -30.8525    1.0484   27.3727 C.2     1  UNL1        0.3828
     16 O         -31.7145    1.2658   28.1164 O.co2   1  UNL1       -0.2438
     17 O         -30.9182    1.4035   26.1067 O.co2   1  UNL1       -0.2438
     18 C         -30.5092   -1.1720   28.9725 C.3     1  UNL1        0.1530
     19 C         -22.0314    0.8039   28.9396 C.ar    1  UNL1        0.1043
     20 C         -23.1849   -0.0492   29.3183 C.ar    1  UNL1        0.0906
     21 C         -22.9837   -1.1671   30.1694 C.3     1  UNL1        0.4200
     22 F         -22.3695   -0.9569   31.0951 F       1  UNL1       -0.1658
     23 F         -24.2079   -1.6824   30.4982 F       1  UNL1       -0.1658
     24 F         -22.3212   -2.0843   29.3820 F       1  UNL1       -0.1658
     25 P         -30.4264   -1.7176   30.5250 P.3     1  UNL1        0.1372
     26 O         -30.1103   -2.9067   30.5835 O.2     1  UNL1       -0.4584
     27 O         -29.4958   -0.8288   31.4288 O.3     1  UNL1       -0.3560
     28 O         -31.9126   -1.3780   31.0666 O.3     1  UNL1       -0.3560
@<TRIPOS>BOND
     1     1     2    1
     2     1     8    2
     3     1     9   am
     4     9    10    1
     5     7    11    1
     6    12    14    1
     7    10    15    1
     8    15    16   ar
     9    15    17   ar
    10     9    18    1
    11    20    21    1
    12    21    22    1
    13    21    23    1
    14    21    24    1
    15    18    25    1
    16    25    26    2
    17    25    27    1
    18    25    28    1
    19    11    10    1
    20     2     3   ar
    21     3     4   ar
    22     5     6   ar
    23     6     7   ar
    24     7     2   ar
    25     4     5   ar
    26     5    12   ar
    27    12    13   ar
    28    13    19   ar
    29    19    20   ar
    30    20     4   ar
