@<TRIPOS>MOLECULE
No_1102-gen_results/8p0m/2024-11-26-14-13-15/
 14 15 0 0 0
SMALL
GASTEIGER

@<TRIPOS>ATOM
      1 C         -28.0162   -0.8135   28.8779 C.3     1  UNL1        0.0310
      2 C         -27.0636   -0.1189   28.6079 C.ar    1  UNL1       -0.0218
      3 C         -27.0010    0.6913   27.4910 C.ar    1  UNL1       -0.0043
      4 C         -25.8548    1.4825   27.0830 C.ar    1  UNL1       -0.0003
      5 C         -24.9008    1.3894   27.5922 C.ar    1  UNL1       -0.0000
      6 C         -24.6783    0.5764   28.8299 C.ar    1  UNL1       -0.0003
      7 C         -25.7704   -0.2051   29.2800 C.ar    1  UNL1       -0.0043
      8 C         -29.2813   -0.1474   29.2516 C.3     1  UNL1        0.0310
      9 C         -29.5487    0.0933   30.4345 C.ar    1  UNL1       -0.0218
     10 C         -30.9493    0.2601   30.8622 C.ar    1  UNL1       -0.0043
     11 C         -31.2771    0.5121   32.1784 C.ar    1  UNL1       -0.0003
     12 C         -30.2560    0.6339   33.1216 C.ar    1  UNL1       -0.0000
     13 C         -28.9157    0.4751   32.7629 C.ar    1  UNL1       -0.0003
     14 C         -28.5370    0.2044   31.4048 C.ar    1  UNL1       -0.0043
@<TRIPOS>BOND
     1     1     2    1
     2     1     8    1
     3     8     9    1
     4     2     3   ar
     5     3     4   ar
     6     4     5   ar
     7     5     6   ar
     8     6     7   ar
     9     7     2   ar
    10     9    10   ar
    11    10    11   ar
    12    11    12   ar
    13    12    13   ar
    14    13    14   ar
    15    14     9   ar
