@<TRIPOS>MOLECULE
No_1103-gen_results/8p0m/2024-11-26-14-13-15/
 23 25 0 0 0
SMALL
GASTEIGER

@<TRIPOS>ATOM
      1 C         -28.0162   -0.8135   28.8779 C.ar    1  UNL1        0.0177
      2 C         -27.0636   -0.1190   28.6079 C.ar    1  UNL1        0.0544
      3 C         -25.7923   -0.4302   29.0761 C.ar    1  UNL1       -0.0017
      4 C         -25.5756   -1.5654   29.9363 C.ar    1  UNL1       -0.0199
      5 C         -24.3722   -1.9422   30.4466 C.3     1  UNL1        0.0520
      6 C         -27.9640   -1.9247   29.7899 C.ar    1  UNL1        0.0803
      7 C         -26.7624   -2.3055   30.3031 C.ar    1  UNL1        0.0024
      8 C         -23.3146   -1.9932   29.5545 C.2     1  UNL1       -0.0214
      9 CL        -27.1353    1.2691   27.5675 Cl      1  UNL1       -0.0826
     10 C         -29.1703   -2.6753   30.2468 C.2     1  UNL1        0.3878
     11 O         -30.2074   -2.0705   30.0559 O.co2   1  UNL1       -0.2406
     12 O         -29.0561   -3.8110   30.7577 O.co2   1  UNL1       -0.2406
     13 C         -22.4146   -0.8026   29.3965 C.2     1  UNL1       -0.0045
     14 C         -22.3663    0.1637   28.7277 C.ar    1  UNL1       -0.0035
     15 C         -21.2656    0.8709   28.1671 C.ar    1  UNL1       -0.0003
     16 C         -21.4531    2.0790   27.4316 C.ar    1  UNL1       -0.0000
     17 C         -22.8007    2.3739   27.0877 C.ar    1  UNL1       -0.0003
     18 C         -23.8402    1.6871   27.6323 C.ar    1  UNL1       -0.0034
     19 C         -23.6059    0.6947   28.3567 C.ar    1  UNL1       -0.0087
     20 C         -24.7763   -0.0759   28.8602 C.3     1  UNL1        0.1334
     21 P         -25.0749    0.6807   29.4441 P.3     1  UNL1        0.3338
     22 O         -25.6919    2.0787   29.1036 O.2     1  UNL1       -0.2767
     23 O         -24.8234    0.9701   30.9530 O.3     1  UNL1       -0.1576
@<TRIPOS>BOND
     1     5     8    1
     2     2     9    1
     3     6    10    1
     4    10    11   ar
     5    10    12   ar
     6     8    13    2
     7    13    14    1
     8     3    20    1
     9    19    20    1
    10    20    21    1
    11    21    22    2
    12    21    23    1
    13     5     4    1
    14    14    15   ar
    15    15    16   ar
    16    16    17   ar
    17    17    18   ar
    18    18    19   ar
    19    19    14   ar
    20     1     2   ar
    21     2     3   ar
    22     3     4   ar
    23     4     7   ar
    24     7     6   ar
    25     6     1   ar
