@<TRIPOS>MOLECULE
No_1104-gen_results/8p0m/2024-11-26-14-13-15/
 7 7 0 0 0
SMALL
GASTEIGER

@<TRIPOS>ATOM
      1 C         -28.0162   -0.8135   28.8779 C.ar    1  UNL1        0.0577
      2 C         -28.4690   -0.7850   29.8287 C.ar    1  UNL1        0.0114
      3 CL        -26.3597   -1.1928   28.7735 Cl      1  UNL1       -0.0822
      4 C         -29.8497   -0.3789   29.9529 C.ar    1  UNL1        0.0009
      5 C         -30.4691    0.0239   28.7575 C.ar    1  UNL1        0.0001
      6 C         -29.7242    0.0555   27.6385 C.ar    1  UNL1        0.0009
      7 C         -28.4282   -0.3029   27.6513 C.ar    1  UNL1        0.0114
@<TRIPOS>BOND
     1     1     3    1
     2     1     2   ar
     3     2     4   ar
     4     4     5   ar
     5     5     6   ar
     6     6     7   ar
     7     7     1   ar
