@<TRIPOS>MOLECULE
No_1105-gen_results/8p0m/2024-11-26-14-13-15/
 35 37 0 0 0
SMALL
GASTEIGER

@<TRIPOS>ATOM
      1 C         -28.0162   -0.8135   28.8779 C.ar    1  UNL1       -0.0036
      2 C         -28.4690   -0.7850   29.8287 C.ar    1  UNL1       -0.0002
      3 C         -27.0871    0.2903   28.6377 C.ar    1  UNL1       -0.0088
      4 C         -26.8317    1.2487   29.5869 C.ar    1  UNL1        0.0009
      5 C         -28.3914    0.0801   31.0065 C.ar    1  UNL1        0.0045
      6 C         -27.4940    1.1521   30.7841 C.ar    1  UNL1        0.0533
      7 C         -26.3172    0.3994   27.3653 C.3     1  UNL1        0.1554
      8 P         -25.1235    1.4408   27.2316 P.3     1  UNL1        0.3965
      9 O         -25.4616    2.6093   28.0492 O.3     1  UNL1       -0.4188
     10 O         -24.9609    1.8528   25.7289 O.2     1  UNL1       -0.2430
     11 O         -23.8293    0.8275   27.7251 O.3     1  UNL1       -0.2728
     12 C         -22.9863    1.1644   28.1893 C.3     1  UNL1        0.2655
     13 C         -25.5366    3.8575   27.3423 C.ar    1  UNL1        0.1806
     14 C         -22.0944    0.2685   29.0305 C.2     1  UNL1        0.3950
     15 O         -20.9349    0.0152   28.6871 O.co2   1  UNL1       -0.2428
     16 O         -22.5809   -0.0338   30.2029 O.co2   1  UNL1       -0.2428
     17 C         -26.3163    4.9531   28.0600 C.ar    1  UNL1        0.1753
     18 C         -26.3147    6.1245   27.4735 C.ar    1  UNL1        0.0154
     19 C         -25.0994    6.5922   26.8226 C.ar    1  UNL1       -0.0011
     20 C         -24.3268    5.6011   26.2068 C.ar    1  UNL1        0.0030
     21 C         -24.1590    4.5119   27.1641 C.ar    1  UNL1        0.0405
     22 O         -25.9356    5.0603   29.4354 O.3     1  UNL1       -0.4507
     23 C         -26.6102    5.8202   30.3216 C.ar    1  UNL1        0.1454
     24 C         -27.7024    5.7816   30.4653 C.ar    1  UNL1        0.0375
     25 C         -28.3670    6.5756   31.4517 C.ar    1  UNL1        0.0031
     26 C         -25.7039    6.6588   31.0712 C.ar    1  UNL1        0.0375
     27 C         -26.1671    7.4784   32.0483 C.ar    1  UNL1        0.0031
     28 C         -27.5827    7.4064   32.2791 C.ar    1  UNL1        0.0002
     29 C         -27.3298    2.1195   31.9234 C.2     1  UNL1        0.2491
     30 N         -26.1863    2.6400   32.1553 N.am    1  UNL1       -0.2726
     31 C         -26.0007    3.6488   33.1201 C.3     1  UNL1        0.1152
     32 O         -28.3569    2.5114   32.5022 O.2     1  UNL1       -0.2699
     33 C         -24.9206    2.2225   31.5367 C.3     1  UNL1        0.1152
     34 C         -27.4801    6.9745   27.3343 C.3     1  UNL1        0.0296
     35 C         -27.4265    8.3671   27.2326 C.3     1  UNL1        0.0051
@<TRIPOS>BOND
     1     3     7    1
     2     7     8    1
     3     8     9    1
     4     8    10    2
     5     8    11    1
     6    11    12    1
     7     9    13    1
     8    12    14    1
     9    14    15   ar
    10    14    16   ar
    11    17    22    1
    12    22    23    1
    13     6    29    1
    14    29    30   am
    15    30    31    1
    16    29    32    2
    17    30    33    1
    18    18    34    1
    19    34    35    1
    20    23    24   ar
    21    24    25   ar
    22    25    28   ar
    23    28    27   ar
    24    27    26   ar
    25    26    23   ar
    26    13    17   ar
    27    17    18   ar
    28    18    19   ar
    29    19    20   ar
    30    20    21   ar
    31    21    13   ar
    32     1     2   ar
    33     2     5   ar
    34     5     6   ar
    35     6     4   ar
    36     4     3   ar
    37     3     1   ar
