@<TRIPOS>MOLECULE
No_1106-gen_results/8p0m/2024-11-26-14-13-15/
 35 38 0 0 0
SMALL
GASTEIGER

@<TRIPOS>ATOM
      1 C         -28.0162   -0.8135   28.8779 C.ar    1  UNL1        0.0006
      2 C         -28.4690   -0.7850   29.8287 C.ar    1  UNL1        0.0536
      3 C         -26.5455   -0.8762   28.8500 C.ar    1  UNL1       -0.0176
      4 C         -25.8041   -1.0324   30.0571 C.ar    1  UNL1       -0.0039
      5 C         -27.9437   -0.9869   31.2075 C.ar    1  UNL1        0.0045
      6 C         -26.5825   -1.0386   31.2231 C.ar    1  UNL1       -0.0002
      7 C         -30.0606   -0.7371   29.9024 C.2     1  UNL1        0.2528
      8 O         -30.7252   -1.5544   30.2697 O.2     1  UNL1       -0.2696
      9 N         -30.5245    0.5663   29.6971 N.am    1  UNL1       -0.2534
     10 C         -31.9302    0.7636   29.6237 C.3     1  UNL1        0.1203
     11 C         -29.6836    1.6912   29.3393 C.ar    1  UNL1        0.0543
     12 C         -29.5347    2.2109   28.2744 C.ar    1  UNL1        0.0149
     13 C         -28.5885    3.2634   28.0150 C.ar    1  UNL1        0.0014
     14 C         -27.7335    3.3435   28.6167 C.ar    1  UNL1        0.0046
     15 C         -27.5231    2.7919   29.9731 C.ar    1  UNL1        0.0563
     16 C         -28.5559    1.7793   30.3317 C.ar    1  UNL1        0.0195
     17 C         -25.7100   -0.7506   27.6132 C.3     1  UNL1        0.0526
     18 C         -25.3181    0.6363   27.2903 C.ar    1  UNL1       -0.0178
     19 C         -24.1951    1.1390   27.8590 C.ar    1  UNL1       -0.0039
     20 C         -23.6351    2.3737   27.3921 C.ar    1  UNL1       -0.0003
     21 C         -24.2327    3.0514   26.3407 C.ar    1  UNL1       -0.0000
     22 C         -25.9491    1.3087   26.2079 C.ar    1  UNL1       -0.0036
     23 C         -27.1112    0.8065   25.6826 C.2     1  UNL1       -0.0003
     24 C         -25.4278    2.5551   25.8225 C.ar    1  UNL1       -0.0003
     25 C         -27.6112    1.2527   24.4536 C.2     1  UNL1       -0.0000
     26 C         -28.7877    0.7229   23.9223 C.ar    1  UNL1       -0.0000
     27 C         -29.8472    1.4199   23.6175 C.ar    1  UNL1       -0.0000
     28 C         -31.0997    0.9852   23.2388 C.ar    1  UNL1        0.0000
     29 C         -31.3051   -0.4060   23.4144 C.ar    1  UNL1        0.0000
     30 C         -30.2499   -1.2589   23.8789 C.ar    1  UNL1        0.0000
     31 C         -29.0138   -0.6811   24.2260 C.ar    1  UNL1       -0.0000
     32 C         -26.4155    3.0494   30.9014 C.2     1  UNL1        0.2649
     33 O         -25.2979    3.0667   30.4138 O.2     1  UNL1       -0.2684
     34 N         -26.6139    3.5754   32.1006 N.am    1  UNL1       -0.1998
     35 C         -25.4568    3.8580   33.0179 C.3     1  UNL1        0.1388
@<TRIPOS>BOND
     1     2     7    1
     2     7     8    2
     3     7     9   am
     4     9    10    1
     5     9    11    1
     6     3    17    1
     7    17    18    1
     8    22    23    1
     9    23    25    2
    10    25    26    1
    11    15    32    1
    12    32    33    2
    13    32    34   am
    14    34    35    1
    15    18    19   ar
    16    19    20   ar
    17    20    21   ar
    18    21    24   ar
    19    24    22   ar
    20    22    18   ar
    21    11    12   ar
    22    12    13   ar
    23    13    14   ar
    24    14    15   ar
    25    15    16   ar
    26    16    11   ar
    27     1     2   ar
    28     2     5   ar
    29     5     6   ar
    30     6     4   ar
    31     4     3   ar
    32     3     1   ar
    33    26    27   ar
    34    27    28   ar
    35    28    29   ar
    36    29    30   ar
    37    30    31   ar
    38    31    26   ar
