@<TRIPOS>MOLECULE
No_1107-gen_results/8p0m/2024-11-26-14-13-15/
 13 14 0 0 0
SMALL
GASTEIGER

@<TRIPOS>ATOM
      1 C         -28.0162   -0.8135   28.8779 C.3     1  UNL1        0.0052
      2 C         -28.4690   -0.7850   29.8287 C.3     1  UNL1        0.0081
      3 C         -28.1816    0.4277   28.1134 C.3     1  UNL1        0.0297
      4 C         -27.4498    0.6435   26.8500 C.ar    1  UNL1       -0.0221
      5 C         -27.8596    1.4573   25.9076 C.ar    1  UNL1       -0.0043
      6 C         -29.4263    0.1097   30.4178 C.3     1  UNL1        0.0645
      7 C         -29.6233    1.2198   29.7351 C.2     1  UNL1        0.1510
      8 C         -28.9609    1.4529   28.5513 C.3     1  UNL1        0.0688
      9 C         -27.1733    1.5743   24.7028 C.ar    1  UNL1       -0.0003
     10 C         -26.0892    0.7468   24.4126 C.ar    1  UNL1       -0.0000
     11 C         -25.6364   -0.1191   25.3972 C.ar    1  UNL1       -0.0003
     12 C         -26.2807   -0.2063   26.5817 C.ar    1  UNL1       -0.0043
     13 O         -30.4549    2.2210   30.2334 O.2     1  UNL1       -0.2960
@<TRIPOS>BOND
     1     1     2    1
     2     3     4    1
     3     6     7    1
     4     3     8    1
     5     7     8    1
     6     7    13    2
     7     6     2    1
     8     1     3    1
     9     4     5   ar
    10     5     9   ar
    11     9    10   ar
    12    10    11   ar
    13    11    12   ar
    14    12     4   ar
