@<TRIPOS>MOLECULE
No_1108-gen_results/8p0m/2024-11-26-14-13-15/
 17 18 0 0 0
SMALL
GASTEIGER

@<TRIPOS>ATOM
      1 C         -28.0162   -0.8135   28.8779 C.3     1  UNL1        0.0520
      2 C         -27.0636   -0.1189   28.6079 C.3     1  UNL1        0.0435
      3 C         -25.7923   -0.4302   29.0761 C.2     1  UNL1       -0.0403
      4 C         -25.2700   -0.0487   30.0123 C.2     1  UNL1       -0.0338
      5 C         -28.5191   -0.6302   30.0918 C.3     1  UNL1        0.1703
      6 C         -27.6457   -0.5646   31.3559 C.3     1  UNL1        0.0483
      7 C         -26.2550   -0.2092   31.4004 C.3     1  UNL1        0.0291
      8 O         -29.7579   -1.0267   30.4756 O.3     1  UNL1       -0.4460
      9 C         -30.5991   -1.3920   29.7137 C.2     1  UNL1        0.3971
     10 C         -31.4392   -0.5848   28.9185 C.2     1  UNL1        0.3409
     11 O         -31.0890    0.4829   28.8738 O.2     1  UNL1       -0.2612
     12 O         -30.7562   -2.7418   29.6325 O.2     1  UNL1       -0.2397
     13 N         -32.4503   -1.0813   28.2375 N.am    1  UNL1       -0.1942
     14 C         -33.2835   -0.2974   27.3801 C.3     1  UNL1        0.1391
     15 C         -26.8537    0.3461   27.0705 C.2     1  UNL1       -0.0265
     16 C         -25.6110    0.4463   26.6684 C.2     1  UNL1       -0.0260
     17 C         -24.8028    0.0544   27.9064 C.3     1  UNL1        0.0476
@<TRIPOS>BOND
     1     1     2    1
     2     2     3    1
     3     3     4    2
     4     1     5    1
     5     5     6    1
     6     4     7    1
     7     6     7    1
     8     5     8    1
     9     8     9    1
    10     9    10    1
    11    10    11    2
    12     9    12    2
    13    10    13   am
    14    13    14    1
    15     2    15    1
    16    15    16    2
    17     3    17    1
    18    16    17    1
