@<TRIPOS>MOLECULE
No_111-gen_results/8p0m/2024-11-26-14-13-15/
 29 32 0 0 0
SMALL
GASTEIGER

@<TRIPOS>ATOM
      1 C         -28.0162   -0.8135   28.8779 C.ar    1  UNL1        0.0289
      2 C         -28.4690   -0.7850   29.8287 C.ar    1  UNL1        0.0649
      3 C         -27.1356    0.2359   28.5352 C.ar    1  UNL1        0.0591
      4 C         -26.8745    1.2825   29.3982 C.ar    1  UNL1        0.0115
      5 C         -28.3613    0.1987   30.9244 C.ar    1  UNL1        0.0176
      6 C         -27.5277    1.2234   30.6356 C.ar    1  UNL1        0.0024
      7 CL        -26.2960    0.2786   27.0255 Cl      1  UNL1       -0.0822
      8 N         -29.3873   -1.7961   30.4787 N.ar    1  UNL1       -0.3034
      9 C         -30.0294   -2.5284   30.1717 C.ar    1  UNL1        0.0847
     10 C         -30.6472   -3.6130   30.9671 C.ar    1  UNL1        0.0729
     11 C         -28.9673   -2.4247   31.8896 C.ar    1  UNL1        0.0803
     12 C         -29.6626   -3.1913   32.3193 C.ar    1  UNL1        0.0250
     13 C         -31.6006   -4.5248   30.9003 C.2     1  UNL1        0.2543
     14 O         -31.5386   -5.6474   31.0333 O.2     1  UNL1       -0.2695
     15 N         -32.8529   -4.0203   30.4426 N.am    1  UNL1       -0.2537
     16 C         -33.1657   -2.6621   30.1774 C.ar    1  UNL1        0.0505
     17 C         -33.2517   -1.8930   31.1312 C.ar    1  UNL1       -0.0041
     18 C         -33.4541   -0.4440   30.8903 C.ar    1  UNL1       -0.0027
     19 C         -33.6692   -0.0385   29.5589 C.ar    1  UNL1       -0.0002
     20 C         -33.2912   -2.3186   28.8101 C.ar    1  UNL1        0.0146
     21 C         -33.5524   -0.9606   28.5288 C.ar    1  UNL1        0.0013
     22 C         -33.9623   -4.9229   30.1751 C.3     1  UNL1        0.1203
     23 C         -33.0395   -2.1675   32.5944 C.3     1  UNL1        0.0539
     24 C         -32.7705   -1.2604   33.4854 C.ar    1  UNL1       -0.0177
     25 C         -32.7053   -1.6191   34.8990 C.ar    1  UNL1       -0.0039
     26 C         -32.3823   -0.6715   35.8880 C.ar    1  UNL1       -0.0003
     27 C         -32.1404    0.6479   35.4706 C.ar    1  UNL1       -0.0000
     28 C         -32.1601    1.0308   34.1401 C.ar    1  UNL1       -0.0003
     29 C         -32.4319    0.0825   33.2070 C.ar    1  UNL1       -0.0039
@<TRIPOS>BOND
     1     3     7    1
     2     2     8    1
     3     8     9   ar
     4     9    10   ar
     5     8    11   ar
     6    10    12   ar
     7    11    12   ar
     8    10    13    1
     9    13    14    2
    10    13    15   am
    11    15    16    1
    12    15    22    1
    13    17    23    1
    14    23    24    1
    15    24    25   ar
    16    25    26   ar
    17    26    27   ar
    18    27    28   ar
    19    28    29   ar
    20    29    24   ar
    21     1     2   ar
    22     2     5   ar
    23     5     6   ar
    24     6     4   ar
    25     4     3   ar
    26     3     1   ar
    27    16    17   ar
    28    17    18   ar
    29    18    19   ar
    30    19    21   ar
    31    21    20   ar
    32    20    16   ar
