@<TRIPOS>MOLECULE
No_1112-gen_results/8p0m/2024-11-26-14-13-15/
 20 21 0 0 0
SMALL
GASTEIGER

@<TRIPOS>ATOM
      1 C         -28.0162   -0.8135   28.8779 C.ar    1  UNL1        0.0023
      2 C         -27.0636   -0.1190   28.6079 C.ar    1  UNL1       -0.0002
      3 C         -26.9716    0.7139   27.5060 C.ar    1  UNL1       -0.0020
      4 C         -28.1053    0.7744   26.6421 C.ar    1  UNL1        0.0293
      5 C         -29.2041    0.1179   27.0477 C.ar    1  UNL1        0.1401
      6 C         -29.2127   -0.6088   28.1281 C.ar    1  UNL1        0.0296
      7 F         -30.2671    0.2179   26.2593 F       1  UNL1       -0.2042
      8 C         -25.6932    1.4470   27.1347 C.2     1  UNL1       -0.0245
      9 C         -25.0229    2.2608   28.1335 C.2     1  UNL1       -0.0099
     10 C         -25.4382    2.5950   29.2830 C.2     1  UNL1       -0.0033
     11 C         -26.3944    2.4244   29.8556 C.2     1  UNL1       -0.0003
     12 C         -26.5694    3.0002   31.2351 C.ar    1  UNL1       -0.0000
     13 C         -27.6629    2.7905   32.0511 C.ar    1  UNL1       -0.0000
     14 C         -25.3972    3.7555   31.7424 C.ar    1  UNL1       -0.0000
     15 C         -25.5055    4.3421   33.0712 C.ar    1  UNL1       -0.0000
     16 C         -26.5655    4.0386   33.8602 C.ar    1  UNL1        0.0000
     17 C         -27.6691    3.3499   33.3432 C.ar    1  UNL1       -0.0000
     18 C         -25.1816    1.2431   25.8491 C.3     1  UNL1        0.0307
     19 C         -23.7589    2.7609   27.4397 C.3     1  UNL1        0.1208
     20 CL        -23.2375    2.4894   25.9338 Cl      1  UNL1       -0.1085
@<TRIPOS>BOND
     1     5     7    1
     2     3     8    1
     3     8     9    2
     4     9    10    1
     5    10    11    2
     6    11    12    1
     7     8    18    1
     8     9    19    1
     9    19    20    1
    10     1     2   ar
    11     2     3   ar
    12     3     4   ar
    13     4     5   ar
    14     5     6   ar
    15     6     1   ar
    16    12    13   ar
    17    13    17   ar
    18    17    16   ar
    19    16    15   ar
    20    15    14   ar
    21    14    12   ar
