@<TRIPOS>MOLECULE
No_1113-gen_results/8p0m/2024-11-26-14-13-15/
 14 15 0 0 0
SMALL
GASTEIGER

@<TRIPOS>ATOM
      1 C         -28.0162   -0.8135   28.8779 C.ar    1  UNL1        0.0293
      2 C         -28.4690   -0.7850   29.8287 C.ar    1  UNL1        0.0023
      3 C         -26.5455   -0.8762   28.8500 C.ar    1  UNL1        0.1365
      4 C         -25.8041   -1.0324   30.0571 C.ar    1  UNL1        0.0097
      5 C         -26.5373   -1.0386   31.2171 C.ar    1  UNL1       -0.0017
      6 C         -27.8843   -0.9532   31.1862 C.ar    1  UNL1       -0.0002
      7 C         -24.3655   -1.1134   30.0483 C.3     1  UNL1        0.0550
      8 C         -23.6925    0.1188   29.9185 C.ar    1  UNL1       -0.0146
      9 C         -22.3936    0.1820   29.3480 C.ar    1  UNL1        0.0167
     10 C         -21.7683    1.3866   29.0594 C.ar    1  UNL1        0.0986
     11 C         -24.2178    1.3685   30.4361 C.ar    1  UNL1        0.0167
     12 C         -23.6611    2.6029   30.0611 C.ar    1  UNL1        0.0986
     13 N         -22.4158    2.5595   29.4289 N.ar    1  UNL1       -0.2423
     14 F         -25.8253   -0.8371   27.7075 F       1  UNL1       -0.2045
@<TRIPOS>BOND
     1     4     7    1
     2     7     8    1
     3     3    14    1
     4     1     2   ar
     5     2     6   ar
     6     6     5   ar
     7     5     4   ar
     8     4     3   ar
     9     3     1   ar
    10     8     9   ar
    11     9    10   ar
    12    10    13   ar
    13    13    12   ar
    14    12    11   ar
    15    11     8   ar
