@<TRIPOS>MOLECULE
No_1114-gen_results/8p0m/2024-11-26-14-13-15/
 19 20 0 0 0
SMALL
GASTEIGER

@<TRIPOS>ATOM
      1 C         -28.0162   -0.8135   28.8779 C.ar    1  UNL1        0.0026
      2 C         -27.0636   -0.1189   28.6079 C.ar    1  UNL1       -0.0175
      3 C         -26.8756    1.1325   28.9134 C.ar    1  UNL1       -0.0039
      4 C         -27.9014    1.8066   29.6436 C.ar    1  UNL1       -0.0001
      5 C         -29.0458   -0.2316   29.7181 C.ar    1  UNL1        0.0795
      6 C         -28.9402    1.0517   30.0597 C.ar    1  UNL1        0.0066
      7 C         -25.8732   -0.7125   27.8045 C.3     1  UNL1        0.0536
      8 C         -24.7599   -1.1987   28.6570 C.2     1  UNL1       -0.0063
      9 C         -24.2774   -0.5180   29.6587 C.2     1  UNL1       -0.0376
     10 C         -23.1774   -1.0723   30.3873 C.3     1  UNL1        0.0477
     11 C         -22.6382   -0.3375   31.4597 C.2     1  UNL1       -0.0260
     12 C         -23.4010    0.7600   31.8870 C.2     1  UNL1       -0.0260
     13 C         -24.7044    0.6922   30.4413 C.3     1  UNL1        0.0477
     14 C         -30.2153   -1.1057   30.1245 C.2     1  UNL1        0.3877
     15 O         -31.0738   -1.3000   29.3130 O.co2   1  UNL1       -0.2406
     16 O         -30.4305   -1.3027   31.3857 O.co2   1  UNL1       -0.2406
     17 C         -24.5732   -2.5691   28.6009 C.2     1  UNL1        0.0886
     18 N         -24.8620   -3.7198   29.0139 N.2     1  UNL1       -0.2671
     19 C         -24.3529   -4.8572   28.6102 C.3     1  UNL1        0.1517
@<TRIPOS>BOND
     1     2     7    1
     2     7     8    1
     3     8     9    2
     4     9    10    1
     5    10    11    1
     6    11    12    2
     7     9    13    1
     8    12    13    1
     9     5    14    1
    10    14    15   ar
    11    14    16   ar
    12     8    17    1
    13    17    18    2
    14    18    19    1
    15     1     2   ar
    16     2     3   ar
    17     3     4   ar
    18     4     6   ar
    19     6     5   ar
    20     5     1   ar
