@<TRIPOS>MOLECULE
No_1115-gen_results/8p0m/2024-11-26-14-13-15/
 26 28 0 0 0
SMALL
GASTEIGER

@<TRIPOS>ATOM
      1 C         -28.0162   -0.8135   28.8779 C.ar    1  UNL1       -0.0034
      2 C         -28.4690   -0.7850   29.8287 C.ar    1  UNL1        0.0253
      3 C         -26.5455   -0.8762   28.8500 C.ar    1  UNL1       -0.0074
      4 C         -25.6825   -0.7773   27.6829 C.3     1  UNL1        0.0536
      5 C         -27.9181   -1.0034   31.1877 C.ar    1  UNL1        0.0006
      6 C         -26.5308   -1.0794   31.2463 C.ar    1  UNL1        0.0109
      7 C         -25.7798   -1.0462   30.0905 C.ar    1  UNL1        0.0540
      8 C         -25.2322    0.5793   27.3292 C.ar    1  UNL1       -0.0146
      9 C         -25.9027    1.5335   27.4253 C.ar    1  UNL1       -0.0037
     10 C         -25.3348    2.8671   27.0802 C.ar    1  UNL1        0.0030
     11 C         -24.0033    2.9885   26.6466 C.ar    1  UNL1        0.0420
     12 C         -23.2328    1.8380   26.6116 C.ar    1  UNL1        0.1954
     13 C         -23.8065    0.5810   26.9916 C.ar    1  UNL1        0.0381
     14 CL        -24.1386   -1.1334   30.1731 Cl      1  UNL1       -0.0826
     15 C         -30.0572   -0.7398   29.9070 C.3     1  UNL1        0.2449
     16 N         -30.7192   -1.7756   30.0220 N.3     1  UNL1       -0.2428
     17 C         -31.7700   -1.8613   30.6798 C.3     1  UNL1        0.0748
     18 C         -32.5141   -2.4844   31.0470 C.3     1  UNL1        0.0176
     19 C         -32.3376   -3.9310   30.7342 C.3     1  UNL1        0.0085
     20 C         -31.1872   -4.2325   29.9235 C.3     1  UNL1        0.0829
     21 C         -30.3199   -3.1385   29.6336 C.3     1  UNL1        0.0804
     22 F         -30.4666    0.3318   29.5211 F       1  UNL1       -0.2140
     23 C         -30.8071   -5.5501   29.5305 C.3     1  UNL1        0.3197
     24 F         -29.9462   -6.0256   30.2945 F       1  UNL1       -0.1984
     25 F         -30.9591   -5.9740   28.4277 F       1  UNL1       -0.1984
     26 O         -21.9691    1.9610   26.2975 O.3     1  UNL1       -0.2866
@<TRIPOS>BOND
     1     3     4    1
     2     4     8    1
     3     7    14    1
     4     2    15    1
     5    15    16    1
     6    16    17    1
     7    18    19    1
     8    16    21    1
     9    20    21    1
    10    15    22    1
    11    20    23    1
    12    23    24    1
    13    23    25    1
    14    12    26    1
    15    17    18    1
    16    19    20    1
    17     8     9   ar
    18     9    10   ar
    19    10    11   ar
    20    11    12   ar
    21    12    13   ar
    22    13     8   ar
    23     1     2   ar
    24     2     5   ar
    25     5     6   ar
    26     6     7   ar
    27     7     3   ar
    28     3     1   ar
