@<TRIPOS>MOLECULE
No_1117-gen_results/8p0m/2024-11-26-14-13-15/
 9 8 0 0 0
SMALL
GASTEIGER

@<TRIPOS>ATOM
      1 F         -28.0727   -1.2542   28.5316 F       1  UNL1       -0.1950
      2 C         -27.3591   -0.3792   28.7224 C.3     1  UNL1        0.3592
      3 F         -26.3180   -0.6608   29.1159 F       1  UNL1       -0.1950
      4 C         -27.6804    0.9274   28.3001 C.3     1  UNL1        0.3206
      5 C         -26.7009    1.9033   28.5926 C.3     1  UNL1        0.4329
      6 F         -25.7515    1.5642   28.5351 F       1  UNL1       -0.1669
      7 F         -26.9958    2.3463   29.8757 F       1  UNL1       -0.1669
      8 F         -27.1288    3.0701   27.9417 F       1  UNL1       -0.1669
      9 F         -28.9050    1.1829   28.7657 F       1  UNL1       -0.2219
@<TRIPOS>BOND
     1     1     2    1
     2     2     3    1
     3     2     4    1
     4     4     5    1
     5     5     6    1
     6     5     7    1
     7     5     8    1
     8     4     9    1
