@<TRIPOS>MOLECULE
No_1118-gen_results/8p0m/2024-11-26-14-13-15/
 18 19 0 0 0
SMALL
GASTEIGER

@<TRIPOS>ATOM
      1 C         -28.0162   -0.8135   28.8779 C.ar    1  UNL1        0.0046
      2 C         -27.0636   -0.1190   28.6079 C.ar    1  UNL1        0.0001
      3 C         -25.7647   -0.3897   29.0360 C.ar    1  UNL1        0.0000
      4 C         -24.5516    0.4058   28.7646 C.ar    1  UNL1        0.0000
      5 C         -24.6957    1.4480   27.7988 C.ar    1  UNL1        0.0000
      6 C         -23.6098    2.2430   27.4348 C.ar    1  UNL1        0.0000
      7 C         -22.3389    1.8613   27.9444 C.ar    1  UNL1        0.0000
      8 C         -22.1755    0.8566   28.8491 C.ar    1  UNL1        0.0000
      9 C         -23.3105    0.0894   29.2367 C.ar    1  UNL1        0.0000
     10 C         -27.8890   -1.8961   29.8630 C.ar    1  UNL1        0.0554
     11 C         -26.6448   -2.3275   30.2761 C.ar    1  UNL1        0.0046
     12 C         -25.5282   -1.5495   29.9084 C.ar    1  UNL1        0.0001
     13 C         -29.0472   -2.7243   30.2569 C.2     1  UNL1        0.2690
     14 O         -28.9712   -3.9394   30.2791 O.2     1  UNL1       -0.2680
     15 N         -30.1666   -2.1142   30.6549 N.am    1  UNL1       -0.1745
     16 C         -31.3410   -2.8821   31.0828 C.2     1  UNL1        0.0844
     17 C         -31.3421   -3.8235   31.7422 C.2     1  UNL1       -0.0079
     18 C         -32.5147   -4.5449   32.1816 C.3     1  UNL1        0.0321
@<TRIPOS>BOND
     1     3     4    1
     2    10    13    1
     3    13    14    2
     4    13    15   am
     5    15    16    1
     6    16    17    2
     7    17    18    1
     8     1     2   ar
     9     2     3   ar
    10     3    12   ar
    11    12    11   ar
    12    11    10   ar
    13    10     1   ar
    14     4     5   ar
    15     5     6   ar
    16     6     7   ar
    17     7     8   ar
    18     8     9   ar
    19     9     4   ar
