@<TRIPOS>MOLECULE
No_1119-gen_results/8p0m/2024-11-26-14-13-15/
 15 16 0 0 0
SMALL
GASTEIGER

@<TRIPOS>ATOM
      1 C         -28.0162   -0.8135   28.8779 C.ar    1  UNL1       -0.0005
      2 C         -28.4690   -0.7850   29.8287 C.ar    1  UNL1        0.0234
      3 C         -26.5042   -0.7777   28.8766 C.ar    1  UNL1       -0.0002
      4 C         -25.8103   -0.8531   30.1028 C.ar    1  UNL1       -0.0000
      5 C         -27.9906   -0.8916   31.2257 C.ar    1  UNL1       -0.0005
      6 C         -26.6042   -0.8676   31.2652 C.ar    1  UNL1       -0.0002
      7 C         -30.0739   -0.8360   29.8615 C.3     1  UNL1        0.2366
      8 O         -30.6891   -1.6554   30.2229 O.3     1  UNL1       -0.1998
      9 N         -30.5801    0.0240   28.8334 N.3     1  UNL1       -0.2306
     10 C         -31.9435   -0.0529   28.5263 C.3     1  UNL1        0.0759
     11 C         -32.1877    0.1359   27.2378 C.3     1  UNL1        0.0176
     12 C         -31.2629    0.7516   26.3892 C.3     1  UNL1        0.0044
     13 C         -29.9319    0.8752   26.7388 C.3     1  UNL1        0.0358
     14 C         -29.6330    0.4533   27.9338 C.3     1  UNL1        0.1530
     15 N         -28.5296    1.0051   28.3018 N.3     1  UNL1       -0.1149
@<TRIPOS>BOND
     1     2     7    1
     2     7     8    1
     3     7     9    1
     4     9    10    1
     5    11    12    1
     6     9    14    1
     7    13    14    1
     8    14    15    1
     9    10    11    1
    10    12    13    1
    11     1     2   ar
    12     2     5   ar
    13     5     6   ar
    14     6     4   ar
    15     4     3   ar
    16     3     1   ar
