@<TRIPOS>MOLECULE
No_1121-gen_results/8p0m/2024-11-26-14-13-15/
 15 16 0 0 0
SMALL
GASTEIGER

@<TRIPOS>ATOM
      1 C         -28.0162   -0.8135   28.8779 C.ar    1  UNL1        0.0000
      2 C         -27.0636   -0.1190   28.6079 C.ar    1  UNL1        0.0001
      3 C         -25.7647   -0.3897   29.0360 C.ar    1  UNL1        0.0044
      4 C         -25.5296   -1.5303   29.9014 C.ar    1  UNL1        0.0001
      5 C         -26.6888   -2.2893   30.1810 C.ar    1  UNL1        0.0000
      6 C         -27.8727   -1.9508   29.7373 C.ar    1  UNL1        0.0000
      7 C         -24.7078    0.5670   28.7015 C.ar    1  UNL1        0.0536
      8 C         -23.4620    0.2939   29.1741 C.ar    1  UNL1        0.0045
      9 C         -23.2350   -0.9849   29.8468 C.ar    1  UNL1        0.0001
     10 C         -24.2215   -1.8157   30.2673 C.ar    1  UNL1        0.0000
     11 C         -24.8417    1.7300   27.8988 C.2     1  UNL1        0.2491
     12 O         -25.1029    2.6988   28.3911 O.2     1  UNL1       -0.2699
     13 N         -24.3434    1.6506   26.6120 N.am    1  UNL1       -0.2726
     14 C         -23.9048    0.5496   25.9462 C.3     1  UNL1        0.1152
     15 C         -24.2934    2.8968   25.8370 C.3     1  UNL1        0.1152
@<TRIPOS>BOND
     1     7    11    1
     2    11    12    2
     3    11    13   am
     4    13    14    1
     5    13    15    1
     6     1     2   ar
     7     2     3   ar
     8     4     5   ar
     9     5     6   ar
    10     6     1   ar
    11     3     4   ar
    12     4    10   ar
    13    10     9   ar
    14     9     8   ar
    15     8     7   ar
    16     7     3   ar
