@<TRIPOS>MOLECULE
No_1122-gen_results/8p0m/2024-11-26-14-13-15/
 21 22 0 0 0
SMALL
GASTEIGER

@<TRIPOS>ATOM
      1 C         -28.0162   -0.8135   28.8779 C.ar    1  UNL1       -0.0040
      2 C         -28.4690   -0.7850   29.8287 C.ar    1  UNL1       -0.0003
      3 C         -27.1356    0.2359   28.5352 C.ar    1  UNL1       -0.0184
      4 C         -26.3351    0.2900   27.2835 C.3     1  UNL1        0.0444
      5 C         -28.3692    0.1957   30.9236 C.ar    1  UNL1       -0.0000
      6 C         -27.5158    1.2655   30.6540 C.ar    1  UNL1       -0.0003
      7 C         -26.7590    1.3511   29.4402 C.ar    1  UNL1       -0.0040
      8 C         -25.0032    0.3405   27.4779 C.ar    1  UNL1       -0.0192
      9 C         -24.2234    0.8702   26.7446 C.ar    1  UNL1       -0.0041
     10 C         -23.3109    1.9571   26.7422 C.ar    1  UNL1        0.0029
     11 C         -23.0885    2.5835   27.9887 C.ar    1  UNL1        0.0409
     12 C         -23.6058    1.7770   29.1172 C.ar    1  UNL1        0.1848
     13 C         -24.5307    0.4683   28.9511 C.ar    1  UNL1        0.0175
     14 C         -26.9771    1.0496   26.2796 C.3     1  UNL1        0.0094
     15 C         -23.2965   -0.6778   29.1154 C.3     1  UNL1        0.0919
     16 C         -22.0617   -0.3032   29.5655 C.3     1  UNL1        0.3224
     17 C         -23.8661   -1.9488   28.9798 C.3     1  UNL1        0.0106
     18 O         -22.7098    1.5971   30.1415 O.3     1  UNL1       -0.2923
     19 F         -21.8176    0.7715   30.1320 F       1  UNL1        0.0138
     20 F         -21.1388   -0.4902   28.5658 F       1  UNL1       -0.1981
     21 F         -21.7477   -1.1894   30.5955 F       1  UNL1       -0.1981
@<TRIPOS>BOND
     1     3     4    1
     2     4     8    1
     3     4    14    1
     4    13    15    1
     5    15    16    1
     6    15    17    1
     7    12    18    1
     8    18    19    1
     9    16    20    1
    10    16    21    1
    11     8     9   ar
    12     9    10   ar
    13    10    11   ar
    14    11    12   ar
    15    12    13   ar
    16    13     8   ar
    17     1     2   ar
    18     2     5   ar
    19     5     6   ar
    20     6     7   ar
    21     7     3   ar
    22     3     1   ar
