@<TRIPOS>MOLECULE
No_1123-gen_results/8p0m/2024-11-26-14-13-15/
 8 8 0 0 0
SMALL
GASTEIGER

@<TRIPOS>ATOM
      1 C         -28.0162   -0.8135   28.8779 C.ar    1  UNL1        0.0033
      2 C         -28.4690   -0.7850   29.8287 C.ar    1  UNL1        0.0422
      3 C         -27.0871    0.2903   28.6377 C.ar    1  UNL1        0.0001
      4 C         -26.8317    1.2487   29.5869 C.ar    1  UNL1        0.0000
      5 C         -29.4442   -1.9481   30.1840 C.2     1  UNL1        0.2342
      6 C         -27.4956    1.1303   30.8222 C.ar    1  UNL1        0.0001
      7 C         -28.3376    0.0364   31.0331 C.ar    1  UNL1        0.0033
      8 O         -29.9130   -1.9264   31.4068 O.2     1  UNL1       -0.2831
@<TRIPOS>BOND
     1     2     5    1
     2     5     8    2
     3     1     2   ar
     4     2     7   ar
     5     7     6   ar
     6     6     4   ar
     7     4     3   ar
     8     3     1   ar
