@<TRIPOS>MOLECULE
No_1124-gen_results/8p0m/2024-11-26-14-13-15/
 13 13 0 0 0
SMALL
GASTEIGER

@<TRIPOS>ATOM
      1 C         -28.0162   -0.8135   28.8779 C.2     1  UNL1        0.0510
      2 C         -27.0636   -0.1190   28.6079 C.2     1  UNL1       -0.0397
      3 C         -26.9716    0.7139   27.5060 C.3     1  UNL1        0.0226
      4 C         -25.8205    1.4909   27.1160 C.3     1  UNL1        0.0104
      5 C         -24.6562    1.4242   27.9180 C.3     1  UNL1        0.0440
      6 C         -24.6847    0.5901   29.0659 C.3     1  UNL1        0.0104
      7 C         -25.8099   -0.1266   29.3338 C.3     1  UNL1        0.0226
      8 C         -28.7093   -0.4588   30.1754 C.2     1  UNL1        0.2643
      9 N         -28.6160    0.4692   30.7034 N.am    1  UNL1       -0.1998
     10 O         -29.2705   -1.5705   30.7558 O.2     1  UNL1       -0.2684
     11 C         -29.2883    0.7965   32.0213 C.3     1  UNL1        0.1388
     12 C         -23.4614    2.2044   27.6391 C.2     1  UNL1        0.0953
     13 N         -22.2507    1.8011   27.5953 N.2     1  UNL1       -0.1514
@<TRIPOS>BOND
     1     1     2    2
     2     2     3    1
     3     3     4    1
     4     4     5    1
     5     5     6    1
     6     2     7    1
     7     6     7    1
     8     1     8    1
     9     8     9   am
    10     8    10    2
    11     9    11    1
    12     5    12    1
    13    12    13    2
