@<TRIPOS>MOLECULE
No_1125-gen_results/8p0m/2024-11-26-14-13-15/
 12 12 0 0 0
SMALL
GASTEIGER

@<TRIPOS>ATOM
      1 O         -28.1229   -1.3353   28.4874 O.2     1  UNL1       -0.2649
      2 C         -27.4806   -0.4044   28.7094 C.2     1  UNL1        0.3044
      3 N         -26.4599   -0.1104   28.0051 N.am    1  UNL1       -0.2723
      4 C         -26.1476   -0.4948   26.8760 C.3     1  UNL1        0.0939
      5 C         -27.6421    0.4982   29.9779 C.2     1  UNL1        0.3187
      6 O         -27.2450    1.5258   30.0899 O.2     1  UNL1       -0.2634
      7 N         -28.1023   -0.2226   31.0915 N.am    1  UNL1       -0.1959
      8 C         -25.0238    0.3116   26.1996 C.3     1  UNL1        0.0216
      9 C         -24.2461    0.9699   27.0801 C.3     1  UNL1        0.0035
     10 C         -24.4562    1.2698   28.3603 C.3     1  UNL1        0.0216
     11 C         -25.4006    0.7339   28.7838 C.3     1  UNL1        0.0939
     12 C         -28.5483   -1.5791   31.1299 C.3     1  UNL1        0.1390
@<TRIPOS>BOND
     1     1     2    2
     2     2     3   am
     3     3     4    1
     4     2     5    1
     5     5     6    2
     6     5     7   am
     7     4     8    1
     8     8     9    1
     9     9    10    1
    10     3    11    1
    11    10    11    1
    12     7    12    1
