@<TRIPOS>MOLECULE
No_1126-gen_results/8p0m/2024-11-26-14-13-15/
 35 38 0 0 0
SMALL
GASTEIGER

@<TRIPOS>ATOM
      1 C         -28.0162   -0.8135   28.8779 C.ar    1  UNL1        0.0261
      2 C         -28.4690   -0.7850   29.8287 C.ar    1  UNL1        0.1407
      3 C         -28.1960    0.3478   28.0550 C.ar    1  UNL1       -0.0113
      4 C         -29.0191    1.3501   28.3782 C.ar    1  UNL1        0.0079
      5 C         -29.4107    0.1803   30.3782 C.ar    1  UNL1        0.0410
      6 C         -29.6059    1.2495   29.6193 C.ar    1  UNL1        0.0596
      7 C         -27.4597    0.3802   26.7091 C.3     1  UNL1        0.0668
      8 C         -27.9298    0.5836   25.6804 C.ar    1  UNL1       -0.0143
      9 C         -29.3518    0.8141   25.5930 C.ar    1  UNL1       -0.0036
     10 C         -30.0874    0.3793   24.7862 C.ar    1  UNL1       -0.0003
     11 C         -29.6805   -0.8473   24.1145 C.ar    1  UNL1       -0.0000
     12 C         -28.3368   -1.0851   23.9338 C.ar    1  UNL1       -0.0003
     13 C         -27.5553   -0.3969   24.6094 C.ar    1  UNL1       -0.0036
     14 C         -26.0147    0.7359   27.0230 C.ar    1  UNL1       -0.0143
     15 C         -25.6202    1.8875   27.5013 C.ar    1  UNL1       -0.0035
     16 C         -24.2811    2.1951   27.6890 C.ar    1  UNL1        0.0043
     17 C         -23.3220    1.1613   27.5712 C.ar    1  UNL1        0.0550
     18 C         -25.0704   -0.3203   26.8697 C.ar    1  UNL1       -0.0035
     19 C         -21.9003    1.4439   27.8601 C.2     1  UNL1        0.2651
     20 C         -23.7296   -0.0414   27.1847 C.ar    1  UNL1        0.0043
     21 N         -21.2022    0.9805   28.8128 N.am    1  UNL1       -0.1968
     22 O         -21.3535    2.3354   27.0377 O.2     1  UNL1       -0.2684
     23 C         -31.5812    0.6871   24.7392 C.ar    1  UNL1        0.0000
     24 C         -31.9213    1.9167   25.0446 C.ar    1  UNL1        0.0009
     25 C         -33.2717    2.3438   25.0269 C.ar    1  UNL1        0.0114
     26 C         -34.1774    1.4319   24.5098 C.ar    1  UNL1        0.0577
     27 C         -32.5369   -0.1508   24.3268 C.ar    1  UNL1        0.0009
     28 C         -33.8419    0.1852   24.2133 C.ar    1  UNL1        0.0114
     29 CL        -30.7606    2.4891   30.1051 Cl      1  UNL1       -0.0822
     30 F         -28.2543   -1.8793   30.7562 F       1  UNL1       -0.2042
     31 CL        -35.8606    1.8979   24.4175 Cl      1  UNL1       -0.0822
     32 C         -21.6553   -0.1795   29.5247 C.3     1  UNL1        0.1412
     33 C         -22.5732    0.0820   30.5429 C.2     1  UNL1       -0.0074
     34 C         -23.3092    1.1420   30.6379 C.2     1  UNL1       -0.0286
     35 C         -24.3460    1.3714   31.6514 C.3     1  UNL1        0.0304
@<TRIPOS>BOND
     1     3     7    1
     2     7    14    1
     3    17    19    1
     4    19    21   am
     5    19    22    2
     6    10    23    1
     7     6    29    1
     8     2    30    1
     9    26    31    1
    10    21    32    1
    11    32    33    1
    12    33    34    2
    13    34    35    1
    14     7     8    1
    15     8     9   ar
    16     9    10   ar
    17    10    11   ar
    18    11    12   ar
    19    12    13   ar
    20    13     8   ar
    21     1     2   ar
    22     2     5   ar
    23     5     6   ar
    24     6     4   ar
    25     4     3   ar
    26     3     1   ar
    27    23    24   ar
    28    24    25   ar
    29    25    26   ar
    30    26    28   ar
    31    28    27   ar
    32    27    23   ar
    33    14    15   ar
    34    15    16   ar
    35    16    17   ar
    36    17    20   ar
    37    20    18   ar
    38    18    14   ar
