@<TRIPOS>MOLECULE
No_1128-gen_results/8p0m/2024-11-26-14-13-15/
 12 12 0 0 0
SMALL
GASTEIGER

@<TRIPOS>ATOM
      1 C         -28.0162   -0.8135   28.8779 C.ar    1  UNL1        0.0577
      2 CL        -28.6208   -1.1855   29.7353 Cl      1  UNL1       -0.0822
      3 C         -28.3999    0.3569   28.0304 C.ar    1  UNL1        0.0111
      4 C         -27.4030    0.9671   27.2868 C.ar    1  UNL1       -0.0034
      5 C         -26.0290    0.4875   27.1415 C.ar    1  UNL1       -0.0216
      6 C         -25.6702   -0.5716   27.9924 C.ar    1  UNL1       -0.0034
      7 C         -26.5528   -1.1334   28.7989 C.ar    1  UNL1        0.0111
      8 C         -25.0314    1.0944   26.2735 C.3     1  UNL1        0.0382
      9 C         -23.8752    1.6203   26.8267 C.3     1  UNL1        0.1187
     10 C         -23.8760    2.0752   28.1393 C.2     1  UNL1        0.3652
     11 O         -22.6686    2.2139   28.6535 O.co2   1  UNL1       -0.2456
     12 O         -24.8744    2.6136   28.6365 O.co2   1  UNL1       -0.2456
@<TRIPOS>BOND
     1     1     2    1
     2     5     8    1
     3     8     9    1
     4     9    10    1
     5    10    11   ar
     6    10    12   ar
     7     1     3   ar
     8     3     4   ar
     9     4     5   ar
    10     5     6   ar
    11     6     7   ar
    12     7     1   ar
