@<TRIPOS>MOLECULE
No_113-gen_results/8p0m/2024-11-26-14-13-15/
 14 15 0 0 0
SMALL
GASTEIGER

@<TRIPOS>ATOM
      1 C         -28.0162   -0.8135   28.8779 C.ar    1  UNL1        0.0064
      2 C         -28.4690   -0.7850   29.8287 C.ar    1  UNL1        0.0345
      3 C         -26.5455   -0.8762   28.8500 C.ar    1  UNL1       -0.0037
      4 C         -25.8041   -1.0324   30.0571 C.ar    1  UNL1       -0.0214
      5 C         -27.9437   -0.9869   31.2075 C.ar    1  UNL1        0.0064
      6 C         -26.5825   -1.0386   31.2231 C.ar    1  UNL1       -0.0037
      7 BR        -30.4495   -0.7126   29.8904 Br      1  UNL1       -0.0490
      8 C         -24.3608   -1.1188   30.0632 C.3     1  UNL1        0.0351
      9 C         -23.6874    0.1366   30.0274 C.3     1  UNL1        0.0069
     10 C         -22.4215    0.2456   29.3646 C.3     1  UNL1        0.0192
     11 C         -21.7869   -0.9918   29.0312 C.3     1  UNL1        0.0887
     12 C         -23.6407   -1.9271   30.9645 C.3     1  UNL1        0.0058
     13 C         -24.0485   -1.9376   28.6344 C.3     1  UNL1        0.0926
     14 N         -22.5889   -2.0148   28.6455 N.3     1  UNL1       -0.2177
@<TRIPOS>BOND
     1     2     7    1
     2     4     8    1
     3     8     9    1
     4    10    11    1
     5     8    12    1
     6     8    13    1
     7    11    14    1
     8    13    14    1
     9     9    10    1
    10     1     2   ar
    11     2     5   ar
    12     5     6   ar
    13     6     4   ar
    14     4     3   ar
    15     3     1   ar
