@<TRIPOS>MOLECULE
No_1130-gen_results/8p0m/2024-11-26-14-13-15/
 16 17 0 0 0
SMALL
GASTEIGER

@<TRIPOS>ATOM
      1 C         -28.0162   -0.8135   28.8779 C.ar    1  UNL1        0.0045
      2 C         -28.4690   -0.7850   29.8287 C.ar    1  UNL1        0.0001
      3 C         -27.1356    0.2359   28.5352 C.ar    1  UNL1        0.0539
      4 C         -26.8745    1.2825   29.3982 C.ar    1  UNL1        0.0045
      5 C         -28.3613    0.1987   30.9244 C.ar    1  UNL1        0.0000
      6 C         -27.5277    1.2234   30.6356 C.ar    1  UNL1        0.0001
      7 C         -26.3987    0.2949   27.2279 C.2     1  UNL1        0.2528
      8 N         -26.8914    0.5126   26.1471 N.am    1  UNL1       -0.2534
      9 O         -25.0725    0.0393   27.2700 O.2     1  UNL1       -0.2696
     10 C         -26.2290    0.4272   24.8723 C.3     1  UNL1        0.1203
     11 C         -28.3295    0.8125   25.9420 C.ar    1  UNL1        0.0542
     12 C         -28.6582    1.8747   25.7851 C.ar    1  UNL1        0.0149
     13 C         -30.0539    2.2875   25.7053 C.ar    1  UNL1        0.0013
     14 C         -30.9751    1.2919   25.6578 C.ar    1  UNL1        0.0001
     15 C         -30.5475   -0.0352   25.7915 C.ar    1  UNL1        0.0013
     16 C         -29.2319   -0.2800   25.9650 C.ar    1  UNL1        0.0149
@<TRIPOS>BOND
     1     3     7    1
     2     7     8   am
     3     7     9    2
     4     8    10    1
     5     8    11    1
     6    11    12   ar
     7    12    13   ar
     8    13    14   ar
     9    14    15   ar
    10    15    16   ar
    11    16    11   ar
    12     1     2   ar
    13     2     5   ar
    14     5     6   ar
    15     6     4   ar
    16     4     3   ar
    17     3     1   ar
