@<TRIPOS>MOLECULE
No_1132-gen_results/8p0m/2024-11-26-14-13-15/
 17 17 0 0 0
SMALL
GASTEIGER

@<TRIPOS>ATOM
      1 C         -28.0162   -0.8135   28.8779 C.ar    1  UNL1        0.0577
      2 C         -27.0636   -0.1189   28.6079 C.ar    1  UNL1        0.0114
      3 C         -27.0010    0.6913   27.4910 C.ar    1  UNL1        0.0006
      4 C         -28.1373    0.7363   26.6350 C.ar    1  UNL1       -0.0039
      5 C         -28.1438    1.4322   25.4880 C.2     1  UNL1       -0.0218
      6 C         -29.2801   -0.5524   28.2479 C.ar    1  UNL1        0.0114
      7 C         -29.2552    0.0950   27.0446 C.ar    1  UNL1        0.0006
      8 C         -27.2841    1.1886   24.5424 C.2     1  UNL1       -0.0036
      9 C         -29.1941    2.4266   25.2325 C.3     1  UNL1        0.0310
     10 C         -26.2565    0.2922   24.7238 C.2     1  UNL1        0.0085
     11 CL        -28.0543   -1.7302   30.4217 Cl      1  UNL1       -0.0822
     12 C         -24.8757    0.6537   25.0425 C.2     1  UNL1        0.0496
     13 C         -24.4602    1.4737   26.0929 C.1     1  UNL1       -0.0585
     14 C         -23.6286    2.0969   26.4699 C.1     1  UNL1       -0.0491
     15 C         -23.0214    2.5331   27.5590 C.2     1  UNL1        0.1126
     16 C         -22.7850    1.4674   28.5743 C.1     1  UNL1        0.0305
     17 N         -23.1393    1.7391   29.7814 N.2     1  UNL1       -0.0946
@<TRIPOS>BOND
     1     4     5    1
     2     5     8    2
     3     5     9    1
     4     8    10    1
     5     1    11    1
     6    10    12    2
     7    12    13    1
     8    13    14    3
     9    14    15    1
    10    15    16    2
    11    16    17    2
    12     1     2   ar
    13     2     3   ar
    14     3     4   ar
    15     4     7   ar
    16     7     6   ar
    17     6     1   ar
