@<TRIPOS>MOLECULE
No_1133-gen_results/8p0m/2024-11-26-14-13-15/
 10 10 0 0 0
SMALL
GASTEIGER

@<TRIPOS>ATOM
      1 C         -28.0162   -0.8135   28.8779 C.ar    1  UNL1        0.0067
      2 C         -28.4690   -0.7850   29.8287 C.ar    1  UNL1        0.0005
      3 C         -28.1960    0.3478   28.0550 C.ar    1  UNL1        0.0346
      4 C         -29.0191    1.3501   28.3782 C.ar    1  UNL1        0.0067
      5 C         -29.4107    0.1803   30.3782 C.ar    1  UNL1       -0.0003
      6 C         -29.6059    1.2495   29.6193 C.ar    1  UNL1        0.0005
      7 BR        -27.2505    0.3849   26.3744 Br      1  UNL1       -0.0490
      8 C         -30.0348   -0.0249   31.7659 C.2     1  UNL1       -0.0046
      9 C         -30.3272   -1.0393   32.2639 C.2     1  UNL1       -0.0258
     10 C         -30.9073   -1.2159   33.6093 C.3     1  UNL1        0.0307
@<TRIPOS>BOND
     1     3     7    1
     2     5     8    1
     3     8     9    2
     4     9    10    1
     5     1     2   ar
     6     2     5   ar
     7     5     6   ar
     8     6     4   ar
     9     4     3   ar
    10     3     1   ar
