@<TRIPOS>MOLECULE
No_1135-gen_results/8p0m/2024-11-26-14-13-15/
 29 31 0 0 0
SMALL
GASTEIGER

@<TRIPOS>ATOM
      1 C         -28.0162   -0.8135   28.8779 C.ar    1  UNL1        0.0773
      2 C         -27.0636   -0.1190   28.6079 C.ar    1  UNL1        0.0240
      3 C         -26.9716    0.7139   27.5060 C.ar    1  UNL1        0.0645
      4 C         -28.1053    0.7744   26.6421 C.ar    1  UNL1        0.0241
      5 C         -29.2041    0.1179   27.0477 C.ar    1  UNL1        0.0814
      6 C         -29.2127   -0.6088   28.1281 C.ar    1  UNL1        0.0131
      7 N         -25.6860    1.2756   27.3185 N.ar    1  UNL1       -0.3034
      8 C         -24.6614    0.8680   27.8780 C.ar    1  UNL1        0.0848
      9 C         -23.3806    1.6171   27.6941 C.ar    1  UNL1        0.0756
     10 C         -23.5614    2.4537   26.5699 C.ar    1  UNL1        0.0251
     11 C         -25.2897    2.2985   26.3339 C.ar    1  UNL1        0.0803
     12 C         -22.0822    1.3900   28.1808 C.2     1  UNL1        0.2857
     13 N         -21.9754    0.7073   29.3126 N.am    1  UNL1       -0.0837
     14 O         -21.0704    2.1272   27.8991 O.2     1  UNL1       -0.2666
     15 C         -30.3912    0.2515   26.1687 C.2     1  UNL1        0.3878
     16 O         -31.3641   -0.4625   26.3093 O.co2   1  UNL1       -0.2406
     17 O         -30.5284    1.2984   25.4034 O.co2   1  UNL1       -0.2406
     18 C         -27.9240   -1.6526   30.1640 C.2     1  UNL1        0.3417
     19 O         -26.9309   -2.2331   30.4567 O.2     1  UNL1       -0.2449
     20 O         -29.1452   -2.1370   30.5844 O.3     1  UNL1       -0.4353
     21 C         -29.2954   -2.8543   31.3801 C.3     1  UNL1        0.2929
     22 C         -30.5666   -3.6769   31.3903 C.2     1  UNL1        0.2703
     23 O         -30.5948   -4.7264   31.8733 O.2     1  UNL1       -0.2708
     24 N         -31.6567   -3.1297   30.8416 N.am    1  UNL1       -0.2765
     25 C         -32.8551   -3.8329   30.6484 C.3     1  UNL1        0.0935
     26 C         -33.6502   -3.1289   29.9590 C.3     1  UNL1        0.0216
     27 C         -33.3846   -1.8875   29.4154 C.3     1  UNL1        0.0035
     28 C         -32.1816   -1.2461   29.6564 C.3     1  UNL1        0.0216
     29 C         -31.3849   -1.8557   30.2925 C.3     1  UNL1        0.0935
@<TRIPOS>BOND
     1     3     7    1
     2     7     8   ar
     3     8     9   ar
     4     9    10   ar
     5     7    11   ar
     6    10    11   ar
     7     9    12    1
     8    12    13   am
     9    12    14    2
    10     5    15    1
    11    15    16   ar
    12    15    17   ar
    13     1    18    1
    14    18    19    2
    15    18    20    1
    16    20    21    1
    17    21    22    1
    18    22    23    2
    19    22    24   am
    20    24    25    1
    21    26    27    1
    22    24    29    1
    23    28    29    1
    24    25    26    1
    25    27    28    1
    26     1     2   ar
    27     2     3   ar
    28     3     4   ar
    29     4     5   ar
    30     5     6   ar
    31     6     1   ar
