@<TRIPOS>MOLECULE
No_1136-gen_results/8p0m/2024-11-26-14-13-15/
 24 26 0 0 0
SMALL
GASTEIGER

@<TRIPOS>ATOM
      1 C         -28.0162   -0.8135   28.8779 C.ar    1  UNL1        0.0744
      2 C         -28.4690   -0.7850   29.8287 C.ar    1  UNL1        0.1483
      3 C         -26.5042   -0.7777   28.8766 C.ar    1  UNL1        0.1421
      4 C         -25.8103   -0.8531   30.1028 C.ar    1  UNL1        0.0371
      5 C         -27.9906   -0.8916   31.2257 C.ar    1  UNL1        0.0377
      6 C         -26.6042   -0.8676   31.2652 C.ar    1  UNL1        0.0062
      7 O         -29.9385   -0.8194   29.8358 O.3     1  UNL1       -0.4534
      8 C         -30.6393    0.2340   30.2522 C.ar    1  UNL1        0.1452
      9 C         -31.7597    0.2238   30.0390 C.ar    1  UNL1        0.0375
     10 C         -32.6044    1.4051   30.4106 C.ar    1  UNL1        0.0030
     11 C         -31.9249    2.4725   31.0455 C.ar    1  UNL1        0.0013
     12 C         -30.5797    2.3814   31.2575 C.ar    1  UNL1        0.0466
     13 C         -29.8580    1.3049   30.8845 C.ar    1  UNL1        0.0386
     14 C         -29.8588    3.4940   31.9408 C.3     1  UNL1        0.3411
     15 F         -30.2805    4.2761   32.6448 F       1  UNL1       -0.1933
     16 F         -28.5704    3.6259   31.6784 F       1  UNL1       -0.1933
     17 O         -25.7675   -0.7618   27.7485 O.3     1  UNL1       -0.4705
     18 C         -25.6788    0.4436   27.0998 C.3     1  UNL1        0.2320
     19 C         -26.3326    0.5217   25.9060 C.ar    1  UNL1        0.0212
     20 C         -27.0445   -0.5658   25.4233 C.ar    1  UNL1       -0.0007
     21 C         -27.7575   -0.3509   24.1535 C.ar    1  UNL1       -0.0002
     22 C         -27.9883    0.9557   23.7935 C.ar    1  UNL1       -0.0000
     23 C         -27.4053    2.0460   24.3763 C.ar    1  UNL1       -0.0002
     24 C         -26.5712    1.8502   25.5012 C.ar    1  UNL1       -0.0007
@<TRIPOS>BOND
     1     2     7    1
     2     7     8    1
     3    12    14    1
     4    14    15    1
     5    14    16    1
     6     3    17    1
     7    17    18    1
     8    18    19    1
     9     8     9   ar
    10     9    10   ar
    11    10    11   ar
    12    11    12   ar
    13    12    13   ar
    14    13     8   ar
    15     1     2   ar
    16     2     5   ar
    17     5     6   ar
    18     6     4   ar
    19     4     3   ar
    20     3     1   ar
    21    19    20   ar
    22    20    21   ar
    23    21    22   ar
    24    22    23   ar
    25    23    24   ar
    26    24    19   ar
