@<TRIPOS>MOLECULE
No_1137-gen_results/8p0m/2024-11-26-14-13-15/
 9 9 0 0 0
SMALL
GASTEIGER

@<TRIPOS>ATOM
      1 C         -28.0162   -0.8135   28.8779 C.ar    1  UNL1        0.0056
      2 C         -28.4690   -0.7850   29.8287 C.ar    1  UNL1        0.0678
      3 C         -26.5042   -0.7777   28.8766 C.ar    1  UNL1        0.0002
      4 C         -25.8103   -0.8531   30.1028 C.ar    1  UNL1        0.0000
      5 C         -27.9906   -0.8916   31.2257 C.ar    1  UNL1        0.0056
      6 C         -26.6042   -0.8676   31.2652 C.ar    1  UNL1        0.0002
      7 C         -30.0739   -0.8360   29.8615 C.2     1  UNL1        0.3334
      8 O         -30.5608   -0.4417   28.9417 O.2     1  UNL1       -0.2541
      9 F         -30.7204   -0.8543   30.9949 F       1  UNL1       -0.1586
@<TRIPOS>BOND
     1     2     7    1
     2     7     8    2
     3     7     9    1
     4     1     2   ar
     5     2     5   ar
     6     5     6   ar
     7     6     4   ar
     8     4     3   ar
     9     3     1   ar
