@<TRIPOS>MOLECULE
No_114-gen_results/8p0m/2024-11-26-14-13-15/
 19 19 0 0 0
SMALL
GASTEIGER

@<TRIPOS>ATOM
      1 F         -28.0727   -1.2542   28.5316 F       1  UNL1       -0.2042
      2 C         -27.3591   -0.3792   28.7224 C.ar    1  UNL1        0.1400
      3 C         -27.7014    0.7608   29.1249 C.ar    1  UNL1        0.0361
      4 C         -25.8844   -0.6918   28.4374 C.ar    1  UNL1        0.0259
      5 C         -24.9212    0.3779   28.6013 C.ar    1  UNL1       -0.0105
      6 C         -26.6962    1.8778   29.2780 C.ar    1  UNL1        0.0776
      7 C         -25.3214    1.6174   29.0139 C.ar    1  UNL1        0.0028
      8 C         -23.5031    0.1451   28.3622 C.3     1  UNL1        0.1149
      9 C         -22.6237    0.2867   29.0969 C.2     1  UNL1        0.2652
     10 N         -22.8164    0.6391   30.3791 N.am    1  UNL1       -0.0875
     11 O         -21.3610    0.1185   28.7648 O.2     1  UNL1       -0.2713
     12 C         -27.0740    3.2233   29.8065 C.2     1  UNL1        0.3416
     13 O         -26.7373    4.1503   29.2867 O.2     1  UNL1       -0.2449
     14 O         -27.8267    3.2263   30.8738 O.3     1  UNL1       -0.4404
     15 C         -28.0807    2.6270   31.6959 C.3     1  UNL1        0.2352
     16 C         -27.0747    2.4056   32.7133 C.2     1  UNL1        0.0208
     17 C         -26.9806    1.1981   33.3778 C.2     1  UNL1       -0.0009
     18 C         -27.6428    0.9915   34.3334 C.2     1  UNL1       -0.0002
     19 C         -27.6712   -0.3701   34.9706 C.2     1  UNL1       -0.0000
@<TRIPOS>BOND
     1     1     2    1
     2     5     8    1
     3     8     9    1
     4     9    10   am
     5     9    11    2
     6     6    12    1
     7    12    13    2
     8    12    14    1
     9    14    15    1
    10    15    16    1
    11    16    17    2
    12    17    18    1
    13    18    19    2
    14     2     3   ar
    15     3     6   ar
    16     6     7   ar
    17     7     5   ar
    18     5     4   ar
    19     4     2   ar
