@<TRIPOS>MOLECULE
No_1142-gen_results/8p0m/2024-11-26-14-13-15/
 18 19 0 0 0
SMALL
GASTEIGER

@<TRIPOS>ATOM
      1 C         -28.0162   -0.8135   28.8779 C.ar    1  UNL1       -0.0003
      2 C         -27.0636   -0.1189   28.6079 C.ar    1  UNL1       -0.0000
      3 C         -27.0010    0.6913   27.4910 C.ar    1  UNL1       -0.0003
      4 C         -28.1373    0.7363   26.6350 C.ar    1  UNL1       -0.0038
      5 C         -29.2360    0.0765   27.0690 C.ar    1  UNL1       -0.0126
      6 C         -29.2177   -0.6429   28.1747 C.ar    1  UNL1       -0.0038
      7 C         -30.4152    0.1590   26.1819 C.3     1  UNL1        0.1126
      8 C         -31.0962    1.1819   26.0730 C.3     1  UNL1        0.0157
      9 C         -30.1131   -0.5287   24.8602 C.3     1  UNL1        0.0157
     10 C         -31.4508   -0.9727   26.7385 C.2     1  UNL1        0.3675
     11 O         -31.6863   -1.0462   27.8570 O.co2   1  UNL1       -0.2453
     12 O         -31.9480   -1.8315   25.8757 O.co2   1  UNL1       -0.2453
     13 C         -25.7247    1.4105   27.0597 C.ar    1  UNL1       -0.0000
     14 C         -24.6967    1.0873   27.7707 C.ar    1  UNL1       -0.0000
     15 C         -23.4282    1.8768   27.5709 C.ar    1  UNL1       -0.0000
     16 C         -23.3661    2.6819   26.4400 C.ar    1  UNL1        0.0000
     17 C         -24.5015    2.9340   25.7436 C.ar    1  UNL1       -0.0000
     18 C         -25.5736    2.3652   26.1527 C.ar    1  UNL1       -0.0000
@<TRIPOS>BOND
     1     5     7    1
     2     7     8    1
     3     7     9    1
     4     7    10    1
     5    10    11   ar
     6    10    12   ar
     7     3    13    1
     8     1     2   ar
     9     2     3   ar
    10     3     4   ar
    11     4     5   ar
    12     5     6   ar
    13     6     1   ar
    14    13    14   ar
    15    14    15   ar
    16    15    16   ar
    17    16    17   ar
    18    17    18   ar
    19    18    13   ar
