@<TRIPOS>MOLECULE
No_1144-gen_results/8p0m/2024-11-26-14-13-15/
 14 14 0 0 0
SMALL
GASTEIGER

@<TRIPOS>ATOM
      1 C         -28.0162   -0.8135   28.8779 C.ar    1  UNL1        0.0152
      2 C         -28.4690   -0.7850   29.8287 C.ar    1  UNL1        0.0575
      3 C         -27.0871    0.2903   28.6377 C.ar    1  UNL1        0.0721
      4 C         -26.8317    1.2487   29.5869 C.ar    1  UNL1        0.0050
      5 C         -28.3914    0.0801   31.0065 C.ar    1  UNL1        0.0125
      6 C         -27.4940    1.1521   30.7841 C.ar    1  UNL1        0.0444
      7 C         -26.3172    0.3994   27.3653 C.3     1  UNL1        0.4186
      8 F         -25.8454    1.5466   27.3810 F       1  UNL1       -0.1659
      9 F         -25.3609   -0.5208   27.3228 F       1  UNL1       -0.1659
     10 F         -27.1364    0.2590   26.2887 F       1  UNL1       -0.1659
     11 CL        -29.5777   -2.1930   30.2715 Cl      1  UNL1       -0.0823
     12 C         -27.3071    2.1939   31.8597 C.3     1  UNL1        0.3410
     13 F         -26.4280    2.2710   32.3579 F       1  UNL1       -0.1933
     14 F         -28.3253    2.6791   31.9438 F       1  UNL1       -0.1933
@<TRIPOS>BOND
     1     3     7    1
     2     7     8    1
     3     7     9    1
     4     7    10    1
     5     2    11    1
     6     6    12    1
     7    12    13    1
     8    12    14    1
     9     1     2   ar
    10     2     5   ar
    11     5     6   ar
    12     6     4   ar
    13     4     3   ar
    14     3     1   ar
