@<TRIPOS>MOLECULE
No_1146-gen_results/8p0m/2024-11-26-14-13-15/
 14 15 0 0 0
SMALL
GASTEIGER

@<TRIPOS>ATOM
      1 C         -28.0162   -0.8135   28.8779 C.ar    1  UNL1        0.0022
      2 C         -27.0636   -0.1189   28.6079 C.ar    1  UNL1        0.0275
      3 C         -26.9716    0.7139   27.5060 C.ar    1  UNL1        0.1403
      4 C         -25.8205    1.4910   27.1160 C.ar    1  UNL1        0.0362
      5 C         -24.6562    1.4242   27.9180 C.ar    1  UNL1        0.0820
      6 C         -24.7114    0.5419   29.0507 C.ar    1  UNL1        0.0067
      7 C         -25.8042   -0.2058   29.3881 C.ar    1  UNL1        0.0024
      8 C         -28.0309   -1.5903   30.1490 C.ar    1  UNL1        0.0001
      9 C         -26.8104   -1.7964   30.8511 C.ar    1  UNL1        0.0000
     10 C         -25.6958   -1.0684   30.5035 C.ar    1  UNL1        0.0001
     11 F         -28.0657    0.8957   26.8767 F       1  UNL1       -0.2042
     12 C         -23.4396    2.1812   27.5732 C.2     1  UNL1        0.3878
     13 O         -23.2536    2.6210   26.4534 O.co2   1  UNL1       -0.2406
     14 O         -22.5122    2.2941   28.4938 O.co2   1  UNL1       -0.2406
@<TRIPOS>BOND
     1     3    11    1
     2     5    12    1
     3    12    13   ar
     4    12    14   ar
     5     2     3   ar
     6     3     4   ar
     7     4     5   ar
     8     5     6   ar
     9     6     7   ar
    10     1     2   ar
    11     2     7   ar
    12     7    10   ar
    13    10     9   ar
    14     9     8   ar
    15     8     1   ar
