@<TRIPOS>MOLECULE
No_1147-gen_results/8p0m/2024-11-26-14-13-15/
 8 8 0 0 0
SMALL
GASTEIGER

@<TRIPOS>ATOM
      1 C         -28.0162   -0.8135   28.8779 C.2     1  UNL1        0.2342
      2 C         -27.0636   -0.1189   28.6079 C.ar    1  UNL1        0.0422
      3 C         -25.7647   -0.3897   29.0360 C.ar    1  UNL1        0.0033
      4 C         -24.5516    0.4058   28.7646 C.ar    1  UNL1        0.0001
      5 C         -24.6957    1.4480   27.7988 C.ar    1  UNL1        0.0000
      6 C         -25.9755    1.7250   27.3077 C.ar    1  UNL1        0.0001
      7 C         -27.0718    1.0134   27.6535 C.ar    1  UNL1        0.0033
      8 O         -29.1309   -0.3149   28.7643 O.2     1  UNL1       -0.2831
@<TRIPOS>BOND
     1     1     8    2
     2     1     2    1
     3     2     3   ar
     4     3     4   ar
     5     4     5   ar
     6     5     6   ar
     7     6     7   ar
     8     7     2   ar
