@<TRIPOS>MOLECULE
No_1148-gen_results/8p0m/2024-11-26-14-13-15/
 35 37 0 0 0
SMALL
GASTEIGER

@<TRIPOS>ATOM
      1 C         -28.0162   -0.8135   28.8779 C.ar    1  UNL1        0.0370
      2 C         -28.4690   -0.7850   29.8287 C.ar    1  UNL1        0.1386
      3 C         -28.1816    0.4277   28.1134 C.ar    1  UNL1        0.0059
      4 C         -27.4498    0.6435   26.8500 C.ar    1  UNL1        0.0341
      5 C         -26.4529    0.9939   26.6681 C.ar    1  UNL1        0.0035
      6 C         -25.1813    0.8625   26.8165 C.2     1  UNL1        0.0090
      7 C         -24.2037    1.0465   27.4866 C.2     1  UNL1        0.0502
      8 C         -29.4367    0.0780   30.4436 C.ar    1  UNL1        0.0369
      9 C         -23.2068    1.1721   27.8981 C.1     1  UNL1       -0.0506
     10 C         -29.6775    1.1885   29.7341 C.ar    1  UNL1        0.0031
     11 C         -29.0585    1.3972   28.5508 C.ar    1  UNL1        0.0003
     12 C         -21.9512    1.0728   28.5269 C.1     1  UNL1       -0.0092
     13 C         -28.4952    0.5784   25.8292 C.ar    1  UNL1        0.1391
     14 C         -28.0031    1.0881   24.6863 C.ar    1  UNL1        0.0369
     15 C         -26.6994    2.2331   25.7628 C.ar    1  UNL1        0.0002
     16 C         -27.1914    2.0851   24.6294 C.ar    1  UNL1        0.0031
     17 O         -29.5804   -0.1509   25.9186 O.3     1  UNL1       -0.4677
     18 C         -30.6908    0.1784   25.1674 C.3     1  UNL1        0.2677
     19 C         -31.8297    0.3081   26.0872 C.2     1  UNL1        0.4040
     20 O         -32.7788    0.8455   25.6647 O.co2   1  UNL1       -0.2416
     21 O         -31.6963    0.1614   27.3625 O.co2   1  UNL1       -0.2416
     22 C         -30.9507   -0.9272   24.2261 C.3     1  UNL1        0.0598
     23 O         -28.2813   -2.0010   30.6616 O.3     1  UNL1       -0.4753
     24 C         -27.8510   -3.0093   30.3875 C.3     1  UNL1        0.2092
     25 C         -28.6265   -4.2727   30.4995 C.3     1  UNL1        0.2485
     26 O         -29.8169   -4.2070   30.3702 O.3     1  UNL1       -0.4716
     27 C         -30.5826   -5.0417   30.8704 C.ar    1  UNL1        0.1387
     28 C         -31.6364   -5.5682   30.0740 C.ar    1  UNL1        0.0369
     29 C         -31.9333   -6.7560   29.9771 C.ar    1  UNL1        0.0031
     30 C         -31.6395   -7.7090   31.0641 C.ar    1  UNL1        0.0002
     31 C         -30.6918   -7.2576   32.0047 C.ar    1  UNL1        0.0031
     32 C         -30.1273   -5.9813   31.8847 C.ar    1  UNL1        0.0369
     33 C         -26.3750   -3.0804   30.9771 C.3     1  UNL1        0.0475
     34 C         -25.8383   -1.7582   30.7163 C.3     1  UNL1        0.0038
     35 C         -24.3618   -1.8263   30.2521 C.3     1  UNL1        0.0001
@<TRIPOS>BOND
     1     3     4    1
     2     5     6    1
     3     6     7    2
     4     7     9    1
     5     9    12    3
     6    13    17    1
     7    17    18    1
     8    18    19    1
     9    19    20   ar
    10    19    21   ar
    11    18    22    1
    12     2    23    1
    13    23    24    1
    14    24    25    1
    15    25    26    1
    16    26    27    1
    17    24    33    1
    18    33    34    1
    19    34    35    1
    20     4     5   ar
    21     5    15   ar
    22    15    16   ar
    23    16    14   ar
    24    14    13   ar
    25    13     4   ar
    26    27    28   ar
    27    28    29   ar
    28    29    30   ar
    29    30    31   ar
    30    31    32   ar
    31    32    27   ar
    32     1     2   ar
    33     2     8   ar
    34     8    10   ar
    35    10    11   ar
    36    11     3   ar
    37     3     1   ar
