@<TRIPOS>MOLECULE
No_1149-gen_results/8p0m/2024-11-26-14-13-15/
 11 12 0 0 0
SMALL
GASTEIGER

@<TRIPOS>ATOM
      1 C         -28.0162   -0.8135   28.8779 C.ar    1  UNL1        0.0000
      2 C         -27.0636   -0.1189   28.6079 C.ar    1  UNL1        0.0012
      3 C         -25.7647   -0.3897   29.0360 C.ar    1  UNL1        0.0139
      4 C         -25.5296   -1.5302   29.9014 C.ar    1  UNL1        0.0012
      5 C         -26.6577   -2.2915   30.2035 C.ar    1  UNL1        0.0000
      6 C         -27.8548   -1.9555   29.7630 C.ar    1  UNL1        0.0000
      7 C         -24.5441    0.4126   28.7379 C.2     1  UNL1        0.0634
      8 N         -24.4533    1.2007   27.7812 N.2     1  UNL1       -0.2481
      9 C         -23.2507    1.7948   27.5597 C.2     1  UNL1        0.0943
     10 C         -22.2402    1.3224   28.3980 C.2     1  UNL1        0.0008
     11 C         -23.1953    0.2597   29.3254 C.3     1  UNL1        0.0734
@<TRIPOS>BOND
     1     3     7    1
     2     7     8    2
     3     8     9    1
     4     9    10    2
     5     7    11    1
     6    10    11    1
     7     1     2   ar
     8     2     3   ar
     9     3     4   ar
    10     4     5   ar
    11     5     6   ar
    12     6     1   ar
