@<TRIPOS>MOLECULE
No_115-gen_results/8p0m/2024-11-26-14-13-15/
 17 18 0 0 0
SMALL
GASTEIGER

@<TRIPOS>ATOM
      1 C         -28.0162   -0.8135   28.8779 C.3     1  UNL1        0.4186
      2 C         -27.0636   -0.1189   28.6079 C.ar    1  UNL1        0.0711
      3 C         -27.0010    0.6913   27.4910 C.ar    1  UNL1        0.0041
      4 C         -25.8548    1.4825   27.0830 C.ar    1  UNL1        0.0073
      5 C         -24.6901    1.4526   27.8807 C.ar    1  UNL1        0.0874
      6 C         -24.7379    0.6010   29.0416 C.ar    1  UNL1       -0.0102
      7 C         -25.8234   -0.1688   29.3887 C.ar    1  UNL1        0.0002
      8 F         -27.8182   -1.9960   29.2551 F       1  UNL1       -0.1659
      9 F         -28.8553   -0.2180   29.8550 F       1  UNL1       -0.1659
     10 C         -23.5197    2.2090   27.5834 C.2     1  UNL1        0.4210
     11 N         -23.5334    3.1771   26.8164 N.2     1  UNL1        0.1977
     12 N         -22.2780    1.7760   28.0140 N.pl3   1  UNL1        0.0459
     13 C         -22.0619    0.7285   28.8233 C.2     1  UNL1        0.4060
     14 C         -22.8481   -0.1246   29.0521 C.2     1  UNL1        0.0744
     15 C         -23.6074    0.0840   29.7785 C.3     1  UNL1        0.0604
     16 F         -28.9390   -0.8011   27.8720 F       1  UNL1       -0.1659
     17 N         -20.6461    0.5239   28.8406 N.pl3   1  UNL1        0.2137
@<TRIPOS>BOND
     1     1     2    1
     2     1     8    1
     3     1     9    1
     4     5    10    1
     5    10    11    2
     6    10    12    1
     7    12    13    1
     8    13    14    2
     9     6    15    1
    10    14    15    1
    11     1    16    1
    12    13    17    1
    13     2     3   ar
    14     3     4   ar
    15     4     5   ar
    16     5     6   ar
    17     6     7   ar
    18     7     2   ar
