@<TRIPOS>MOLECULE
No_1150-gen_results/8p0m/2024-11-26-14-13-15/
 35 37 0 0 0
SMALL
GASTEIGER

@<TRIPOS>ATOM
      1 C         -28.0162   -0.8135   28.8779 C.ar    1  UNL1        0.0012
      2 C         -28.4690   -0.7850   29.8287 C.ar    1  UNL1       -0.0022
      3 C         -28.1960    0.3478   28.0550 C.ar    1  UNL1        0.0714
      4 C         -29.0191    1.3501   28.3782 C.ar    1  UNL1        0.0104
      5 C         -29.4107    0.1803   30.3782 C.ar    1  UNL1        0.0040
      6 C         -29.6059    1.2495   29.6193 C.ar    1  UNL1        0.0795
      7 C         -27.4478    0.3799   26.7122 C.3     1  UNL1        0.4186
      8 F         -26.3948   -0.3659   26.7282 F       1  UNL1       -0.1659
      9 F         -26.9979    1.6510   26.4073 F       1  UNL1       -0.1659
     10 F         -28.2459    0.0532   25.6706 F       1  UNL1       -0.1659
     11 C         -30.5442    2.3263   30.0555 C.2     1  UNL1        0.3877
     12 O         -30.1685    3.2120   30.7642 O.co2   1  UNL1       -0.2406
     13 O         -31.7196    2.2715   29.5087 O.co2   1  UNL1       -0.2406
     14 C         -28.2541   -2.0721   30.8191 C.3     1  UNL1        0.1192
     15 N         -27.5978   -3.0742   30.3681 N.pl3   1  UNL1       -0.2850
     16 C         -26.3532   -3.0204   29.8576 C.ar    1  UNL1        0.1337
     17 C         -25.4733   -1.9499   29.9220 C.ar    1  UNL1        0.0344
     18 N         -25.8466   -4.2475   29.4984 N.ar    1  UNL1       -0.2127
     19 C         -24.1562   -2.1454   29.4382 C.ar    1  UNL1        0.0053
     20 C         -24.6270   -4.4010   28.9480 C.ar    1  UNL1        0.1711
     21 N         -24.1767   -5.5235   28.4497 N.pl3   1  UNL1       -0.1072
     22 C         -23.6847   -3.2678   28.9083 C.ar    1  UNL1        0.0377
     23 C         -28.3156   -4.3286   30.4093 C.3     1  UNL1        0.1192
     24 C         -29.8492   -4.2621   30.4996 C.ar    1  UNL1       -0.0022
     25 C         -30.4703   -5.3530   30.1106 C.ar    1  UNL1       -0.0026
     26 C         -31.8540   -5.3016   29.9608 C.ar    1  UNL1       -0.0001
     27 C         -32.5434   -4.1491   30.3928 C.ar    1  UNL1        0.0066
     28 C         -31.8348   -3.0546   30.8657 C.ar    1  UNL1        0.0795
     29 C         -30.4636   -3.0788   30.9114 C.ar    1  UNL1        0.0040
     30 C         -32.6157   -1.8415   31.2611 C.2     1  UNL1        0.3877
     31 O         -33.0121   -1.1539   30.4449 O.co2   1  UNL1       -0.2406
     32 O         -32.3922   -1.4685   32.5117 O.co2   1  UNL1       -0.2406
     33 C         -23.2209   -0.9073   29.3988 C.2     1  UNL1       -0.0044
     34 C         -22.7913   -0.3487   30.3090 C.2     1  UNL1       -0.0258
     35 C         -22.0069    0.9303   30.2048 C.3     1  UNL1        0.0307
@<TRIPOS>BOND
     1     3     7    1
     2     7     8    1
     3     7     9    1
     4     7    10    1
     5     6    11    1
     6    11    12   ar
     7    11    13   ar
     8     2    14    1
     9    14    15    1
    10    15    16    1
    11    20    21    1
    12    15    23    1
    13    23    24    1
    14    28    30    1
    15    30    31   ar
    16    30    32   ar
    17    19    33    1
    18    33    34    2
    19    34    35    1
    20    24    25   ar
    21    25    26   ar
    22    26    27   ar
    23    27    28   ar
    24    28    29   ar
    25    29    24   ar
    26    16    17   ar
    27    17    19   ar
    28    19    22   ar
    29    22    20   ar
    30    20    18   ar
    31    18    16   ar
    32     1     2   ar
    33     2     5   ar
    34     5     6   ar
    35     6     4   ar
    36     4     3   ar
    37     3     1   ar
