@<TRIPOS>MOLECULE
No_1151-gen_results/8p0m/2024-11-26-14-13-15/
 16 17 0 0 0
SMALL
GASTEIGER

@<TRIPOS>ATOM
      1 C         -28.0162   -0.8135   28.8779 C.ar    1  UNL1        0.0813
      2 C         -27.0636   -0.1190   28.6079 C.ar    1  UNL1        0.0176
      3 C         -27.0010    0.6913   27.4910 C.ar    1  UNL1        0.0014
      4 C         -25.8548    1.4825   27.0830 C.ar    1  UNL1        0.0039
      5 C         -24.6901    1.4526   27.8807 C.ar    1  UNL1        0.0714
      6 C         -24.7379    0.6010   29.0416 C.ar    1  UNL1        0.0039
      7 C         -25.8234   -0.1688   29.3887 C.ar    1  UNL1        0.0014
      8 N         -27.9524   -1.6294   30.0643 N.ar    1  UNL1       -0.2438
      9 C         -29.0363   -2.3695   30.4865 C.ar    1  UNL1        0.0988
     10 C         -30.1919   -1.9598   29.9681 C.ar    1  UNL1        0.0207
     11 C         -30.3399   -1.0071   29.0541 C.ar    1  UNL1        0.0031
     12 C         -29.2574   -0.3633   28.6021 C.ar    1  UNL1        0.0191
     13 C         -23.5128    2.2121   27.5615 C.3     1  UNL1        0.4186
     14 F         -23.6230    2.9767   26.6604 F       1  UNL1       -0.1659
     15 F         -22.4218    1.3575   27.1960 F       1  UNL1       -0.1659
     16 F         -23.0696    2.8674   28.6496 F       1  UNL1       -0.1659
@<TRIPOS>BOND
     1     1     2    1
     2     5    13    1
     3    13    14    1
     4    13    15    1
     5    13    16    1
     6     2     3   ar
     7     3     4   ar
     8     4     5   ar
     9     5     6   ar
    10     6     7   ar
    11     7     2   ar
    12     1     8   ar
    13     8     9   ar
    14     9    10   ar
    15    10    11   ar
    16    11    12   ar
    17    12     1   ar
