@<TRIPOS>MOLECULE
No_1152-gen_results/8p0m/2024-11-26-14-13-15/
 13 14 0 0 0
SMALL
GASTEIGER

@<TRIPOS>ATOM
      1 C         -28.0162   -0.8135   28.8779 C.3     1  UNL1        0.0449
      2 C         -28.4690   -0.7850   29.8287 C.3     1  UNL1        0.0937
      3 C         -27.0871    0.2903   28.6377 C.ar    1  UNL1       -0.0233
      4 C         -26.9103    0.8486   27.4199 C.ar    1  UNL1       -0.0045
      5 N         -27.8904   -0.5560   31.0200 N.3     1  UNL1       -0.2129
      6 C         -25.8256    1.5951   27.1696 C.ar    1  UNL1       -0.0003
      7 C         -24.8456    1.9389   28.1846 C.ar    1  UNL1       -0.0003
      8 C         -25.0221    1.3337   29.4095 C.ar    1  UNL1       -0.0032
      9 C         -26.0684    0.4931   29.6090 C.ar    1  UNL1       -0.0087
     10 C         -26.7059    0.2777   30.9419 C.3     1  UNL1        0.1147
     11 C         -27.2926    0.2028   26.1916 C.2     1  UNL1       -0.0049
     12 C         -27.1014    0.7508   24.9384 C.2     1  UNL1       -0.0258
     13 C         -26.1293    1.7361   24.7979 C.3     1  UNL1        0.0307
@<TRIPOS>BOND
     1     1     2    1
     2     1     3    1
     3     2     5    1
     4     5    10    1
     5     9    10    1
     6     4    11    1
     7    11    12    2
     8    12    13    1
     9     3     4   ar
    10     4     6   ar
    11     6     7   ar
    12     7     8   ar
    13     8     9   ar
    14     9     3   ar
