@<TRIPOS>MOLECULE
No_1155-gen_results/8p0m/2024-11-26-14-13-15/
 18 19 0 0 0
SMALL
GASTEIGER

@<TRIPOS>ATOM
      1 C         -28.0162   -0.8135   28.8779 C.3     1  UNL1        0.0064
      2 C         -27.0636   -0.1189   28.6079 C.3     1  UNL1        0.0264
      3 C         -27.0010    0.6913   27.4910 C.ar    1  UNL1       -0.0222
      4 C         -27.1778    1.9037   27.5632 C.ar    1  UNL1       -0.0043
      5 C         -28.7446   -0.3657   29.8430 C.3     1  UNL1        0.0218
      6 C         -29.9480   -1.1049   30.1388 C.3     1  UNL1        0.0922
      7 C         -26.6424    0.0802   26.1997 C.ar    1  UNL1       -0.0043
      8 C         -26.7812    0.7477   24.9768 C.ar    1  UNL1       -0.0003
      9 C         -27.3184    2.7277   26.3302 C.ar    1  UNL1       -0.0003
     10 C         -26.9492    2.1452   25.0611 C.ar    1  UNL1       -0.0000
     11 N         -30.9121   -0.8073   29.3792 N.pl3   1  UNL1       -0.2915
     12 C         -30.9711    0.1483   28.6450 C.ar    1  UNL1        0.1317
     13 C         -32.0798   -1.7647   29.2921 C.3     1  UNL1        0.1136
     14 C         -31.9301    0.2474   27.5254 C.ar    1  UNL1        0.0343
     15 C         -32.0029    1.4085   26.8693 C.ar    1  UNL1        0.0045
     16 C         -31.1011    2.4435   27.1205 C.ar    1  UNL1        0.0208
     17 C         -30.3527    2.4406   28.2333 C.ar    1  UNL1        0.1003
     18 N         -30.2934    1.3129   28.8977 N.ar    1  UNL1       -0.2292
@<TRIPOS>BOND
     1     1     2    1
     2     2     3    1
     3     1     5    1
     4     5     6    1
     5     6    11    1
     6    11    12    1
     7    11    13    1
     8    12    14   ar
     9    14    15   ar
    10    15    16   ar
    11    16    17   ar
    12    17    18   ar
    13    18    12   ar
    14     3     4   ar
    15     4     9   ar
    16     9    10   ar
    17    10     8   ar
    18     8     7   ar
    19     7     3   ar
