@<TRIPOS>MOLECULE
No_1156-gen_results/8p0m/2024-11-26-14-13-15/
 18 20 0 0 0
SMALL
GASTEIGER

@<TRIPOS>ATOM
      1 O         -28.1229   -1.3353   28.4874 O.2     1  UNL1       -0.2699
      2 C         -27.4806   -0.4044   28.7094 C.2     1  UNL1        0.2493
      3 C         -26.3804   -0.0867   27.9394 C.ar    1  UNL1        0.0536
      4 N         -27.8993    0.6459   29.6321 N.am    1  UNL1       -0.2716
      5 C         -26.3190    0.9178   27.1016 C.ar    1  UNL1        0.0045
      6 C         -25.1519   -0.8370   28.1792 C.ar    1  UNL1        0.0045
      7 C         -25.1266    1.1744   26.2946 C.ar    1  UNL1        0.0001
      8 C         -23.8823   -0.4760   27.5957 C.ar    1  UNL1        0.0001
      9 C         -23.9475    0.5684   26.6281 C.ar    1  UNL1        0.0000
     10 C         -29.0765    0.3913   30.4223 C.3     1  UNL1        0.0987
     11 C         -27.1034    1.7507   29.9171 C.3     1  UNL1        0.1201
     12 C         -26.5352    1.7399   31.3010 C.ar    1  UNL1       -0.0062
     13 C         -25.5018    2.2628   31.7062 C.ar    1  UNL1       -0.0029
     14 C         -25.1025    2.3187   33.1068 C.ar    1  UNL1       -0.0003
     15 C         -26.0342    1.7741   33.9988 C.ar    1  UNL1       -0.0003
     16 C         -27.1581    1.1745   33.5691 C.ar    1  UNL1       -0.0045
     17 C         -27.4678    1.1921   32.2485 C.ar    1  UNL1       -0.0228
     18 C         -28.6476    0.4997   31.6833 C.3     1  UNL1        0.0476
@<TRIPOS>BOND
     1     1     2    2
     2     2     3    1
     3     2     4   am
     4     4    10    1
     5     4    11    1
     6    11    12    1
     7    17    18    1
     8    10    18    1
     9    12    13   ar
    10    13    14   ar
    11    14    15   ar
    12    15    16   ar
    13    16    17   ar
    14    17    12   ar
    15     3     5   ar
    16     5     7   ar
    17     7     9   ar
    18     9     8   ar
    19     8     6   ar
    20     6     3   ar
