@<TRIPOS>MOLECULE
No_1157-gen_results/8p0m/2024-11-26-14-13-15/
 13 14 0 0 0
SMALL
GASTEIGER

@<TRIPOS>ATOM
      1 C         -28.0162   -0.8135   28.8779 C.ar    1  UNL1       -0.0000
      2 C         -27.0636   -0.1190   28.6079 C.ar    1  UNL1       -0.0003
      3 C         -25.7923   -0.4302   29.0761 C.ar    1  UNL1       -0.0032
      4 C         -25.5756   -1.5654   29.9363 C.ar    1  UNL1       -0.0003
      5 C         -26.7354   -2.3004   30.2173 C.ar    1  UNL1       -0.0000
      6 C         -27.9184   -1.9537   29.7629 C.ar    1  UNL1       -0.0000
      7 C         -27.1057    1.1023   27.7593 C.ar    1  UNL1        0.0008
      8 C         -26.1219    1.4820   27.0232 C.ar    1  UNL1        0.0111
      9 C         -24.7142    1.1299   27.4889 C.ar    1  UNL1        0.0537
     10 C         -24.5718    0.0966   28.4066 C.ar    1  UNL1       -0.0116
     11 CL        -23.3496    1.8876   26.8200 Cl      1  UNL1       -0.0826
     12 C         -23.1878   -0.2508   28.8177 C.3     1  UNL1        0.0272
     13 C         -22.6458    0.4627   29.9667 C.3     1  UNL1        0.0050
@<TRIPOS>BOND
     1     9    11    1
     2    10    12    1
     3    12    13    1
     4     1     2   ar
     5     3     4   ar
     6     4     5   ar
     7     5     6   ar
     8     6     1   ar
     9     2     3   ar
    10     3    10   ar
    11    10     9   ar
    12     9     8   ar
    13     8     7   ar
    14     7     2   ar
