@<TRIPOS>MOLECULE
No_1158-gen_results/8p0m/2024-11-26-14-13-15/
 29 31 0 0 0
SMALL
GASTEIGER

@<TRIPOS>ATOM
      1 C         -28.0162   -0.8135   28.8779 C.ar    1  UNL1        0.0023
      2 C         -28.4690   -0.7850   29.8287 C.ar    1  UNL1        0.0795
      3 C         -26.5042   -0.7777   28.8766 C.ar    1  UNL1       -0.0220
      4 C         -25.8103   -0.8531   30.1028 C.ar    1  UNL1       -0.0040
      5 C         -27.9906   -0.8916   31.2257 C.ar    1  UNL1        0.0066
      6 C         -26.6042   -0.8676   31.2652 C.ar    1  UNL1       -0.0001
      7 C         -24.3894   -0.8049   30.1638 C.ar    1  UNL1       -0.0003
      8 C         -23.7660   -0.9500   31.0679 C.ar    1  UNL1       -0.0000
      9 C         -24.4866   -1.0287   32.3849 C.ar    1  UNL1       -0.0000
     10 C         -25.8375   -0.9259   32.4678 C.ar    1  UNL1       -0.0000
     11 C         -25.7169   -0.7014   27.6188 C.3     1  UNL1        0.0264
     12 C         -26.1210    0.2549   26.6497 C.3     1  UNL1        0.0051
     13 C         -25.8608    1.5431   26.7678 C.3     1  UNL1        0.0090
     14 C         -24.5632    1.9032   26.9983 C.3     1  UNL1        0.0734
     15 C         -23.8422    1.9164   28.2002 C.2     1  UNL1        0.2301
     16 CL        -24.6348    2.2936   29.5571 Cl      1  UNL1       -0.0428
     17 O         -22.5424    1.8223   28.2960 O.2     1  UNL1       -0.2788
     18 C         -23.6479    2.0447   25.7903 C.3     1  UNL1        0.0091
     19 C         -26.7637   -0.2723   25.4958 C.3     1  UNL1        0.0050
     20 C         -27.2370    0.6382   24.5339 C.3     1  UNL1        0.0264
     21 C         -30.1070   -0.7848   29.8257 C.2     1  UNL1        0.3877
     22 O         -30.7247   -1.5545   30.2010 O.co2   1  UNL1       -0.2406
     23 O         -30.5859    0.2837   29.1977 O.co2   1  UNL1       -0.2406
     24 C         -28.5826    1.0637   24.6489 C.ar    1  UNL1       -0.0222
     25 C         -29.4223    0.4173   25.2544 C.ar    1  UNL1       -0.0043
     26 C         -30.7885    0.8931   25.4603 C.ar    1  UNL1       -0.0003
     27 C         -31.1389    2.0623   24.8815 C.ar    1  UNL1       -0.0000
     28 C         -30.2640    2.7963   24.0477 C.ar    1  UNL1       -0.0003
     29 C         -28.9304    2.3426   23.9810 C.ar    1  UNL1       -0.0043
@<TRIPOS>BOND
     1     3    11    1
     2    11    12    1
     3    12    13    1
     4    13    14    1
     5    14    15    1
     6    15    16    1
     7    15    17    2
     8    14    18    1
     9    12    19    1
    10    19    20    1
    11     2    21    1
    12    21    22   ar
    13    21    23   ar
    14    20    24    1
    15     6    10   ar
    16    10     9   ar
    17     9     8   ar
    18     8     7   ar
    19     7     4   ar
    20    24    25   ar
    21    25    26   ar
    22    26    27   ar
    23    27    28   ar
    24    28    29   ar
    25    29    24   ar
    26     1     2   ar
    27     2     5   ar
    28     5     6   ar
    29     6     4   ar
    30     4     3   ar
    31     3     1   ar
