@<TRIPOS>MOLECULE
No_1159-gen_results/8p0m/2024-11-26-14-13-15/
 22 24 0 0 0
SMALL
GASTEIGER

@<TRIPOS>ATOM
      1 C         -28.0162   -0.8135   28.8779 C.ar    1  UNL1        0.0065
      2 C         -27.0636   -0.1189   28.6079 C.ar    1  UNL1        0.0002
      3 C         -25.7647   -0.3897   29.0360 C.ar    1  UNL1        0.0001
      4 C         -24.5516    0.4058   28.7646 C.ar    1  UNL1        0.0032
      5 C         -24.6957    1.4480   27.7988 C.ar    1  UNL1        0.0420
      6 C         -23.5821    2.2166   27.4626 C.ar    1  UNL1        0.1957
      7 C         -22.3295    1.8427   27.9660 C.ar    1  UNL1        0.0420
      8 C         -22.1809    0.8284   28.8814 C.ar    1  UNL1        0.0033
      9 C         -23.3190    0.0774   29.2471 C.ar    1  UNL1        0.0002
     10 C         -27.8976   -1.8938   29.8574 C.ar    1  UNL1        0.0760
     11 C         -26.6550   -2.3404   30.2745 C.ar    1  UNL1        0.0065
     12 C         -25.5323   -1.5588   29.9128 C.ar    1  UNL1        0.0002
     13 C         -29.0612   -2.7220   30.2437 C.2     1  UNL1        0.3457
     14 O         -28.9730   -3.9294   30.2753 O.2     1  UNL1       -0.2445
     15 O         -30.1309   -2.1619   30.6014 O.3     1  UNL1       -0.4210
     16 O         -23.6859    3.1863   26.5486 O.3     1  UNL1       -0.2866
     17 C         -30.3713   -1.0874   30.9207 C.ar    1  UNL1        0.1488
     18 C         -31.1928   -0.3717   30.1947 C.ar    1  UNL1        0.0376
     19 C         -31.3849    1.0584   30.4400 C.ar    1  UNL1        0.0031
     20 C         -30.7218    1.6311   31.5341 C.ar    1  UNL1        0.0002
     21 C         -29.8699    0.8472   32.3151 C.ar    1  UNL1        0.0031
     22 C         -29.6430   -0.4256   32.0046 C.ar    1  UNL1        0.0376
@<TRIPOS>BOND
     1     3     4    1
     2    10    13    1
     3    13    14    2
     4    13    15    1
     5     6    16    1
     6    15    17    1
     7    17    18   ar
     8    18    19   ar
     9    19    20   ar
    10    20    21   ar
    11    21    22   ar
    12    22    17   ar
    13     1     2   ar
    14     2     3   ar
    15     3    12   ar
    16    12    11   ar
    17    11    10   ar
    18    10     1   ar
    19     4     5   ar
    20     5     6   ar
    21     6     7   ar
    22     7     8   ar
    23     8     9   ar
    24     9     4   ar
