@<TRIPOS>MOLECULE
No_116-gen_results/8p0m/2024-11-26-14-13-15/
 12 12 0 0 0
SMALL
GASTEIGER

@<TRIPOS>ATOM
      1 C         -28.0162   -0.8135   28.8779 C.ar    1  UNL1        0.0013
      2 C         -27.0636   -0.1189   28.6079 C.ar    1  UNL1        0.0436
      3 C         -26.9716    0.7139   27.5060 C.ar    1  UNL1        0.0013
      4 C         -28.1053    0.7744   26.6421 C.ar    1  UNL1        0.0064
      5 C         -29.2008    0.1044   27.0527 C.ar    1  UNL1        0.0798
      6 C         -29.2096   -0.6029   28.1853 C.ar    1  UNL1        0.0064
      7 C         -30.3749    0.2232   26.1670 C.2     1  UNL1        0.3878
      8 O         -31.2461   -0.4191   26.3596 O.co2   1  UNL1       -0.2406
      9 O         -30.3342    0.9997   25.0922 O.co2   1  UNL1       -0.2406
     10 C         -25.6981   -0.2203   29.4310 C.3     1  UNL1        0.3410
     11 F         -25.4685    0.8075   30.0861 F       1  UNL1       -0.1933
     12 F         -24.9236   -1.0695   29.2502 F       1  UNL1       -0.1933
@<TRIPOS>BOND
     1     5     7    1
     2     7     8   ar
     3     7     9   ar
     4     2    10    1
     5    10    11    1
     6    10    12    1
     7     1     2   ar
     8     2     3   ar
     9     3     4   ar
    10     4     5   ar
    11     5     6   ar
    12     6     1   ar
