@<TRIPOS>MOLECULE
No_1160-gen_results/8p0m/2024-11-26-14-13-15/
 19 22 0 0 0
SMALL
GASTEIGER

@<TRIPOS>ATOM
      1 C         -28.0162   -0.8135   28.8779 C.ar    1  UNL1       -0.0003
      2 C         -28.4690   -0.7850   29.8287 C.ar    1  UNL1       -0.0003
      3 C         -26.5042   -0.7777   28.8766 C.ar    1  UNL1       -0.0045
      4 C         -25.8103   -0.8531   30.1028 C.ar    1  UNL1       -0.0235
      5 C         -27.9906   -0.8916   31.2257 C.ar    1  UNL1       -0.0029
      6 C         -24.3976   -0.8364   30.1775 C.3     1  UNL1        0.0372
      7 C         -26.5754   -0.8899   31.2661 C.ar    1  UNL1       -0.0063
      8 C         -23.7964    0.4357   29.9090 C.3     1  UNL1        0.0104
      9 C         -24.1689    1.5903   30.3140 C.3     1  UNL1        0.0280
     10 C         -25.1579    1.7018   31.3177 C.ar    1  UNL1       -0.0088
     11 C         -25.5671    3.0373   31.7790 C.ar    1  UNL1       -0.0030
     12 C         -26.2549    3.2476   32.9400 C.ar    1  UNL1       -0.0002
     13 C         -26.7276    2.0983   33.6253 C.ar    1  UNL1        0.0012
     14 C         -26.2362    0.8692   33.2736 C.ar    1  UNL1        0.0142
     15 C         -25.4300    0.7007   32.2230 C.ar    1  UNL1        0.0440
     16 N         -24.9183   -0.2956   32.0987 N.pl3   1  UNL1       -0.3035
     17 C         -25.8812   -0.9219   32.4224 C.3     1  UNL1        0.1174
     18 C         -24.0598   -1.2537   31.6326 C.3     1  UNL1        0.0950
     19 C         -23.8542   -2.0021   29.2830 C.3     1  UNL1        0.0061
@<TRIPOS>BOND
     1     4     6    1
     2     6     8    1
     3     8     9    1
     4    15    16    1
     5     7    17    1
     6    16    17    1
     7     6    18    1
     8    16    18    1
     9     6    19    1
    10     9    10    1
    11    10    11   ar
    12    11    12   ar
    13    12    13   ar
    14    13    14   ar
    15    14    15   ar
    16    15    10   ar
    17     1     2   ar
    18     2     5   ar
    19     5     7   ar
    20     7     4   ar
    21     4     3   ar
    22     3     1   ar
