@<TRIPOS>MOLECULE
No_1161-gen_results/8p0m/2024-11-26-14-13-15/
 24 25 0 0 0
SMALL
GASTEIGER

@<TRIPOS>ATOM
      1 C         -28.0162   -0.8135   28.8779 C.ar    1  UNL1        0.1414
      2 C         -27.0636   -0.1189   28.6079 C.ar    1  UNL1        0.0371
      3 C         -26.9716    0.7139   27.5060 C.ar    1  UNL1        0.0167
      4 C         -28.1053    0.7744   26.6421 C.ar    1  UNL1        0.0852
      5 C         -29.2008    0.1044   27.0527 C.ar    1  UNL1        0.1536
      6 C         -29.2096   -0.6029   28.1853 C.ar    1  UNL1        0.0674
      7 F         -30.3886    0.2163   26.4306 F       1  UNL1       -0.2032
      8 C         -25.7001   -0.2321   29.3790 C.ar    1  UNL1        0.0304
      9 C         -25.3495   -1.1305   29.9359 C.ar    1  UNL1        0.0023
     10 C         -24.0807   -1.2557   30.6763 C.ar    1  UNL1        0.0001
     11 C         -23.1889   -0.1877   30.6271 C.ar    1  UNL1        0.0023
     12 C         -23.5915    0.9551   29.8459 C.ar    1  UNL1        0.0296
     13 C         -24.8643    0.9837   29.1898 C.ar    1  UNL1        0.1402
     14 F         -25.0449    2.0318   28.4794 F       1  UNL1       -0.2042
     15 CL        -28.0551    1.7799   25.2623 Cl      1  UNL1       -0.0799
     16 O         -28.0797   -1.5948   29.9875 O.3     1  UNL1       -0.4693
     17 C         -28.8542   -1.3359   31.0247 C.3     1  UNL1        0.2554
     18 C         -30.1886   -1.4261   30.9564 C.3     1  UNL1        0.2297
     19 CL        -30.9802   -0.9334   31.3411 Cl      1  UNL1       -0.0985
     20 C         -30.2828   -3.0161   30.6742 C.2     1  UNL1        0.3834
     21 O         -30.9180   -3.5590   31.5650 O.co2   1  UNL1       -0.2441
     22 O         -30.0090   -3.5953   29.6266 O.co2   1  UNL1       -0.2441
     23 C         -28.2486   -1.9918   32.3020 C.2     1  UNL1        0.2525
     24 O         -28.4897   -1.3189   33.4320 O.2     1  UNL1       -0.2843
@<TRIPOS>BOND
     1     5     7    1
     2     2     8    1
     3    13    14    1
     4     4    15    1
     5     1    16    1
     6    16    17    1
     7    17    18    1
     8    18    19    1
     9    18    20    1
    10    20    21   ar
    11    20    22   ar
    12    17    23    1
    13    23    24    2
    14     1     2   ar
    15     2     3   ar
    16     3     4   ar
    17     4     5   ar
    18     5     6   ar
    19     6     1   ar
    20     8     9   ar
    21     9    10   ar
    22    10    11   ar
    23    11    12   ar
    24    12    13   ar
    25    13     8   ar
