@<TRIPOS>MOLECULE
No_1162-gen_results/8p0m/2024-11-26-14-13-15/
 21 24 0 0 0
SMALL
GASTEIGER

@<TRIPOS>ATOM
      1 C         -28.0162   -0.8135   28.8779 C.ar    1  UNL1        0.0366
      2 C         -28.4690   -0.7850   29.8287 C.ar    1  UNL1        0.0031
      3 C         -28.1960    0.3478   28.0550 C.ar    1  UNL1        0.1354
      4 C         -29.0191    1.3501   28.3782 C.ar    1  UNL1        0.0160
      5 C         -29.4107    0.1803   30.3782 C.ar    1  UNL1       -0.0001
      6 C         -29.6059    1.2495   29.6193 C.ar    1  UNL1       -0.0010
      7 O         -27.5003    0.3576   26.8164 O.3     1  UNL1       -0.4751
      8 C         -26.4976    1.3388   26.6595 C.3     1  UNL1        0.1661
      9 C         -25.2287    0.7278   26.6101 C.2     1  UNL1        0.0083
     10 C         -24.0880    1.5526   26.6229 C.2     1  UNL1       -0.0425
     11 C         -22.7905    1.0978   26.8973 C.3     1  UNL1        0.0484
     12 C         -21.7701    2.1256   27.0157 C.3     1  UNL1        0.1295
     13 N         -20.6380    1.7025   27.6823 N.2     1  UNL1       -0.2732
     14 C         -20.7860    0.4632   28.2769 C.2     1  UNL1        0.0671
     15 C         -22.4556    0.1539   27.9611 C.3     1  UNL1        0.0526
     16 C         -24.4220    2.8474   26.1625 C.3     1  UNL1        0.0265
     17 C         -26.7272    2.4161   27.5500 C.2     1  UNL1       -0.0045
     18 C         -26.8671    1.7900   25.1450 C.3     1  UNL1        0.0526
     19 C         -26.1613    3.2435   28.0919 C.2     1  UNL1       -0.0303
     20 C         -24.8289    3.6986   27.3885 C.3     1  UNL1        0.0298
     21 C         -28.2448    2.4652   28.0767 C.3     1  UNL1        0.0547
@<TRIPOS>BOND
     1     3     7    1
     2     7     8    1
     3     8     9    1
     4     9    10    2
     5    10    11    1
     6    11    12    1
     7    12    13    1
     8    13    14    2
     9    11    15    1
    10    14    15    1
    11    10    16    1
    12     8    17    1
    13     8    18    1
    14    17    19    2
    15    16    20    1
    16    19    20    1
    17     4    21    1
    18    17    21    1
    19     1     2   ar
    20     2     5   ar
    21     5     6   ar
    22     6     4   ar
    23     4     3   ar
    24     3     1   ar
