@<TRIPOS>MOLECULE
No_1163-gen_results/8p0m/2024-11-26-14-13-15/
 35 38 0 0 0
SMALL
GASTEIGER

@<TRIPOS>ATOM
      1 N         -28.0544   -1.0498   28.7246 N.am    1  UNL1       -0.1727
      2 C         -26.9659   -0.4722   28.7709 C.ar    1  UNL1        0.0738
      3 C         -26.5486    0.3876   27.8310 C.ar    1  UNL1        0.0166
      4 C         -25.2228    0.8526   27.7033 C.ar    1  UNL1        0.0013
      5 C         -24.2464    0.4683   28.6950 C.ar    1  UNL1        0.0001
      6 C         -24.6776   -0.4720   29.6743 C.ar    1  UNL1        0.0013
      7 C         -25.9469   -0.9734   29.7011 C.ar    1  UNL1        0.0166
      8 C         -28.6555   -1.3853   29.9530 C.2     1  UNL1        0.3097
      9 C         -29.9947   -1.8115   29.9331 C.2     1  UNL1        0.2690
     10 C         -30.3870   -2.8492   30.7235 C.2     1  UNL1        0.1400
     11 N         -29.9720   -3.8230   30.6624 N.2     1  UNL1       -0.2651
     12 C         -22.8859    0.9407   28.6429 C.ar    1  UNL1        0.0000
     13 C         -22.4707    1.7372   27.5397 C.ar    1  UNL1        0.0000
     14 C         -23.4275    2.2196   26.6345 C.ar    1  UNL1        0.0000
     15 C         -24.7906    1.7620   26.6909 C.ar    1  UNL1        0.0000
     16 O         -27.9518   -1.6842   31.0078 O.2     1  UNL1       -0.2644
     17 C         -29.9873   -4.6930   29.9937 C.3     1  UNL1        0.1303
     18 C         -31.0689   -4.7032   29.0932 C.3     1  UNL1        0.0526
     19 C         -31.1913   -5.9171   28.2132 C.ar    1  UNL1       -0.0202
     20 C         -31.8265   -6.9970   28.6977 C.ar    1  UNL1       -0.0045
     21 C         -31.9113   -8.1958   27.8333 C.ar    1  UNL1       -0.0043
     22 C         -31.3738   -8.1392   26.5366 C.ar    1  UNL1       -0.0181
     23 C         -30.7366   -6.9514   26.1201 C.ar    1  UNL1       -0.0043
     24 C         -30.6421   -5.8412   26.9031 C.ar    1  UNL1       -0.0045
     25 O         -30.8005   -1.1890   29.1314 O.2     1  UNL1       -0.2800
     26 C         -31.4298   -9.2702   25.6283 C.3     1  UNL1        0.0489
     27 C         -30.4568   -9.4107   24.7559 C.ar    1  UNL1       -0.0181
     28 C         -29.5808  -10.0043   24.7162 C.ar    1  UNL1       -0.0039
     29 C         -28.4925  -10.0582   23.6527 C.ar    1  UNL1       -0.0003
     30 C         -28.6010   -9.0595   22.6769 C.ar    1  UNL1       -0.0000
     31 C         -30.4402   -8.3643   23.6009 C.ar    1  UNL1       -0.0039
     32 C         -29.6050   -8.2586   22.6786 C.ar    1  UNL1       -0.0003
     33 C         -31.4603  -10.6868   26.2240 C.3     1  UNL1        0.0347
     34 C         -32.7570  -11.2254   26.0790 C.2     1  UNL1       -0.0255
     35 C         -32.8792  -12.5571   26.4246 C.2     1  UNL1       -0.0049
@<TRIPOS>BOND
     1     1     2    1
     2     1     8   am
     3     8     9    1
     4     9    10    1
     5    10    11    2
     6     8    16    2
     7    11    17    1
     8    17    18    1
     9    18    19    1
    10     9    25    2
    11    22    26    1
    12    26    27    1
    13    26    33    1
    14    33    34    1
    15    34    35    2
    16     2     3   ar
    17     3     4   ar
    18     5     6   ar
    19     6     7   ar
    20     7     2   ar
    21    27    28   ar
    22    28    29   ar
    23    29    30   ar
    24    30    32   ar
    25    32    31   ar
    26    31    27   ar
    27    19    20   ar
    28    20    21   ar
    29    21    22   ar
    30    22    23   ar
    31    23    24   ar
    32    24    19   ar
    33     4     5   ar
    34     5    12   ar
    35    12    13   ar
    36    13    14   ar
    37    14    15   ar
    38    15     4   ar
