@<TRIPOS>MOLECULE
No_1164-gen_results/8p0m/2024-11-26-14-13-15/
 20 22 0 0 0
SMALL
GASTEIGER

@<TRIPOS>ATOM
      1 C         -28.0162   -0.8135   28.8779 C.ar    1  UNL1       -0.0005
      2 C         -28.4690   -0.7850   29.8287 C.ar    1  UNL1        0.0233
      3 C         -26.5455   -0.8762   28.8500 C.ar    1  UNL1       -0.0002
      4 C         -25.8041   -1.0324   30.0571 C.ar    1  UNL1       -0.0000
      5 C         -27.9437   -0.9869   31.2075 C.ar    1  UNL1       -0.0005
      6 C         -26.5825   -1.0386   31.2231 C.ar    1  UNL1       -0.0002
      7 C         -30.0606   -0.7371   29.9024 C.3     1  UNL1        0.2356
      8 O         -30.7252   -1.5544   30.2697 O.3     1  UNL1       -0.1999
      9 N         -30.5286    0.5506   29.7350 N.3     1  UNL1       -0.2445
     10 C         -31.9373    0.7368   29.6672 C.3     1  UNL1        0.0789
     11 C         -29.6946    1.6909   29.3805 C.3     1  UNL1        0.0746
     12 C         -29.9003    2.1374   28.2573 C.3     1  UNL1        0.0178
     13 C         -32.2517    1.5147   28.4723 C.3     1  UNL1        0.0384
     14 C         -33.6503    1.7091   28.2061 C.ar    1  UNL1       -0.0212
     15 C         -31.2829    2.2935   27.8361 C.3     1  UNL1        0.0072
     16 C         -34.5412    1.4653   29.0076 C.ar    1  UNL1       -0.0042
     17 C         -35.9657    1.5484   28.6881 C.ar    1  UNL1       -0.0003
     18 C         -34.0219    1.4885   26.8832 C.ar    1  UNL1       -0.0042
     19 C         -35.3304    1.5792   26.4260 C.ar    1  UNL1       -0.0003
     20 C         -36.3001    1.5802   27.4049 C.ar    1  UNL1       -0.0000
@<TRIPOS>BOND
     1     2     7    1
     2     7     8    1
     3     7     9    1
     4     9    10    1
     5     9    11    1
     6    13    14    1
     7    12    15    1
     8    13    15    1
     9    10    13    1
    10    12    11    1
    11     1     2   ar
    12     2     5   ar
    13     5     6   ar
    14     6     4   ar
    15     4     3   ar
    16     3     1   ar
    17    14    16   ar
    18    16    17   ar
    19    17    20   ar
    20    20    19   ar
    21    19    18   ar
    22    18    14   ar
