@<TRIPOS>MOLECULE
No_1165-gen_results/8p0m/2024-11-26-14-13-15/
 13 14 0 0 0
SMALL
GASTEIGER

@<TRIPOS>ATOM
      1 C         -28.0162   -0.8135   28.8779 C.ar    1  UNL1        0.0375
      2 C         -27.0636   -0.1190   28.6079 C.ar    1  UNL1        0.1453
      3 C         -26.8756    1.1325   28.9134 C.ar    1  UNL1        0.0375
      4 C         -27.9014    1.8066   29.6436 C.ar    1  UNL1        0.0031
      5 C         -29.0458   -0.2316   29.7181 C.ar    1  UNL1        0.0031
      6 C         -28.9402    1.0517   30.0597 C.ar    1  UNL1        0.0002
      7 O         -25.9795   -0.6907   27.8753 O.3     1  UNL1       -0.4535
      8 C         -24.6270   -0.4702   28.3306 C.ar    1  UNL1        0.1453
      9 C         -23.9339    0.6221   27.7608 C.ar    1  UNL1        0.0375
     10 C         -22.6554    0.8293   28.1872 C.ar    1  UNL1        0.0031
     11 C         -21.9867   -0.1764   28.9667 C.ar    1  UNL1        0.0002
     12 C         -23.9734   -1.3765   29.1216 C.ar    1  UNL1        0.0375
     13 C         -22.6894   -1.2670   29.4289 C.ar    1  UNL1        0.0031
@<TRIPOS>BOND
     1     2     7    1
     2     7     8    1
     3     1     2   ar
     4     2     3   ar
     5     3     4   ar
     6     4     6   ar
     7     6     5   ar
     8     5     1   ar
     9     8     9   ar
    10     9    10   ar
    11    10    11   ar
    12    11    13   ar
    13    13    12   ar
    14    12     8   ar
