@<TRIPOS>MOLECULE
No_1167-gen_results/8p0m/2024-11-26-14-13-15/
 23 25 0 0 0
SMALL
GASTEIGER

@<TRIPOS>ATOM
      1 C         -28.0162   -0.8135   28.8779 C.ar    1  UNL1        0.0045
      2 C         -28.4690   -0.7850   29.8287 C.ar    1  UNL1        0.0536
      3 C         -26.5042   -0.7777   28.8766 C.ar    1  UNL1        0.0001
      4 C         -25.8103   -0.8531   30.1028 C.ar    1  UNL1       -0.0003
      5 C         -30.0136   -0.8410   29.8508 C.2     1  UNL1        0.2490
      6 C         -26.5670   -0.8850   31.2517 C.ar    1  UNL1        0.0001
      7 C         -27.9411   -0.9069   31.1850 C.ar    1  UNL1        0.0045
      8 O         -30.6563   -1.6921   30.1809 O.2     1  UNL1       -0.2699
      9 N         -30.6002    0.3117   29.2879 N.am    1  UNL1       -0.2756
     10 C         -32.0122    0.3629   29.1074 C.3     1  UNL1        0.1028
     11 C         -29.8375    1.4756   28.8674 C.3     1  UNL1        0.0937
     12 C         -30.0220    1.7941   27.6448 C.3     1  UNL1        0.0221
     13 C         -32.2950    0.9219   27.7777 C.3     1  UNL1        0.0980
     14 C         -33.6719    0.9100   27.3624 C.2     1  UNL1        0.2426
     15 C         -31.3499    1.6925   27.1020 C.3     1  UNL1        0.0126
     16 N         -34.5567    0.5810   28.0548 N.am    1  UNL1       -0.2035
     17 O         -33.9211    1.1925   26.1314 O.2     1  UNL1       -0.2733
     18 C         -35.7208    0.3921   27.9918 C.3     1  UNL1        0.1385
     19 C         -25.6446   -0.6756   27.6564 C.ar    1  UNL1       -0.0003
     20 C         -24.3370   -0.2220   27.7753 C.ar    1  UNL1       -0.0043
     21 C         -23.6811   -0.4576   29.0383 C.ar    1  UNL1       -0.0218
     22 C         -24.3952   -0.6478   30.1607 C.ar    1  UNL1       -0.0043
     23 C         -22.1986   -0.2282   29.0816 C.3     1  UNL1        0.0310
@<TRIPOS>BOND
     1     2     5    1
     2     5     8    2
     3     5     9   am
     4     9    10    1
     5     9    11    1
     6    10    13    1
     7    13    14    1
     8    12    15    1
     9    13    15    1
    10    14    16   am
    11    14    17    2
    12    16    18    1
    13    21    23    1
    14    12    11    1
    15     4    22   ar
    16    22    21   ar
    17    21    20   ar
    18    20    19   ar
    19    19     3   ar
    20     1     2   ar
    21     2     7   ar
    22     7     6   ar
    23     6     4   ar
    24     4     3   ar
    25     3     1   ar
