@<TRIPOS>MOLECULE
No_1168-gen_results/8p0m/2024-11-26-14-13-15/
 19 20 0 0 0
SMALL
GASTEIGER

@<TRIPOS>ATOM
      1 C         -28.0162   -0.8135   28.8779 C.ar    1  UNL1        0.0043
      2 C         -28.4690   -0.7850   29.8287 C.ar    1  UNL1        0.0554
      3 C         -26.5455   -0.8762   28.8500 C.ar    1  UNL1       -0.0030
      4 C         -25.8041   -1.0324   30.0571 C.ar    1  UNL1       -0.0089
      5 C         -27.9437   -0.9869   31.2075 C.ar    1  UNL1        0.0043
      6 C         -26.5825   -1.0386   31.2231 C.ar    1  UNL1       -0.0030
      7 C         -24.3810   -1.1082   30.0855 C.3     1  UNL1        0.0859
      8 CL        -23.4668    0.0564   29.5564 Cl      1  UNL1       -0.1118
      9 C         -23.8573   -2.4371   29.4254 C.3     1  UNL1        0.0208
     10 C         -23.9256   -1.4364   31.6397 C.3     1  UNL1        0.0208
     11 C         -30.0777   -0.6657   29.8529 C.2     1  UNL1        0.2690
     12 O         -30.5090   -0.2030   28.9256 O.2     1  UNL1       -0.2680
     13 N         -30.7913   -1.0518   30.9345 N.am    1  UNL1       -0.1754
     14 C         -32.2218   -0.9343   30.9289 C.ar    1  UNL1        0.0737
     15 C         -32.8912   -0.2408   30.4766 C.ar    1  UNL1        0.0166
     16 C         -34.3315   -0.1834   30.5269 C.ar    1  UNL1        0.0013
     17 C         -32.7778   -2.3119   30.9691 C.ar    1  UNL1        0.0166
     18 C         -34.1644   -2.4282   31.0083 C.ar    1  UNL1        0.0013
     19 C         -34.9122   -1.3603   30.7457 C.ar    1  UNL1        0.0001
@<TRIPOS>BOND
     1     4     7    1
     2     7     8    1
     3     7     9    1
     4     7    10    1
     5     2    11    1
     6    11    12    2
     7    11    13   am
     8    13    14    1
     9     1     2   ar
    10     2     5   ar
    11     5     6   ar
    12     6     4   ar
    13     4     3   ar
    14     3     1   ar
    15    14    15   ar
    16    15    16   ar
    17    16    19   ar
    18    19    18   ar
    19    18    17   ar
    20    17    14   ar
