@<TRIPOS>MOLECULE
No_1169-gen_results/8p0m/2024-11-26-14-13-15/
 14 14 0 0 0
SMALL
GASTEIGER

@<TRIPOS>ATOM
      1 C         -28.0162   -0.8135   28.8779 C.ar    1  UNL1        0.0115
      2 C         -27.0636   -0.1190   28.6079 C.ar    1  UNL1        0.0577
      3 C         -26.9287    1.1713   29.0083 C.ar    1  UNL1        0.0115
      4 C         -27.9560    1.7411   29.7840 C.ar    1  UNL1        0.0054
      5 C         -29.0569   -0.3271   29.7466 C.ar    1  UNL1        0.0054
      6 C         -28.9828    0.9722   30.1516 C.ar    1  UNL1        0.0554
      7 CL        -25.7352   -0.7297   27.6631 Cl      1  UNL1       -0.0822
      8 C         -30.0810    1.5109   31.0108 C.2     1  UNL1        0.2690
      9 N         -29.8155    2.4164   31.7831 N.am    1  UNL1       -0.1741
     10 O         -31.2030    0.9702   30.9013 O.2     1  UNL1       -0.2680
     11 C         -30.4495    3.0204   32.5876 C.2     1  UNL1        0.0886
     12 C         -30.0487    4.0290   33.3178 C.2     1  UNL1        0.0134
     13 C         -28.6750    4.5158   33.2035 C.2     1  UNL1       -0.0244
     14 C         -27.8548    3.7887   32.2756 C.3     1  UNL1        0.0307
@<TRIPOS>BOND
     1     2     7    1
     2     6     8    1
     3     8     9    1
     4     8    10    2
     5     9    11    2
     6    11    12    1
     7    12    13    2
     8    13    14    1
     9     1     2   ar
    10     2     3   ar
    11     3     4   ar
    12     4     6   ar
    13     6     5   ar
    14     5     1   ar
