@<TRIPOS>MOLECULE
No_117-gen_results/8p0m/2024-11-26-14-13-15/
 7 7 0 0 0
SMALL
GASTEIGER

@<TRIPOS>ATOM
      1 C         -28.0162   -0.8135   28.8779 C.ar    1  UNL1        0.1957
      2 C         -27.0636   -0.1189   28.6079 C.ar    1  UNL1        0.0420
      3 C         -27.0010    0.6913   27.4910 C.ar    1  UNL1        0.0033
      4 C         -28.1373    0.7363   26.6350 C.ar    1  UNL1        0.0002
      5 C         -29.2360    0.0765   27.0690 C.ar    1  UNL1        0.0033
      6 C         -29.2177   -0.6429   28.1747 C.ar    1  UNL1        0.0420
      7 O         -28.0326   -1.5744   30.0419 O.3     1  UNL1       -0.2866
@<TRIPOS>BOND
     1     1     7    1
     2     1     2   ar
     3     2     3   ar
     4     3     4   ar
     5     4     5   ar
     6     5     6   ar
     7     6     1   ar
