@<TRIPOS>MOLECULE
No_1170-gen_results/8p0m/2024-11-26-14-13-15/
 20 22 0 0 0
SMALL
GASTEIGER

@<TRIPOS>ATOM
      1 C         -28.0162   -0.8135   28.8779 C.3     1  UNL1        0.0041
      2 C         -28.4690   -0.7850   29.8287 C.3     1  UNL1        0.0447
      3 C         -27.0871    0.2903   28.6377 C.3     1  UNL1        0.0051
      4 C         -26.0239    0.3644   29.2526 C.3     1  UNL1        0.0298
      5 C         -26.2460    0.4334   30.7986 C.2     1  UNL1       -0.0303
      6 C         -29.5736   -1.6268   30.3318 C.3     1  UNL1        0.1713
      7 C         -27.2659    0.3800   31.1362 C.2     1  UNL1       -0.0284
      8 C         -28.1744   -0.6720   31.0312 C.3     1  UNL1        0.0545
      9 BR        -30.8219   -2.0008   29.1846 Br      1  UNL1       -0.0490
     10 O         -29.3147   -2.7702   31.2207 O.3     1  UNL1       -0.3445
     11 C         -28.9076   -1.3744   32.1799 C.3     1  UNL1        0.1476
     12 C         -24.6817    0.7088   28.7021 C.3     1  UNL1        0.0482
     13 C         -24.5393    1.4818   27.6950 C.ar    1  UNL1       -0.0181
     14 C         -25.1199    2.0839   27.0653 C.ar    1  UNL1       -0.0039
     15 C         -24.6084    2.9829   25.9661 C.ar    1  UNL1       -0.0003
     16 C         -23.3874    3.0686   25.8547 C.ar    1  UNL1       -0.0000
     17 C         -22.9362    1.7564   27.4400 C.ar    1  UNL1       -0.0039
     18 C         -22.4732    2.4993   26.6001 C.ar    1  UNL1       -0.0003
     19 C         -23.5823   -0.2521   29.2942 C.2     1  UNL1       -0.0218
     20 C         -22.6523    0.3022   30.0816 C.2     1  UNL1       -0.0046
@<TRIPOS>BOND
     1     1     2    1
     2     1     3    1
     3     3     4    1
     4     4     5    1
     5     2     6    1
     6     5     7    2
     7     2     8    1
     8     7     8    1
     9     6     9    1
    10     6    10    1
    11     8    11    1
    12    10    11    1
    13     4    12    1
    14    12    13    1
    15    12    19    1
    16    19    20    2
    17    13    14   ar
    18    14    15   ar
    19    15    16   ar
    20    16    18   ar
    21    18    17   ar
    22    17    13   ar
