@<TRIPOS>MOLECULE
No_1172-gen_results/8p0m/2024-11-26-14-13-15/
 35 37 0 0 0
SMALL
GASTEIGER

@<TRIPOS>ATOM
      1 C         -28.0162   -0.8135   28.8779 C.ar    1  UNL1        0.0024
      2 C         -28.4690   -0.7850   29.8287 C.ar    1  UNL1        0.0795
      3 C         -27.1356    0.2359   28.5352 C.ar    1  UNL1       -0.0192
      4 C         -26.8745    1.2825   29.3982 C.ar    1  UNL1        0.0312
      5 C         -27.5070    1.2380   30.6295 C.ar    1  UNL1        0.0027
      6 C         -28.3293    0.1745   30.9350 C.ar    1  UNL1        0.0066
      7 C         -26.4077    0.3070   27.2259 C.3     1  UNL1        0.0274
      8 C         -25.7128    1.4905   26.9212 C.3     1  UNL1        0.0216
      9 C         -25.4551    2.4911   27.8860 C.3     1  UNL1        0.1405
     10 C         -26.0927    2.4423   29.1084 C.2     1  UNL1        0.1811
     11 C         -24.6035    3.6472   27.4439 C.2     1  UNL1        0.2551
     12 N         -24.5146    4.6305   28.2356 N.am    1  UNL1       -0.1406
     13 O         -23.9940    3.6023   26.3236 O.2     1  UNL1       -0.2724
     14 C         -24.3672    6.0577   27.7631 C.2     1  UNL1        0.2713
     15 C         -25.0273    7.0829   28.5856 C.ar    1  UNL1        0.0557
     16 C         -24.5190    8.3465   28.4623 C.ar    1  UNL1        0.0046
     17 C         -24.8929    9.3987   29.3450 C.ar    1  UNL1        0.0004
     18 C         -25.9036    9.1038   30.2700 C.ar    1  UNL1        0.0064
     19 C         -26.4158    7.8475   30.3381 C.ar    1  UNL1        0.0758
     20 C         -25.9749    6.8238   29.5273 C.ar    1  UNL1        0.0110
     21 C         -27.4477    7.5162   31.3862 C.2     1  UNL1        0.3417
     22 O         -28.1751    6.6141   31.2973 O.2     1  UNL1       -0.2449
     23 O         -27.5112    8.3051   32.4660 O.3     1  UNL1       -0.4352
     24 C         -29.3710   -2.0426   30.3723 C.2     1  UNL1        0.3877
     25 O         -30.1022   -1.8994   31.1490 O.co2   1  UNL1       -0.2406
     26 O         -28.9577   -3.1676   29.9013 O.co2   1  UNL1       -0.2406
     27 O         -25.9490    3.3742   30.0254 O.2     1  UNL1       -0.2909
     28 O         -24.1810    6.2520   26.5756 O.2     1  UNL1       -0.2679
     29 C         -28.0780    7.9072   33.5614 C.3     1  UNL1        0.2948
     30 C         -29.3413    8.3177   33.7908 C.2     1  UNL1        0.2902
     31 O         -29.7019    9.2950   33.3268 O.2     1  UNL1       -0.2689
     32 N         -30.1878    7.5060   34.4985 N.am    1  UNL1       -0.1751
     33 C         -31.5977    7.8146   34.6975 C.2     1  UNL1        0.0842
     34 C         -32.3161    7.1383   35.1022 C.2     1  UNL1       -0.0079
     35 C         -33.8060    7.4368   35.2576 C.3     1  UNL1        0.0321
@<TRIPOS>BOND
     1     3     7    1
     2     8     9    1
     3     4    10    1
     4     9    10    1
     5     9    11    1
     6    11    12   am
     7    11    13    2
     8    12    14   am
     9    14    15    1
    10    19    21    1
    11    21    22    2
    12    21    23    1
    13     2    24    1
    14    24    25   ar
    15    24    26   ar
    16    10    27    2
    17    14    28    2
    18    23    29    1
    19    29    30    1
    20    30    31    2
    21    30    32   am
    22    32    33    1
    23    33    34    2
    24    34    35    1
    25     7     8    1
    26    15    16   ar
    27    16    17   ar
    28    17    18   ar
    29    18    19   ar
    30    19    20   ar
    31    20    15   ar
    32     1     2   ar
    33     2     6   ar
    34     6     5   ar
    35     5     4   ar
    36     4     3   ar
    37     3     1   ar
