@<TRIPOS>MOLECULE
No_1173-gen_results/8p0m/2024-11-26-14-13-15/
 31 33 0 0 0
SMALL
GASTEIGER

@<TRIPOS>ATOM
      1 C         -28.0162   -0.8135   28.8779 C.ar    1  UNL1        0.0103
      2 C         -28.4690   -0.7850   29.8287 C.ar    1  UNL1        0.0484
      3 C         -26.5455   -0.8762   28.8500 C.ar    1  UNL1       -0.0206
      4 C         -25.8041   -1.0324   30.0571 C.ar    1  UNL1       -0.0042
      5 C         -27.9437   -0.9869   31.2075 C.ar    1  UNL1        0.0145
      6 C         -26.5825   -1.0386   31.2231 C.ar    1  UNL1        0.0009
      7 N         -29.9648   -0.7353   29.8902 N.pl3   1  UNL1       -0.2952
      8 C         -30.7710   -1.5353   30.3549 C.3     1  UNL1        0.0920
      9 C         -32.1409   -1.3743   30.1446 C.3     1  UNL1        0.0216
     10 C         -30.5228    0.3286   29.1507 C.3     1  UNL1        0.1505
     11 N         -29.6793    1.2838   28.5648 N.3     1  UNL1       -0.1650
     12 C         -31.8430    0.4730   29.0513 C.3     1  UNL1        0.0382
     13 C         -32.6788   -0.3955   29.5169 C.3     1  UNL1        0.0050
     14 C         -29.4799    1.9536   27.7729 C.3     1  UNL1        0.2592
     15 C         -28.3671    2.7774   27.4698 C.ar    1  UNL1        0.0269
     16 F         -30.4787    1.9201   26.8613 F       1  UNL1       -0.2126
     17 C         -25.7061   -0.7554   27.6025 C.3     1  UNL1        0.0311
     18 C         -25.2886    0.6115   27.3053 C.3     1  UNL1        0.0307
     19 C         -25.2161    0.9955   26.0059 C.2     1  UNL1       -0.0258
     20 C         -25.7125    0.2187   24.9763 C.2     1  UNL1       -0.0049
     21 C         -26.7470   -0.2175   24.8034 C.2     1  UNL1       -0.0049
     22 C         -27.8789    0.2035   24.3501 C.2     1  UNL1       -0.0261
     23 C         -28.1053    1.6387   24.2221 C.3     1  UNL1        0.0260
     24 C         -29.3191    2.2254   23.7765 C.3     1  UNL1        0.0043
     25 C         -29.5311    3.5788   23.8374 C.3     1  UNL1        0.0003
     26 C         -28.1530    3.8325   26.7594 C.ar    1  UNL1       -0.0002
     27 C         -27.8586    4.9276   27.3522 C.ar    1  UNL1       -0.0002
     28 C         -26.9797    5.0456   28.4426 C.ar    1  UNL1       -0.0000
     29 C         -26.8643    3.8294   29.1945 C.ar    1  UNL1       -0.0002
     30 C         -27.6503    2.7279   28.7835 C.ar    1  UNL1       -0.0002
     31 C         -29.9821    1.4062   22.7637 C.3     1  UNL1        0.0003
@<TRIPOS>BOND
     1     2     7    1
     2     7     8    1
     3     7    10    1
     4    10    11    1
     5    10    12    1
     6     9    13    1
     7    12    13    1
     8    11    14    1
     9    14    16    1
    10     3    17    1
    11    17    18    1
    12    18    19    1
    13    19    20    2
    14    20    21    1
    15    21    22    2
    16    22    23    1
    17    23    24    1
    18    24    25    1
    19    24    31    1
    20    14    15    1
    21     8     9    1
    22    15    26   ar
    23    26    27   ar
    24    27    28   ar
    25    28    29   ar
    26    29    30   ar
    27    30    15   ar
    28     1     2   ar
    29     2     5   ar
    30     5     6   ar
    31     6     4   ar
    32     4     3   ar
    33     3     1   ar
