@<TRIPOS>MOLECULE
No_1174-gen_results/8p0m/2024-11-26-14-13-15/
 35 38 0 0 0
SMALL
GASTEIGER

@<TRIPOS>ATOM
      1 C         -28.0162   -0.8135   28.8779 C.ar    1  UNL1        0.0369
      2 C         -28.4690   -0.7850   29.8287 C.ar    1  UNL1        0.1385
      3 C         -27.0871    0.2903   28.6377 C.ar    1  UNL1        0.0038
      4 C         -26.2516    0.4114   27.4223 C.ar    1  UNL1        0.0002
      5 C         -28.3913    0.1041   30.9805 C.ar    1  UNL1        0.0369
      6 C         -27.5332    1.1666   30.7866 C.ar    1  UNL1        0.0040
      7 C         -26.8281    1.2557   29.6454 C.ar    1  UNL1        0.0108
      8 C         -25.6445    1.6653   27.2216 C.ar    1  UNL1        0.0009
      9 C         -25.3909    2.5603   28.2290 C.ar    1  UNL1        0.0114
     10 C         -26.0983    2.4436   29.4094 C.ar    1  UNL1        0.0576
     11 CL        -25.8425    3.6635   30.5860 Cl      1  UNL1       -0.0822
     12 O         -29.2994   -2.0189   29.9998 O.3     1  UNL1       -0.4763
     13 C         -29.5860   -2.4400   31.3625 C.3     1  UNL1        0.1970
     14 C         -29.0396   -3.6960   31.6644 C.3     1  UNL1        0.1555
     15 C         -28.4786   -4.3115   30.4882 C.3     1  UNL1        0.0359
     16 O         -29.9674   -4.6160   32.2645 O.3     1  UNL1       -0.3486
     17 C         -31.0639   -2.3491   31.5922 C.3     1  UNL1        0.0724
     18 C         -31.6869   -1.2057   31.1983 C.ar    1  UNL1       -0.0185
     19 C         -32.5159   -1.0746   30.4945 C.ar    1  UNL1       -0.0041
     20 C         -33.1350    0.2246   30.0481 C.ar    1  UNL1       -0.0003
     21 C         -32.5810    1.3764   30.5666 C.ar    1  UNL1       -0.0000
     22 C         -31.5594    1.2826   31.4728 C.ar    1  UNL1       -0.0003
     23 C         -31.1047    0.0628   31.8294 C.ar    1  UNL1       -0.0041
     24 C         -29.9663   -5.8737   31.8442 C.3     1  UNL1        0.1894
     25 C         -31.0276    2.5444   32.0792 C.ar    1  UNL1       -0.0000
     26 C         -30.6019    3.5830   31.3015 C.ar    1  UNL1       -0.0000
     27 C         -30.8240    2.5504   33.5029 C.ar    1  UNL1       -0.0000
     28 C         -31.0227    4.7497   31.5368 C.ar    1  UNL1       -0.0000
     29 C         -30.9838    3.9092   34.0088 C.ar    1  UNL1       -0.0000
     30 C         -31.4422    5.1423   32.5808 C.ar    1  UNL1        0.0000
     31 C         -31.2686   -6.3705   31.4397 C.3     1  UNL1        0.2374
     32 O         -31.2725   -7.3187   30.6403 O.2     1  UNL1       -0.4700
     33 C         -31.2289   -8.4806   30.7223 C.2     1  UNL1        0.1678
     34 C         -31.1477   -9.3396   29.5221 C.2     1  UNL1        0.0142
     35 C         -30.9487  -10.7561   29.5937 C.3     1  UNL1        0.0341
@<TRIPOS>BOND
     1    10    11    1
     2     2    12    1
     3    12    13    1
     4    13    14    1
     5    14    15    1
     6    14    16    1
     7    13    17    1
     8    17    18    1
     9    16    24    1
    10    22    25    1
    11    24    31    1
    12    31    32    1
    13    32    33    1
    14    33    34    2
    15    34    35    1
    16    18    19   ar
    17    19    20   ar
    18    20    21   ar
    19    21    22   ar
    20    22    23   ar
    21    23    18   ar
    22    25    26   ar
    23    26    28   ar
    24    28    30   ar
    25    30    29   ar
    26    29    27   ar
    27    27    25   ar
    28     1     2   ar
    29     2     5   ar
    30     5     6   ar
    31     6     7   ar
    32     3     1   ar
    33     3     4   ar
    34     4     8   ar
    35     8     9   ar
    36     9    10   ar
    37    10     7   ar
    38     7     3   ar
