@<TRIPOS>MOLECULE
No_1175-gen_results/8p0m/2024-11-26-14-13-15/
 14 15 0 0 0
SMALL
GASTEIGER

@<TRIPOS>ATOM
      1 C         -28.0162   -0.8135   28.8779 C.2     1  UNL1        0.0367
      2 C         -27.0636   -0.1190   28.6079 C.2     1  UNL1       -0.0384
      3 C         -26.9716    0.7139   27.5060 C.3     1  UNL1        0.0269
      4 C         -25.8205    1.4909   27.1160 C.3     1  UNL1        0.0304
      5 C         -24.8579    1.3421   27.6008 C.ar    1  UNL1       -0.0255
      6 C         -23.5687    2.1107   27.3209 C.ar    1  UNL1       -0.0046
      7 C         -22.3866    1.9588   28.0825 C.ar    1  UNL1       -0.0003
      8 C         -22.4117    0.9982   29.1111 C.ar    1  UNL1       -0.0003
      9 C         -23.5355    0.3332   29.4614 C.ar    1  UNL1       -0.0043
     10 C         -24.6529    0.4503   28.7642 C.ar    1  UNL1       -0.0221
     11 C         -25.7524   -0.2793   29.2070 C.3     1  UNL1        0.0478
     12 C         -28.0091   -1.3638   30.3062 C.3     1  UNL1        0.3403
     13 F         -26.8072   -1.8243   30.7668 F       1  UNL1       -0.1933
     14 F         -28.9523   -2.4283   30.4207 F       1  UNL1       -0.1933
@<TRIPOS>BOND
     1     1     2    2
     2     2     3    1
     3     3     4    1
     4     4     5    1
     5     2    11    1
     6    10    11    1
     7     1    12    1
     8    12    13    1
     9    12    14    1
    10     5     6   ar
    11     6     7   ar
    12     7     8   ar
    13     8     9   ar
    14     9    10   ar
    15    10     5   ar
