@<TRIPOS>MOLECULE
No_1176-gen_results/8p0m/2024-11-26-14-13-15/
 31 34 0 0 0
SMALL
GASTEIGER

@<TRIPOS>ATOM
      1 C         -28.0162   -0.8135   28.8779 C.ar    1  UNL1        0.0072
      2 C         -28.4690   -0.7850   29.8287 C.ar    1  UNL1        0.0003
      3 C         -28.1960    0.3478   28.0550 C.ar    1  UNL1        0.0795
      4 C         -27.4421    0.5100   26.7946 C.ar    1  UNL1        0.0023
      5 C         -26.1689   -0.0794   26.6787 C.ar    1  UNL1       -0.0216
      6 C         -25.7312   -0.9607   27.6875 C.ar    1  UNL1       -0.0034
      7 C         -26.5043   -1.2222   28.7582 C.ar    1  UNL1        0.0105
      8 C         -28.3432   -2.0040   30.7789 C.ar    1  UNL1        0.0009
      9 C         -27.1022   -2.6901   30.6797 C.ar    1  UNL1        0.0114
     10 C         -26.1200   -2.3552   29.6514 C.ar    1  UNL1        0.0576
     11 CL        -24.7812   -3.2569   29.4112 Cl      1  UNL1       -0.0822
     12 C         -29.5056    0.9851   27.9945 C.2     1  UNL1        0.3877
     13 O         -29.7416    1.9291   27.1707 O.co2   1  UNL1       -0.2406
     14 O         -30.3570    0.7181   28.8796 O.co2   1  UNL1       -0.2406
     15 C         -25.2907    0.2052   25.5797 C.3     1  UNL1        0.0310
     16 C         -24.5352    1.4333   25.5283 C.3     1  UNL1        0.0307
     17 C         -23.7326    1.8131   26.6020 C.ar    1  UNL1       -0.0255
     18 C         -22.4123    1.5978   26.6736 C.ar    1  UNL1       -0.0046
     19 C         -21.6738    1.9020   27.9336 C.ar    1  UNL1       -0.0003
     20 C         -24.3250    2.8137   27.5170 C.ar    1  UNL1       -0.0224
     21 C         -25.5679    3.3737   27.2765 C.3     1  UNL1        0.0443
     22 C         -22.4395    2.4851   28.9411 C.ar    1  UNL1       -0.0003
     23 C         -23.6913    3.0299   28.7741 C.ar    1  UNL1       -0.0043
     24 C         -25.8140    4.4461   26.5221 C.3     1  UNL1        0.0094
     25 C         -26.2518    3.7656   28.7406 C.ar    1  UNL1       -0.0188
     26 C         -27.5435    4.3444   28.6085 C.ar    1  UNL1       -0.0082
     27 C         -28.1360    4.5996   29.9046 C.ar    1  UNL1       -0.0222
     28 C         -29.3132    5.2509   29.9782 C.3     1  UNL1        0.0310
     29 C         -27.5508    3.9682   31.0414 C.ar    1  UNL1       -0.0043
     30 C         -26.3925    3.2236   31.0460 C.ar    1  UNL1       -0.0006
     31 C         -25.7593    3.1352   29.8714 C.ar    1  UNL1       -0.0040
@<TRIPOS>BOND
     1    10    11    1
     2     3    12    1
     3    12    13   ar
     4    12    14   ar
     5     5    15    1
     6    15    16    1
     7    16    17    1
     8    20    21    1
     9    21    24    1
    10    21    25    1
    11    28    27    1
    12    25    26   ar
    13    26    27   ar
    14    27    29   ar
    15    29    30   ar
    16    30    31   ar
    17    31    25   ar
    18     1     2   ar
    19     2     8   ar
    20     8     9   ar
    21     9    10   ar
    22    10     7   ar
    23    17    18   ar
    24    18    19   ar
    25    19    22   ar
    26    22    23   ar
    27    23    20   ar
    28    20    17   ar
    29     1     3   ar
    30     3     4   ar
    31     4     5   ar
    32     5     6   ar
    33     6     7   ar
    34     7     1   ar
