@<TRIPOS>MOLECULE
No_1177-gen_results/8p0m/2024-11-26-14-13-15/
 14 15 0 0 0
SMALL
GASTEIGER

@<TRIPOS>ATOM
      1 C         -28.0162   -0.8135   28.8779 C.ar    1  UNL1       -0.0000
      2 C         -28.4690   -0.7850   29.8287 C.ar    1  UNL1       -0.0000
      3 C         -27.1356    0.2359   28.5352 C.ar    1  UNL1       -0.0000
      4 C         -26.3351    0.2900   27.2835 C.ar    1  UNL1       -0.0001
      5 C         -28.3692    0.1957   30.9236 C.ar    1  UNL1       -0.0000
      6 C         -27.5158    1.2655   30.6540 C.ar    1  UNL1       -0.0000
      7 C         -26.8411    1.2942   29.4761 C.ar    1  UNL1       -0.0001
      8 C         -25.3613    0.7751   26.9672 C.ar    1  UNL1        0.0039
      9 C         -24.8303    1.7670   28.0167 C.ar    1  UNL1        0.0714
     10 C         -23.5894    2.5261   27.8396 C.3     1  UNL1        0.4186
     11 C         -25.5947    1.9375   29.2524 C.ar    1  UNL1        0.0039
     12 F         -23.2094    2.6614   26.6559 F       1  UNL1       -0.1659
     13 F         -22.5180    1.6829   28.3091 F       1  UNL1       -0.1659
     14 F         -23.4964    3.6985   28.3912 F       1  UNL1       -0.1659
@<TRIPOS>BOND
     1     9    10    1
     2    10    12    1
     3    10    13    1
     4    10    14    1
     5     3     4   ar
     6     4     8   ar
     7     8     9   ar
     8     9    11   ar
     9    11     7   ar
    10     1     2   ar
    11     2     5   ar
    12     5     6   ar
    13     6     7   ar
    14     7     3   ar
    15     3     1   ar
