@<TRIPOS>MOLECULE
No_1179-gen_results/8p0m/2024-11-26-14-13-15/
 32 35 0 0 0
SMALL
GASTEIGER

@<TRIPOS>ATOM
      1 C         -28.0162   -0.8135   28.8779 C.ar    1  UNL1        0.0064
      2 C         -27.0636   -0.1189   28.6079 C.ar    1  UNL1        0.0002
      3 C         -25.7923   -0.4302   29.0761 C.ar    1  UNL1        0.0001
      4 C         -24.5456    0.3494   28.8225 C.ar    1  UNL1        0.0022
      5 C         -23.2409    0.0217   29.3323 C.ar    1  UNL1        0.0001
      6 C         -27.8820   -1.8995   29.8633 C.ar    1  UNL1        0.0757
      7 C         -26.6706   -2.3272   30.3212 C.ar    1  UNL1        0.0064
      8 C         -25.5433   -1.5852   29.9316 C.ar    1  UNL1        0.0002
      9 C         -22.1918    0.8302   29.0004 C.ar    1  UNL1        0.0023
     10 C         -22.1472    1.7783   28.0287 C.ar    1  UNL1        0.0296
     11 C         -24.5322    1.3987   27.8163 C.ar    1  UNL1        0.0296
     12 C         -23.3620    2.0694   27.4607 C.ar    1  UNL1        0.1401
     13 C         -29.0683   -2.7198   30.2979 C.2     1  UNL1        0.3419
     14 O         -29.0092   -3.9279   30.2794 O.2     1  UNL1       -0.2449
     15 O         -30.1092   -2.1305   30.7127 O.3     1  UNL1       -0.4328
     16 F         -23.4848    3.0107   26.5149 F       1  UNL1       -0.2042
     17 C         -31.0648   -2.5372   31.2379 C.3     1  UNL1        0.2932
     18 C         -32.1846   -2.9245   30.5103 C.ar    1  UNL1        0.0285
     19 C         -32.7785   -3.9492   30.6471 C.ar    1  UNL1       -0.0003
     20 C         -32.5407   -2.0162   29.4066 C.ar    1  UNL1       -0.0003
     21 C         -33.5083   -2.3790   28.4764 C.ar    1  UNL1       -0.0002
     22 C         -33.8855   -4.3848   29.7390 C.ar    1  UNL1       -0.0002
     23 C         -34.2461   -3.5253   28.7075 C.ar    1  UNL1       -0.0000
     24 C         -33.8931   -1.4657   27.3934 C.ar    1  UNL1       -0.0000
     25 C         -34.0193   -0.2049   27.6600 C.ar    1  UNL1       -0.0000
     26 C         -34.2261    0.7572   26.5862 C.ar    1  UNL1       -0.0000
     27 C         -34.3338    0.2264   25.3001 C.ar    1  UNL1        0.0000
     28 C         -33.9054   -1.9039   26.0928 C.ar    1  UNL1       -0.0000
     29 C         -34.1478   -1.0875   25.0444 C.ar    1  UNL1       -0.0000
     30 C         -31.5031   -1.4487   32.3491 C.2     1  UNL1        0.4085
     31 O         -30.7641   -0.9939   33.0492 O.co2   1  UNL1       -0.2412
     32 O         -32.7735   -1.1477   32.3978 O.co2   1  UNL1       -0.2412
@<TRIPOS>BOND
     1     3     4    1
     2     6    13    1
     3    13    14    2
     4    13    15    1
     5    12    16    1
     6    15    17    1
     7    17    18    1
     8    21    24    1
     9    17    30    1
    10    30    31   ar
    11    30    32   ar
    12    18    19   ar
    13    19    22   ar
    14    22    23   ar
    15    23    21   ar
    16    21    20   ar
    17    20    18   ar
    18     1     2   ar
    19     2     3   ar
    20     3     8   ar
    21     8     7   ar
    22     7     6   ar
    23     6     1   ar
    24    24    25   ar
    25    25    26   ar
    26    26    27   ar
    27    27    29   ar
    28    29    28   ar
    29    28    24   ar
    30     4     5   ar
    31     5     9   ar
    32     9    10   ar
    33    10    12   ar
    34    12    11   ar
    35    11     4   ar
