@<TRIPOS>MOLECULE
No_1180-gen_results/8p0m/2024-11-26-14-13-15/
 16 17 0 0 0
SMALL
GASTEIGER

@<TRIPOS>ATOM
      1 C         -28.0162   -0.8135   28.8779 C.ar    1  UNL1        0.0298
      2 C         -28.4690   -0.7850   29.8287 C.ar    1  UNL1        0.0068
      3 C         -27.1356    0.2359   28.5352 C.ar    1  UNL1        0.1401
      4 C         -26.8745    1.2825   29.3982 C.ar    1  UNL1        0.0298
      5 C         -28.3613    0.1987   30.9244 C.ar    1  UNL1        0.0537
      6 C         -27.5277    1.2234   30.6356 C.ar    1  UNL1        0.0068
      7 F         -26.4877    0.2566   27.3533 F       1  UNL1       -0.2042
      8 C         -29.0652    0.1000   32.2285 C.2     1  UNL1        0.2490
      9 N         -30.1343    0.3094   32.3398 N.am    1  UNL1       -0.2759
     10 C         -30.8701    1.0881   31.6399 C.3     1  UNL1        0.0963
     11 C         -32.2958    1.2391   31.9891 C.3     1  UNL1        0.0544
     12 C         -30.9000   -0.3882   33.4368 C.3     1  UNL1        0.0963
     13 C         -32.2107   -0.2388   33.7142 C.3     1  UNL1        0.0544
     14 C         -32.9004    0.6634   32.9613 C.3     1  UNL1        0.1554
     15 O         -28.1798   -0.3093   33.1353 O.2     1  UNL1       -0.2699
     16 O         -34.1976    0.9199   33.1492 O.3     1  UNL1       -0.2230
@<TRIPOS>BOND
     1     3     7    1
     2     5     8    1
     3     8     9   am
     4     9    10    1
     5     9    12    1
     6    11    14    1
     7    13    14    1
     8     8    15    2
     9    14    16    1
    10    10    11    1
    11    13    12    1
    12     1     2   ar
    13     2     5   ar
    14     5     6   ar
    15     6     4   ar
    16     4     3   ar
    17     3     1   ar
