@<TRIPOS>MOLECULE
No_1181-gen_results/8p0m/2024-11-26-14-13-15/
 13 13 0 0 0
SMALL
GASTEIGER

@<TRIPOS>ATOM
      1 C         -28.0162   -0.8135   28.8779 C.ar    1  UNL1        0.0738
      2 C         -27.0636   -0.1189   28.6079 C.ar    1  UNL1        0.1418
      3 C         -25.7923   -0.4302   29.0761 C.ar    1  UNL1        0.0371
      4 C         -25.5756   -1.5654   29.9363 C.ar    1  UNL1        0.0062
      5 C         -26.7354   -2.3004   30.2173 C.ar    1  UNL1        0.0371
      6 C         -27.9184   -1.9537   29.7629 C.ar    1  UNL1        0.1421
      7 O         -27.1229    1.0229   27.8500 O.3     1  UNL1       -0.4713
      8 C         -26.9383    0.9505   26.5269 C.3     1  UNL1        0.2525
      9 O         -28.9766   -2.7191   30.1466 O.3     1  UNL1       -0.4709
     10 C         -30.1279   -2.1453   30.5437 C.3     1  UNL1        0.2278
     11 C         -30.6406   -2.7994   31.6556 C.2     1  UNL1       -0.0007
     12 C         -31.7919   -2.2428   32.1418 C.2     1  UNL1       -0.0055
     13 C         -30.8572   -4.2847   31.5275 C.3     1  UNL1        0.0301
@<TRIPOS>BOND
     1     2     7    1
     2     7     8    1
     3     6     9    1
     4     9    10    1
     5    10    11    1
     6    11    12    2
     7    11    13    1
     8     1     2   ar
     9     2     3   ar
    10     3     4   ar
    11     4     5   ar
    12     5     6   ar
    13     6     1   ar
