@<TRIPOS>MOLECULE
No_1182-gen_results/8p0m/2024-11-26-14-13-15/
 6 5 0 0 0
SMALL
GASTEIGER

@<TRIPOS>ATOM
      1 O         -28.1229   -1.3353   28.4874 O.2     1  UNL1       -0.2788
      2 C         -27.4806   -0.4044   28.7094 C.2     1  UNL1        0.2306
      3 C         -27.1904    0.2460   29.5268 C.3     1  UNL1        0.0815
      4 CL        -26.5190    0.0582   27.0894 Cl      1  UNL1       -0.0428
      5 C         -26.2256    1.3192   29.6848 C.3     1  UNL1        0.0091
      6 C         -25.5867    1.7106   28.5036 C.3     1  UNL1        0.0005
@<TRIPOS>BOND
     1     1     2    2
     2     2     3    1
     3     2     4    1
     4     3     5    1
     5     5     6    1
