@<TRIPOS>MOLECULE
No_1184-gen_results/8p0m/2024-11-26-14-13-15/
 20 20 0 0 0
SMALL
GASTEIGER

@<TRIPOS>ATOM
      1 CL        -28.1493   -0.8198   28.9079 Cl      1  UNL1       -0.0767
      2 C         -26.9116   -0.0797   28.9452 C.ar    1  UNL1        0.1206
      3 C         -25.9665   -0.2123   29.6235 C.ar    1  UNL1        0.1685
      4 C         -24.7040    0.5534   29.6218 C.ar    1  UNL1        0.1266
      5 C         -24.6011    1.5437   28.6212 C.ar    1  UNL1        0.0798
      6 C         -25.6671    1.7162   27.8026 C.ar    1  UNL1        0.0968
      7 C         -26.7607    0.9618   27.8836 C.ar    1  UNL1        0.1649
      8 CL        -23.1653    2.4583   28.5574 Cl      1  UNL1       -0.0810
      9 F         -27.7591    1.1618   27.0358 F       1  UNL1       -0.2023
     10 C         -23.5579    0.3260   30.5598 C.2     1  UNL1        0.3916
     11 O         -23.5150   -0.4152   31.4122 O.co2   1  UNL1       -0.2404
     12 O         -22.4472    1.0713   30.3512 O.co2   1  UNL1       -0.2404
     13 CL        -25.5173    2.9474   26.5892 Cl      1  UNL1       -0.0790
     14 O         -25.9081   -1.1966   30.6089 O.3     1  UNL1       -0.4171
     15 C         -25.8699   -2.4693   30.0737 C.2     1  UNL1        0.4184
     16 C         -27.1522   -3.2625   30.1878 C.3     1  UNL1        0.4915
     17 F         -28.0640   -2.6744   30.6933 F       1  UNL1       -0.1606
     18 F         -26.7693   -4.3923   30.9671 F       1  UNL1       -0.1606
     19 F         -27.4415   -3.7228   28.9847 F       1  UNL1       -0.1606
     20 O         -24.7844   -2.8986   29.6274 O.2     1  UNL1       -0.2402
@<TRIPOS>BOND
     1     1     2    1
     2     5     8    1
     3     7     9    1
     4     4    10    1
     5    10    11   ar
     6    10    12   ar
     7     6    13    1
     8     3    14    1
     9    14    15    1
    10    15    16    1
    11    16    17    1
    12    16    18    1
    13    16    19    1
    14    15    20    2
    15     2     3   ar
    16     3     4   ar
    17     4     5   ar
    18     5     6   ar
    19     6     7   ar
    20     7     2   ar
