@<TRIPOS>MOLECULE
No_1186-gen_results/8p0m/2024-11-26-14-13-15/
 31 33 0 0 0
SMALL
GASTEIGER

@<TRIPOS>ATOM
      1 C         -28.0162   -0.8135   28.8779 C.ar    1  UNL1        0.0007
      2 C         -28.4690   -0.7850   29.8287 C.ar    1  UNL1        0.0581
      3 C         -28.1960    0.3478   28.0550 C.ar    1  UNL1       -0.0174
      4 C         -29.0191    1.3501   28.3782 C.ar    1  UNL1       -0.0039
      5 C         -29.4107    0.1803   30.3782 C.ar    1  UNL1        0.0047
      6 C         -29.6059    1.2495   29.6193 C.ar    1  UNL1       -0.0002
      7 C         -27.4597    0.3802   26.7091 C.3     1  UNL1        0.0559
      8 C         -26.0094    0.3317   26.7236 C.ar    1  UNL1       -0.0179
      9 C         -25.2816    0.9146   25.7613 C.ar    1  UNL1       -0.0039
     10 C         -23.8913    0.9368   25.8455 C.ar    1  UNL1       -0.0006
     11 C         -23.2583    0.7193   27.0802 C.ar    1  UNL1       -0.0040
     12 C         -24.0388    0.2729   28.1602 C.ar    1  UNL1       -0.0193
     13 C         -25.3870    0.1168   28.0286 C.ar    1  UNL1       -0.0079
     14 C         -28.1670    0.3265   25.5269 C.3     1  UNL1        0.0763
     15 BR        -28.7958    0.8806   24.8294 Br      1  UNL1       -0.0801
     16 C         -23.3378    0.0563   29.4607 C.3     1  UNL1        0.0377
     17 C         -23.0691   -1.2018   29.6467 C.3     1  UNL1        0.0088
     18 C         -24.1194    0.5534   30.6419 C.ar    1  UNL1       -0.0188
     19 C         -21.9850    0.9137   29.4311 C.3     1  UNL1        0.0088
     20 C         -24.5854   -0.1372   31.6354 C.ar    1  UNL1       -0.0040
     21 C         -25.3624    0.3582   32.6577 C.ar    1  UNL1       -0.0001
     22 C         -25.6679    1.7608   32.6440 C.ar    1  UNL1        0.0066
     23 C         -25.2152    2.5809   31.6057 C.ar    1  UNL1        0.0795
     24 C         -24.4062    2.0411   30.6210 C.ar    1  UNL1        0.0026
     25 C         -25.5098    4.0028   31.6950 C.2     1  UNL1        0.3877
     26 O         -25.5816    4.6877   30.7826 O.co2   1  UNL1       -0.2406
     27 O         -25.4497    4.5923   32.9394 O.co2   1  UNL1       -0.2406
     28 C         -28.2930   -2.0099   30.8707 C.2     1  UNL1        0.3064
     29 N         -27.3562   -2.7386   30.6215 N.am    1  UNL1        0.0431
     30 O         -29.1026   -2.1881   31.7826 O.2     1  UNL1       -0.2648
     31 O         -26.3503   -2.6116   29.7972 O.2     1  UNL1       -0.1528
@<TRIPOS>BOND
     1     3     7    1
     2     7     8    1
     3     7    14    1
     4    14    15    1
     5    12    16    1
     6    16    17    1
     7    16    18    1
     8    16    19    1
     9    23    25    1
    10    25    26   ar
    11    25    27   ar
    12     2    28    1
    13    28    29    1
    14    28    30    2
    15    29    31    2
    16    18    20   ar
    17    20    21   ar
    18    21    22   ar
    19    22    23   ar
    20    23    24   ar
    21    24    18   ar
    22     8     9   ar
    23     9    10   ar
    24    10    11   ar
    25    11    12   ar
    26    12    13   ar
    27    13     8   ar
    28     1     2   ar
    29     2     5   ar
    30     5     6   ar
    31     6     4   ar
    32     4     3   ar
    33     3     1   ar
