@<TRIPOS>MOLECULE
No_1188-gen_results/8p0m/2024-11-26-14-13-15/
 16 18 0 0 0
SMALL
GASTEIGER

@<TRIPOS>ATOM
      1 C         -28.0162   -0.8135   28.8779 C.ar    1  UNL1        0.0009
      2 C         -27.0636   -0.1189   28.6079 C.ar    1  UNL1       -0.0003
      3 C         -25.7923   -0.4302   29.0761 C.ar    1  UNL1       -0.0041
      4 C         -24.5456    0.3494   28.8225 C.ar    1  UNL1       -0.0160
      5 C         -24.6586    1.4196   27.8878 C.ar    1  UNL1        0.0511
      6 C         -25.9471    1.6811   27.3792 C.ar    1  UNL1        0.0043
      7 C         -27.0439    0.9739   27.6871 C.ar    1  UNL1        0.0010
      8 C         -29.2364   -0.0611   29.2668 C.ar    1  UNL1        0.0114
      9 C         -29.4997    0.9915   28.3427 C.ar    1  UNL1        0.0577
     10 C         -28.3797    1.6784   27.7428 C.ar    1  UNL1        0.0114
     11 C         -23.4303    2.0858   27.4977 C.2     1  UNL1        0.2645
     12 N         -22.2453    1.6928   28.0304 N.am    1  UNL1       -0.2013
     13 C         -22.1489    0.6728   28.8903 C.3     1  UNL1        0.1201
     14 C         -23.2704   -0.0865   29.2817 C.3     1  UNL1        0.0499
     15 O         -23.4346    3.1040   26.7533 O.2     1  UNL1       -0.2684
     16 CL        -31.0387    1.7010   28.2279 Cl      1  UNL1       -0.0822
@<TRIPOS>BOND
     1     5    11    1
     2    11    12   am
     3     4    14    1
     4    13    14    1
     5    11    15    2
     6     9    16    1
     7    13    12    1
     8     2     3   ar
     9     3     4   ar
    10     4     5   ar
    11     5     6   ar
    12     6     7   ar
    13     1     2   ar
    14     2     7   ar
    15     7    10   ar
    16    10     9   ar
    17     9     8   ar
    18     8     1   ar
