@<TRIPOS>MOLECULE
No_1189-gen_results/8p0m/2024-11-26-14-13-15/
 22 24 0 0 0
SMALL
GASTEIGER

@<TRIPOS>ATOM
      1 C         -28.0162   -0.8135   28.8779 C.ar    1  UNL1        0.0715
      2 C         -27.0636   -0.1190   28.6079 C.ar    1  UNL1        0.0425
      3 C         -27.0010    0.6913   27.4910 C.ar    1  UNL1        0.1415
      4 C         -25.8548    1.4825   27.0830 C.ar    1  UNL1        0.0343
      5 C         -24.6901    1.4526   27.8807 C.ar    1  UNL1        0.0589
      6 C         -24.7379    0.6010   29.0416 C.ar    1  UNL1        0.0048
      7 C         -25.8234   -0.1688   29.3887 C.ar    1  UNL1        0.0035
      8 N         -29.2150   -0.1726   29.0132 N.am    1  UNL1       -0.1792
      9 C         -30.2463   -0.7736   29.6388 C.2     1  UNL1        0.2495
     10 C         -23.5190    2.2034   27.5550 C.2     1  UNL1        0.2842
     11 N         -23.4334    2.7576   26.3383 N.am    1  UNL1       -0.0837
     12 O         -22.3302    1.8517   28.0163 O.2     1  UNL1       -0.2667
     13 C         -29.9978   -1.9394   30.3222 C.3     1  UNL1        0.1045
     14 C         -29.0719   -2.1719   30.6438 C.3     1  UNL1        0.0412
     15 C         -27.7664   -1.7429   30.0337 C.ar    1  UNL1       -0.0060
     16 O         -31.4411   -0.3061   29.3823 O.2     1  UNL1       -0.2726
     17 C         -26.4907   -2.1981   30.3183 C.ar    1  UNL1       -0.0030
     18 C         -25.5372   -1.2281   30.2568 C.ar    1  UNL1       -0.0002
     19 F         -28.0294    0.7920   26.7403 F       1  UNL1       -0.2041
     20 C         -31.2752   -2.5990   30.8967 C.2     1  UNL1       -0.0215
     21 C         -31.0644   -3.6545   31.5552 C.2     1  UNL1       -0.0299
     22 C         -29.7172   -4.0969   31.9786 C.3     1  UNL1        0.0304
@<TRIPOS>BOND
     1     1     8    1
     2     8     9   am
     3     5    10    1
     4    10    11   am
     5    10    12    2
     6     9    13    1
     7    14    15    1
     8     9    16    2
     9     3    19    1
    10    13    20    1
    11    20    21    2
    12    21    22    1
    13    14    13    1
    14     2     3   ar
    15     3     4   ar
    16     4     5   ar
    17     5     6   ar
    18     6     7   ar
    19     1     2   ar
    20     2     7   ar
    21     7    18   ar
    22    18    17   ar
    23    17    15   ar
    24    15     1   ar
