@<TRIPOS>MOLECULE
No_119-gen_results/8p0m/2024-11-26-14-13-15/
 11 11 0 0 0
SMALL
GASTEIGER

@<TRIPOS>ATOM
      1 C         -28.0162   -0.8135   28.8779 C.2     1  UNL1       -0.0442
      2 C         -28.4690   -0.7850   29.8287 C.2     1  UNL1       -0.0085
      3 C         -28.1960    0.3478   28.0550 C.3     1  UNL1        0.0220
      4 C         -27.4421    0.5100   26.7946 C.3     1  UNL1        0.0044
      5 C         -26.1689   -0.0794   26.6787 C.3     1  UNL1        0.0007
      6 C         -25.7312   -0.9607   27.6875 C.3     1  UNL1        0.0044
      7 C         -26.5043   -1.2222   28.7582 C.3     1  UNL1        0.0220
      8 C         -29.5802   -0.2435   30.2170 C.2     1  UNL1       -0.0006
      9 C         -30.3107   -0.4377   31.3829 C.2     1  UNL1       -0.0000
     10 C         -29.8651   -1.3967   32.3049 C.2     1  UNL1       -0.0000
     11 C         -28.7739   -2.1540   32.0370 C.2     1  UNL1       -0.0000
@<TRIPOS>BOND
     1     1     2    2
     2     1     3    1
     3     3     4    1
     4     4     5    1
     5     5     6    1
     6     1     7    1
     7     6     7    1
     8     2     8    1
     9     8     9    2
    10     9    10    1
    11    10    11    2
