@<TRIPOS>MOLECULE
No_1190-gen_results/8p0m/2024-11-26-14-13-15/
 23 25 0 0 0
SMALL
GASTEIGER

@<TRIPOS>ATOM
      1 C         -28.0162   -0.8135   28.8779 C.ar    1  UNL1        0.0026
      2 C         -28.4690   -0.7850   29.8287 C.ar    1  UNL1        0.0795
      3 C         -26.5042   -0.7777   28.8766 C.ar    1  UNL1       -0.0176
      4 C         -25.8103   -0.8531   30.1028 C.ar    1  UNL1       -0.0039
      5 C         -27.9906   -0.8916   31.2257 C.ar    1  UNL1        0.0066
      6 C         -26.6042   -0.8676   31.2652 C.ar    1  UNL1       -0.0001
      7 C         -30.0739   -0.8360   29.8615 C.2     1  UNL1        0.3877
      8 O         -30.6825   -0.0696   30.6918 O.co2   1  UNL1       -0.2406
      9 O         -30.6226   -1.5289   29.0126 O.co2   1  UNL1       -0.2406
     10 C         -25.6461   -0.7243   27.6859 C.3     1  UNL1        0.0523
     11 C         -25.2829    0.6524   27.3187 C.ar    1  UNL1       -0.0214
     12 C         -25.4133    1.0485   26.0265 C.ar    1  UNL1       -0.0214
     13 C         -24.7745    1.5916   28.2316 C.ar    1  UNL1       -0.0042
     14 C         -24.2569    2.7873   27.7446 C.ar    1  UNL1       -0.0003
     15 C         -24.9722    2.2610   25.5234 C.ar    1  UNL1       -0.0042
     16 C         -24.3848    3.1921   26.4128 C.ar    1  UNL1       -0.0003
     17 C         -25.9548    0.1248   25.0090 C.3     1  UNL1        0.0523
     18 C         -27.3885   -0.0572   24.9636 C.ar    1  UNL1       -0.0178
     19 C         -28.0718   -0.5590   23.9081 C.ar    1  UNL1       -0.0039
     20 C         -29.4334   -0.9055   24.0742 C.ar    1  UNL1       -0.0003
     21 C         -30.2701   -0.3410   25.0422 C.ar    1  UNL1       -0.0000
     22 C         -29.5517    0.4658   26.0237 C.ar    1  UNL1       -0.0003
     23 C         -28.1874    0.6500   26.0449 C.ar    1  UNL1       -0.0039
@<TRIPOS>BOND
     1     2     7    1
     2     7     8   ar
     3     7     9   ar
     4     3    10    1
     5    10    11    1
     6    12    17    1
     7    17    18    1
     8    11    12   ar
     9    12    15   ar
    10    15    16   ar
    11    16    14   ar
    12    14    13   ar
    13    13    11   ar
    14    18    19   ar
    15    19    20   ar
    16    20    21   ar
    17    21    22   ar
    18    22    23   ar
    19    23    18   ar
    20     1     2   ar
    21     2     5   ar
    22     5     6   ar
    23     6     4   ar
    24     4     3   ar
    25     3     1   ar
