@<TRIPOS>MOLECULE
No_1192-gen_results/8p0m/2024-11-26-14-13-15/
 7 6 0 0 0
SMALL
GASTEIGER

@<TRIPOS>ATOM
      1 C         -28.0162   -0.8135   28.8779 C.2     1  UNL1       -0.0049
      2 C         -27.0636   -0.1189   28.6079 C.2     1  UNL1       -0.0261
      3 C         -26.9716    0.7139   27.5060 C.3     1  UNL1        0.0261
      4 C         -25.8206    1.4910   27.1160 C.3     1  UNL1        0.0062
      5 C         -24.6562    1.4242   27.9180 C.3     1  UNL1        0.0208
      6 C         -23.4598    2.1165   27.6160 C.3     1  UNL1        0.1093
      7 N         -22.4227    1.9402   28.4138 N.3     1  UNL1       -0.1314
@<TRIPOS>BOND
     1     1     2    2
     2     2     3    1
     3     3     4    1
     4     4     5    1
     5     5     6    1
     6     6     7    1
