@<TRIPOS>MOLECULE
No_1194-gen_results/8p0m/2024-11-26-14-13-15/
 8 8 0 0 0
SMALL
GASTEIGER

@<TRIPOS>ATOM
      1 C         -28.0162   -0.8135   28.8779 C.ar    1  UNL1       -0.0030
      2 C         -27.0636   -0.1189   28.6079 C.ar    1  UNL1       -0.0059
      3 C         -26.8756    1.1325   28.9134 C.ar    1  UNL1       -0.0030
      4 C         -27.9014    1.8066   29.6436 C.ar    1  UNL1       -0.0003
      5 C         -29.0458   -0.2316   29.7181 C.ar    1  UNL1       -0.0003
      6 C         -28.9402    1.0517   30.0597 C.ar    1  UNL1       -0.0000
      7 C         -25.8732   -0.7125   27.8045 C.3     1  UNL1        0.1211
      8 CL        -24.5886   -0.2225   27.9765 Cl      1  UNL1       -0.1085
@<TRIPOS>BOND
     1     2     7    1
     2     7     8    1
     3     1     2   ar
     4     2     3   ar
     5     3     4   ar
     6     4     6   ar
     7     6     5   ar
     8     5     1   ar
