@<TRIPOS>MOLECULE
No_1195-gen_results/8p0m/2024-11-26-14-13-15/
 16 17 0 0 0
SMALL
GASTEIGER

@<TRIPOS>ATOM
      1 C         -28.0162   -0.8135   28.8779 C.ar    1  UNL1       -0.0040
      2 C         -28.4690   -0.7850   29.8287 C.ar    1  UNL1       -0.0003
      3 C         -28.1960    0.3478   28.0550 C.ar    1  UNL1       -0.0184
      4 C         -29.0191    1.3501   28.3782 C.ar    1  UNL1       -0.0024
      5 C         -29.4107    0.1803   30.3782 C.ar    1  UNL1        0.0016
      6 C         -29.6059    1.2495   29.6193 C.ar    1  UNL1        0.0207
      7 C         -27.4478    0.3799   26.7122 C.3     1  UNL1        0.0446
      8 C         -25.9806    0.2548   26.7837 C.ar    1  UNL1       -0.0184
      9 C         -25.3349   -0.0583   27.9448 C.ar    1  UNL1       -0.0040
     10 C         -24.5688    0.8997   28.6401 C.ar    1  UNL1       -0.0003
     11 C         -24.4497    2.1470   28.0660 C.ar    1  UNL1       -0.0000
     12 C         -24.5638    2.3576   26.7091 C.ar    1  UNL1       -0.0003
     13 C         -25.2938    1.0327   25.7732 C.ar    1  UNL1       -0.0040
     14 C         -28.0985    0.2549   25.5058 C.3     1  UNL1        0.0094
     15 C         -30.5682    2.3723   30.0270 C.2     1  UNL1        0.1221
     16 N         -31.1380    3.0092   29.4695 N.2     1  UNL1       -0.1464
@<TRIPOS>BOND
     1     3     7    1
     2     7     8    1
     3     7    14    1
     4     6    15    1
     5    15    16    2
     6     8     9   ar
     7     9    10   ar
     8    10    11   ar
     9    11    12   ar
    10    12    13   ar
    11    13     8   ar
    12     1     2   ar
    13     2     5   ar
    14     5     6   ar
    15     6     4   ar
    16     4     3   ar
    17     3     1   ar
