@<TRIPOS>MOLECULE
No_1196-gen_results/8p0m/2024-11-26-14-13-15/
 9 9 0 0 0
SMALL
GASTEIGER

@<TRIPOS>ATOM
      1 C         -28.0162   -0.8135   28.8779 C.ar    1  UNL1        0.0236
      2 C         -27.0636   -0.1190   28.6079 C.ar    1  UNL1        0.0690
      3 C         -25.7923   -0.4302   29.0761 C.ar    1  UNL1        0.0683
      4 C         -25.5756   -1.5654   29.9363 C.ar    1  UNL1        0.0131
      5 C         -26.7354   -2.3004   30.2173 C.ar    1  UNL1        0.0123
      6 C         -27.9184   -1.9537   29.7629 C.ar    1  UNL1        0.0586
      7 CL        -29.2678   -2.8890   30.2152 Cl      1  UNL1       -0.0822
      8 CL        -27.1468    1.3025   27.6377 Cl      1  UNL1       -0.0813
      9 CL        -24.3249    0.4794   28.6855 Cl      1  UNL1       -0.0814
@<TRIPOS>BOND
     1     6     7    1
     2     2     8    1
     3     3     9    1
     4     1     2   ar
     5     2     3   ar
     6     3     4   ar
     7     4     5   ar
     8     5     6   ar
     9     6     1   ar
