@<TRIPOS>MOLECULE
No_1197-gen_results/8p0m/2024-11-26-14-13-15/
 5 4 0 0 0
SMALL
GASTEIGER

@<TRIPOS>ATOM
      1 F         -28.0727   -1.2542   28.5316 F       1  UNL1       -0.2018
      2 C         -27.0607   -0.6291   28.8721 C.2     1  UNL1        0.1674
      3 C         -26.1528   -1.1557   29.4537 C.2     1  UNL1        0.0320
      4 C         -26.2116   -2.6429   29.9161 C.2     1  UNL1        0.0024
      5 C         -27.4604   -3.1133   30.0983 C.2     1  UNL1        0.0001
@<TRIPOS>BOND
     1     1     2    1
     2     2     3    2
     3     3     4    1
     4     4     5    2
