@<TRIPOS>MOLECULE
No_1198-gen_results/8p0m/2024-11-26-14-13-15/
 15 16 0 0 0
SMALL
GASTEIGER

@<TRIPOS>ATOM
      1 C         -28.0162   -0.8135   28.8779 C.ar    1  UNL1       -0.0039
      2 C         -28.4690   -0.7850   29.8287 C.ar    1  UNL1       -0.0003
      3 C         -28.1816    0.4277   28.1134 C.ar    1  UNL1       -0.0159
      4 C         -28.9841    1.4155   28.5154 C.ar    1  UNL1       -0.0039
      5 C         -29.3802    0.1384   30.4612 C.ar    1  UNL1       -0.0000
      6 C         -29.5415    1.2736   29.7242 C.ar    1  UNL1       -0.0003
      7 C         -27.4586    0.4934   26.7701 C.3     1  UNL1        0.0775
      8 C         -26.0263    0.3840   26.7617 C.ar    1  UNL1       -0.0159
      9 C         -25.3148    0.0488   27.8701 C.ar    1  UNL1       -0.0039
     10 C         -23.9145    0.1729   27.8973 C.ar    1  UNL1       -0.0003
     11 C         -23.2948    0.9640   26.9351 C.ar    1  UNL1       -0.0000
     12 C         -24.0142    1.5099   25.8807 C.ar    1  UNL1       -0.0003
     13 C         -25.3802    1.2839   25.7992 C.ar    1  UNL1       -0.0039
     14 C         -28.2001    0.3652   25.6025 C.3     1  UNL1        0.1907
     15 O         -29.4163    0.5631   25.5718 O.3     1  UNL1       -0.2197
@<TRIPOS>BOND
     1     3     7    1
     2     7     8    1
     3     7    14    1
     4    14    15    1
     5     8     9   ar
     6     9    10   ar
     7    10    11   ar
     8    11    12   ar
     9    12    13   ar
    10    13     8   ar
    11     1     2   ar
    12     2     5   ar
    13     5     6   ar
    14     6     4   ar
    15     4     3   ar
    16     3     1   ar
