@<TRIPOS>MOLECULE
No_1199-gen_results/8p0m/2024-11-26-14-13-15/
 13 13 0 0 0
SMALL
GASTEIGER

@<TRIPOS>ATOM
      1 C         -28.0162   -0.8135   28.8779 C.2     1  UNL1        0.0457
      2 C         -27.0636   -0.1190   28.6079 C.2     1  UNL1       -0.0401
      3 C         -26.9716    0.7139   27.5060 C.3     1  UNL1        0.0226
      4 C         -25.8205    1.4909   27.1160 C.3     1  UNL1        0.0135
      5 C         -24.6562    1.4242   27.9180 C.3     1  UNL1        0.0805
      6 C         -24.6847    0.5901   29.0659 C.3     1  UNL1        0.0135
      7 C         -25.8099   -0.1266   29.3338 C.3     1  UNL1        0.0226
      8 C         -29.2185   -0.0422   29.3127 C.2     1  UNL1        0.2531
      9 CL        -30.5123   -0.8015   29.9648 Cl      1  UNL1       -0.0383
     10 O         -29.2966    1.1682   29.0436 O.2     1  UNL1       -0.2740
     11 C         -23.4615    2.1937   27.5822 C.2     1  UNL1        0.2603
     12 N         -23.2302    2.6220   26.3798 N.am    1  UNL1       -0.0878
     13 O         -22.4245    2.1477   28.3544 O.2     1  UNL1       -0.2717
@<TRIPOS>BOND
     1     1     2    2
     2     2     3    1
     3     3     4    1
     4     4     5    1
     5     5     6    1
     6     2     7    1
     7     6     7    1
     8     1     8    1
     9     8     9    1
    10     8    10    2
    11     5    11    1
    12    11    12   am
    13    11    13    2
