@<TRIPOS>MOLECULE
No_12-gen_results/8p0m/2024-11-26-14-13-15/
 6 5 0 0 0
SMALL
GASTEIGER

@<TRIPOS>ATOM
      1 C         -28.0162   -0.8135   28.8779 C.3     1  UNL1        0.2599
      2 C         -27.0636   -0.1189   28.6079 C.3     1  UNL1        0.2364
      3 F         -27.0425    0.2440   27.4277 F       1  UNL1       -0.2308
      4 F         -29.0070   -0.5324   28.2228 F       1  UNL1       -0.2257
      5 C         -28.0414   -1.7500   29.9612 C.2     1  UNL1        0.2454
      6 O         -27.0763   -2.3650   30.3934 O.2     1  UNL1       -0.2852
@<TRIPOS>BOND
     1     1     2    1
     2     2     3    1
     3     1     4    1
     4     1     5    1
     5     5     6    2
