@<TRIPOS>MOLECULE
No_120-gen_results/8p0m/2024-11-26-14-13-15/
 11 11 0 0 0
SMALL
GASTEIGER

@<TRIPOS>ATOM
      1 C         -28.0162   -0.8135   28.8779 C.ar    1  UNL1        0.0089
      2 C         -27.0636   -0.1189   28.6079 C.ar    1  UNL1        0.0574
      3 C         -25.7923   -0.4302   29.0761 C.ar    1  UNL1        0.0114
      4 C         -25.5756   -1.5654   29.9363 C.ar    1  UNL1        0.0006
      5 C         -26.7354   -2.3004   30.2173 C.ar    1  UNL1       -0.0024
      6 C         -27.9184   -1.9537   29.7629 C.ar    1  UNL1        0.0016
      7 CL        -27.1463    1.2916   27.6407 Cl      1  UNL1       -0.0823
      8 C         -29.0683   -2.7883   30.1813 C.3     1  UNL1        0.1569
      9 N         -28.9567   -4.0769   30.4359 N.3     1  UNL1       -0.1215
     10 C         -30.3434   -2.1859   30.3792 C.2     1  UNL1        0.1189
     11 N         -30.5840   -1.0153   30.4406 N.2     1  UNL1       -0.1495
@<TRIPOS>BOND
     1     2     7    1
     2     6     8    1
     3     8     9    1
     4     8    10    1
     5    10    11    2
     6     1     2   ar
     7     2     3   ar
     8     3     4   ar
     9     4     5   ar
    10     5     6   ar
    11     6     1   ar
