@<TRIPOS>MOLECULE
No_1200-gen_results/8p0m/2024-11-26-14-13-15/
 15 16 0 0 0
SMALL
GASTEIGER

@<TRIPOS>ATOM
      1 C         -28.0162   -0.8135   28.8779 C.ar    1  UNL1        0.0111
      2 C         -28.4690   -0.7850   29.8287 C.ar    1  UNL1        0.0577
      3 C         -26.5455   -0.8762   28.8500 C.ar    1  UNL1       -0.0034
      4 C         -25.8041   -1.0324   30.0571 C.ar    1  UNL1       -0.0218
      5 C         -27.9437   -0.9869   31.2075 C.ar    1  UNL1        0.0111
      6 C         -26.5825   -1.0386   31.2231 C.ar    1  UNL1       -0.0034
      7 CL        -30.2809   -0.7232   29.8834 Cl      1  UNL1       -0.0822
      8 C         -24.3690   -1.1185   30.0640 C.3     1  UNL1        0.0310
      9 C         -23.5954   -0.5553   29.0940 C.3     1  UNL1        0.0310
     10 C         -23.7654    0.5758   28.4148 C.ar    1  UNL1       -0.0218
     11 C         -22.7705    1.1516   27.6189 C.ar    1  UNL1       -0.0043
     12 C         -23.0518    2.2950   26.8619 C.ar    1  UNL1       -0.0003
     13 C         -24.3403    2.8275   26.8307 C.ar    1  UNL1       -0.0000
     14 C         -25.3246    2.2806   27.5826 C.ar    1  UNL1       -0.0003
     15 C         -25.0858    1.1866   28.3661 C.ar    1  UNL1       -0.0043
@<TRIPOS>BOND
     1     2     7    1
     2     4     8    1
     3     8     9    1
     4     9    10    1
     5     1     2   ar
     6     2     5   ar
     7     5     6   ar
     8     6     4   ar
     9     4     3   ar
    10     3     1   ar
    11    10    11   ar
    12    11    12   ar
    13    12    13   ar
    14    13    14   ar
    15    14    15   ar
    16    15    10   ar
