@<TRIPOS>MOLECULE
No_1201-gen_results/8p0m/2024-11-26-14-13-15/
 34 37 0 0 0
SMALL
GASTEIGER

@<TRIPOS>ATOM
      1 C         -28.0162   -0.8135   28.8779 C.ar    1  UNL1        0.0894
      2 C         -27.0636   -0.1190   28.6079 C.ar    1  UNL1        0.0243
      3 C         -25.7923   -0.4302   29.0761 C.ar    1  UNL1        0.0019
      4 C         -24.5456    0.3494   28.8225 C.ar    1  UNL1        0.0047
      5 C         -24.6586    1.4196   27.8878 C.ar    1  UNL1        0.0569
      6 C         -25.9471    1.6811   27.3792 C.ar    1  UNL1        0.0112
      7 C         -27.0439    0.9739   27.6871 C.ar    1  UNL1        0.0814
      8 C         -28.6597   -0.4600   30.2006 C.ar    1  UNL1        0.0935
      9 C         -29.7497   -1.2486   30.6773 C.ar    1  UNL1        0.0158
     10 C         -23.4472    2.1466   27.5918 C.2     1  UNL1        0.2842
     11 N         -23.4744    3.1372   26.8114 N.am    1  UNL1       -0.0837
     12 O         -22.2874    1.7439   27.9660 O.2     1  UNL1       -0.2667
     13 C         -30.1923   -2.1841   29.8811 C.ar    1  UNL1        0.0941
     14 C         -29.7575   -2.6029   28.7926 C.ar    1  UNL1        0.1716
     15 N         -28.6540   -1.8661   28.3121 N.ar    1  UNL1       -0.2261
     16 C         -31.4091   -3.0726   30.3918 C.ar    1  UNL1        0.2860
     17 O         -31.9694   -2.8951   31.4381 O.2     1  UNL1       -0.2650
     18 N         -31.7743   -4.0698   29.5903 N.ar    1  UNL1       -0.1516
     19 C         -31.3631   -4.4210   28.4195 C.ar    1  UNL1        0.3728
     20 N         -30.2803   -3.6898   27.9633 N.ar    1  UNL1       -0.1715
     21 O         -31.6732   -5.3291   27.6614 O.2     1  UNL1       -0.2425
     22 C         -28.3319    1.3525   27.0519 C.2     1  UNL1        0.3878
     23 O         -29.0257    2.1800   27.5421 O.co2   1  UNL1       -0.2406
     24 O         -28.6499    0.6254   25.9988 O.co2   1  UNL1       -0.2406
     25 C         -28.1542    0.6773   31.0150 C.2     1  UNL1        0.3430
     26 O         -27.5759    0.4149   32.0028 O.2     1  UNL1       -0.2448
     27 O         -28.4685    1.8825   30.5776 O.3     1  UNL1       -0.4404
     28 C         -27.7935    2.9943   31.0945 C.3     1  UNL1        0.2354
     29 C         -28.5670    4.1648   31.1655 C.ar    1  UNL1        0.0213
     30 C         -29.6968    4.2403   30.8988 C.ar    1  UNL1       -0.0007
     31 C         -30.5151    5.4790   30.9379 C.ar    1  UNL1       -0.0002
     32 C         -29.8054    6.6198   31.3650 C.ar    1  UNL1       -0.0000
     33 C         -28.4935    6.5745   31.6763 C.ar    1  UNL1       -0.0002
     34 C         -27.7909    5.3598   31.5807 C.ar    1  UNL1       -0.0007
@<TRIPOS>BOND
     1     1     2    1
     2     5    10    1
     3    10    11   am
     4    10    12    2
     5    13    16   ar
     6    16    17    2
     7    16    18   ar
     8    18    19   ar
     9    14    20   ar
    10    19    20   ar
    11    19    21    2
    12     7    22    1
    13    22    23   ar
    14    22    24   ar
    15     8    25    1
    16    25    26    2
    17    25    27    1
    18    27    28    1
    19    28    29    1
    20     1     8   ar
    21     8     9   ar
    22     9    13   ar
    23    13    14   ar
    24    14    15   ar
    25    15     1   ar
    26     2     3   ar
    27     3     4   ar
    28     4     5   ar
    29     5     6   ar
    30     6     7   ar
    31     7     2   ar
    32    29    30   ar
    33    30    31   ar
    34    31    32   ar
    35    32    33   ar
    36    33    34   ar
    37    34    29   ar
