@<TRIPOS>MOLECULE
No_1203-gen_results/8p0m/2024-11-26-14-13-15/
 17 18 0 0 0
SMALL
GASTEIGER

@<TRIPOS>ATOM
      1 C         -28.0162   -0.8135   28.8779 C.ar    1  UNL1       -0.0036
      2 C         -28.4690   -0.7850   29.8287 C.ar    1  UNL1       -0.0003
      3 C         -27.0871    0.2903   28.6377 C.ar    1  UNL1       -0.0128
      4 C         -26.2516    0.4114   27.4223 C.3     1  UNL1        0.0854
      5 C         -28.3913    0.1041   30.9805 C.ar    1  UNL1       -0.0000
      6 C         -27.5332    1.1666   30.7866 C.ar    1  UNL1       -0.0003
      7 C         -26.8281    1.2557   29.6454 C.ar    1  UNL1       -0.0036
      8 C         -24.9668    0.4106   27.5252 C.ar    1  UNL1       -0.0128
      9 C         -24.1552   -0.0213   28.5813 C.ar    1  UNL1       -0.0036
     10 C         -22.7568    0.1663   28.5743 C.ar    1  UNL1       -0.0003
     11 C         -22.1350    1.0740   28.1234 C.ar    1  UNL1       -0.0000
     12 C         -22.8515    1.8254   26.9995 C.ar    1  UNL1       -0.0003
     13 C         -24.2575    1.5133   26.7416 C.ar    1  UNL1       -0.0036
     14 C         -26.8892    0.2653   26.1599 C.2     1  UNL1        0.0751
     15 N         -27.3666    1.3018   25.6125 N.2     1  UNL1       -0.2729
     16 C         -27.5900    2.3991   26.1685 C.3     1  UNL1        0.1252
     17 C         -28.9115    2.7947   26.6992 C.3     1  UNL1        0.0283
@<TRIPOS>BOND
     1     3     4    1
     2     4     8    1
     3     4    14    1
     4    14    15    2
     5    15    16    1
     6    16    17    1
     7     8     9   ar
     8     9    10   ar
     9    10    11   ar
    10    11    12   ar
    11    12    13   ar
    12    13     8   ar
    13     1     2   ar
    14     2     5   ar
    15     5     6   ar
    16     6     7   ar
    17     7     3   ar
    18     3     1   ar
