@<TRIPOS>MOLECULE
No_1204-gen_results/8p0m/2024-11-26-14-13-15/
 11 12 0 0 0
SMALL
GASTEIGER

@<TRIPOS>ATOM
      1 C         -28.0162   -0.8135   28.8779 C.ar    1  UNL1       -0.0194
      2 C         -28.4690   -0.7850   29.8287 C.3     1  UNL1        0.0269
      3 C         -28.1960    0.3478   28.0550 C.ar    1  UNL1       -0.0042
      4 C         -27.4421    0.5100   26.7946 C.ar    1  UNL1       -0.0003
      5 C         -26.1689   -0.0794   26.6787 C.ar    1  UNL1        0.0001
      6 C         -25.7312   -0.9607   27.6875 C.ar    1  UNL1        0.0025
      7 C         -26.5043   -1.2222   28.7582 C.ar    1  UNL1        0.0307
      8 C         -28.3432   -2.0040   30.7789 C.3     1  UNL1        0.0128
      9 C         -27.1022   -2.6901   30.6797 C.3     1  UNL1        0.0695
     10 C         -26.1200   -2.3552   29.6514 C.2     1  UNL1        0.1727
     11 O         -25.0807   -3.0517   29.4782 O.2     1  UNL1       -0.2913
@<TRIPOS>BOND
     1     2     8    1
     2     7    10    1
     3     9    10    1
     4    10    11    2
     5     1     2    1
     6     8     9    1
     7     1     3   ar
     8     3     4   ar
     9     4     5   ar
    10     5     6   ar
    11     6     7   ar
    12     7     1   ar
