@<TRIPOS>MOLECULE
No_1205-gen_results/8p0m/2024-11-26-14-13-15/
 12 12 0 0 0
SMALL
GASTEIGER

@<TRIPOS>ATOM
      1 C         -28.0162   -0.8135   28.8779 C.3     1  UNL1        0.3410
      2 C         -27.0636   -0.1189   28.6079 C.ar    1  UNL1        0.0436
      3 C         -26.8756    1.1325   28.9134 C.ar    1  UNL1        0.0013
      4 C         -25.6883    1.9515   28.5672 C.ar    1  UNL1        0.0064
      5 C         -24.6394    1.2834   27.8753 C.ar    1  UNL1        0.0798
      6 C         -24.8068   -0.0513   27.6040 C.ar    1  UNL1        0.0064
      7 C         -25.9019   -0.7670   27.9511 C.ar    1  UNL1        0.0013
      8 F         -28.4523   -0.2679   30.1600 F       1  UNL1       -0.1933
      9 C         -23.4500    1.9780   27.4676 C.2     1  UNL1        0.3878
     10 O         -22.3262    1.7851   27.8483 O.co2   1  UNL1       -0.2406
     11 O         -23.6637    3.0448   26.6681 O.co2   1  UNL1       -0.2406
     12 F         -29.0249   -0.7760   28.0652 F       1  UNL1       -0.1933
@<TRIPOS>BOND
     1     1     8    1
     2     5     9    1
     3     9    10   ar
     4     9    11   ar
     5     1    12    1
     6     1     2    1
     7     2     3   ar
     8     3     4   ar
     9     4     5   ar
    10     5     6   ar
    11     6     7   ar
    12     7     2   ar
