@<TRIPOS>MOLECULE
No_1206-gen_results/8p0m/2024-11-26-14-13-15/
 13 14 0 0 0
SMALL
GASTEIGER

@<TRIPOS>ATOM
      1 C         -28.0162   -0.8135   28.8779 C.ar    1  UNL1       -0.0003
      2 C         -27.0636   -0.1189   28.6079 C.ar    1  UNL1       -0.0040
      3 C         -25.7647   -0.3897   29.0360 C.ar    1  UNL1       -0.0187
      4 C         -25.5296   -1.5302   29.9014 C.ar    1  UNL1       -0.0040
      5 C         -26.6888   -2.2893   30.1810 C.ar    1  UNL1       -0.0003
      6 C         -27.8727   -1.9508   29.7373 C.ar    1  UNL1       -0.0000
      7 C         -24.5491    0.4100   28.7341 C.3     1  UNL1        0.0409
      8 C         -24.4789    1.1871   27.6843 C.2     1  UNL1       -0.0361
      9 C         -25.1757    1.5312   26.7988 C.2     1  UNL1       -0.0082
     10 C         -24.7856    2.3598   25.7090 C.2     1  UNL1       -0.0049
     11 C         -23.4582    2.8205   25.8041 C.2     1  UNL1       -0.0218
     12 C         -23.0742    1.8820   27.4839 C.3     1  UNL1        0.0483
     13 C         -23.9609    1.0580   29.9930 C.3     1  UNL1        0.0091
@<TRIPOS>BOND
     1     3     7    1
     2     7     8    1
     3     8     9    2
     4     9    10    1
     5    10    11    2
     6     8    12    1
     7    11    12    1
     8     7    13    1
     9     1     2   ar
    10     2     3   ar
    11     3     4   ar
    12     4     5   ar
    13     5     6   ar
    14     6     1   ar
