@<TRIPOS>MOLECULE
No_1207-gen_results/8p0m/2024-11-26-14-13-15/
 34 38 0 0 0
SMALL
GASTEIGER

@<TRIPOS>ATOM
      1 O         -28.1229   -1.3353   28.4874 O.2     1  UNL1       -0.2723
      2 C         -27.4806   -0.4044   28.7094 C.2     1  UNL1        0.2575
      3 C         -27.1904    0.2460   29.5268 C.3     1  UNL1        0.1819
      4 N         -26.6021   -0.1576   27.5515 N.am    1  UNL1       -0.1602
      5 C         -25.6421    0.9030   27.5822 C.ar    1  UNL1        0.1520
      6 C         -25.5003    1.6142   28.7368 C.ar    1  UNL1        0.0124
      7 C         -26.2674    1.2888   29.8086 C.3     1  UNL1        0.0497
      8 N         -24.9621    0.9780   26.4257 N.ar    1  UNL1       -0.2112
      9 C         -23.8183    1.8131   26.4809 C.ar    1  UNL1        0.1711
     10 C         -23.4325    2.4243   27.6485 C.ar    1  UNL1        0.0374
     11 C         -24.2728    2.3155   28.7721 C.ar    1  UNL1        0.0015
     12 C         -28.1112   -0.0235   30.8812 C.2     1  UNL1        0.3313
     13 O         -27.9292   -0.9011   31.4431 O.2     1  UNL1       -0.2491
     14 O         -28.9697    0.9109   31.0954 O.3     1  UNL1       -0.4077
     15 N         -23.0834    1.9454   25.3794 N.pl3   1  UNL1       -0.1072
     16 C         -29.0246    1.9549   30.9575 C.2     1  UNL1        0.2266
     17 C         -29.7330    2.4901   29.9384 C.2     1  UNL1        0.1049
     18 C         -30.8644    1.9313   29.4715 C.ar    1  UNL1        0.0087
     19 C         -31.5028    1.0963   30.2377 C.ar    1  UNL1        0.0003
     20 C         -32.8085    0.4715   29.7735 C.ar    1  UNL1        0.0000
     21 C         -33.1853    0.8182   28.4716 C.ar    1  UNL1        0.0000
     22 C         -32.4669    1.6734   27.6746 C.ar    1  UNL1        0.0000
     23 C         -31.3524    2.3006   28.1509 C.ar    1  UNL1        0.0003
     24 C         -29.2533    3.7374   29.2035 C.2     1  UNL1        0.2571
     25 N         -28.9264    4.8350   29.8427 N.am    1  UNL1       -0.2520
     26 C         -28.3299    5.8636   29.1947 C.3     1  UNL1        0.1204
     27 O         -28.8729    3.6307   28.0156 O.2     1  UNL1       -0.2694
     28 C         -29.3627    5.0984   31.2460 C.ar    1  UNL1        0.0695
     29 C         -29.6151    5.9475   31.7842 C.ar    1  UNL1        0.0162
     30 C         -30.0741    6.0587   33.1618 C.ar    1  UNL1        0.0014
     31 C         -30.1588    4.8530   33.8391 C.ar    1  UNL1        0.0014
     32 C         -29.8124    3.6928   33.2378 C.ar    1  UNL1        0.0179
     33 C         -29.3722    3.7534   31.9651 C.ar    1  UNL1        0.0872
     34 N         -28.9284    2.6759   31.4823 N.pl3   1  UNL1       -0.1775
@<TRIPOS>BOND
     1     1     2    2
     2     2     3    1
     3     2     4   am
     4     4     5    1
     5     6     7    1
     6     3    12    1
     7    12    13    2
     8    12    14    1
     9     9    15    1
    10    14    16    1
    11    16    17    2
    12    17    18    1
    13    17    24    1
    14    24    25   am
    15    25    26    1
    16    24    27    2
    17    25    28    1
    18    16    34    1
    19    33    34    1
    20     3     7    1
    21    18    19   ar
    22    19    20   ar
    23    20    21   ar
    24    21    22   ar
    25    22    23   ar
    26    23    18   ar
    27    28    29   ar
    28    29    30   ar
    29    30    31   ar
    30    31    32   ar
    31    32    33   ar
    32    33    28   ar
    33     5     8   ar
    34     8     9   ar
    35     9    10   ar
    36    10    11   ar
    37    11     6   ar
    38     6     5   ar
