@<TRIPOS>MOLECULE
No_1209-gen_results/8p0m/2024-11-26-14-13-15/
 17 17 0 0 0
SMALL
GASTEIGER

@<TRIPOS>ATOM
      1 C         -28.0162   -0.8135   28.8779 C.ar    1  UNL1        0.0603
      2 C         -28.4690   -0.7850   29.8287 C.ar    1  UNL1        0.1528
      3 C         -27.0871    0.2903   28.6377 C.ar    1  UNL1        0.1486
      4 C         -26.8317    1.2487   29.5869 C.ar    1  UNL1        0.1045
      5 C         -28.3914    0.0801   31.0065 C.ar    1  UNL1        0.0854
      6 C         -27.4940    1.1521   30.7841 C.ar    1  UNL1        0.0224
      7 F         -26.4106    0.3574   27.4837 F       1  UNL1       -0.2039
      8 CL        -29.2156   -0.0805   32.4723 Cl      1  UNL1       -0.0799
      9 C         -25.9987    2.4692   29.4732 C.2     1  UNL1        0.3503
     10 O         -26.2345    3.3743   28.9162 O.2     1  UNL1       -0.2443
     11 O         -24.7071    2.2539   30.0433 O.3     1  UNL1       -0.3813
     12 F         -29.4002   -1.9449   30.1697 F       1  UNL1       -0.2032
     13 C         -23.8535    1.2087   29.6925 C.2     1  UNL1        0.4290
     14 C         -22.8973    1.4001   28.8112 C.2     1  UNL1        0.4626
     15 O         -22.0303    0.5159   28.5843 O.co2   1  UNL1       -0.2332
     16 O         -22.6725    2.5252   28.2422 O.co2   1  UNL1       -0.2332
     17 O         -24.0142    0.1731   30.4111 O.2     1  UNL1       -0.2369
@<TRIPOS>BOND
     1     3     7    1
     2     5     8    1
     3     4     9    1
     4     9    10    2
     5     9    11    1
     6     2    12    1
     7    11    13    1
     8    13    14    1
     9    14    15   ar
    10    14    16   ar
    11    13    17    2
    12     1     2   ar
    13     2     5   ar
    14     5     6   ar
    15     6     4   ar
    16     4     3   ar
    17     3     1   ar
