@<TRIPOS>MOLECULE
No_121-gen_results/8p0m/2024-11-26-14-13-15/
 33 37 0 0 0
SMALL
GASTEIGER

@<TRIPOS>ATOM
      1 C         -28.0162   -0.8135   28.8779 C.ar    1  UNL1        0.0024
      2 C         -28.4690   -0.7850   29.8287 C.ar    1  UNL1        0.0285
      3 C         -27.0871    0.2903   28.6377 C.ar    1  UNL1        0.0001
      4 C         -26.8317    1.2487   29.5869 C.ar    1  UNL1        0.0000
      5 C         -28.3914    0.0801   31.0065 C.ar    1  UNL1        0.0024
      6 C         -27.4940    1.1521   30.7841 C.ar    1  UNL1        0.0001
      7 C         -26.3172    0.3994   27.3653 C.ar    1  UNL1        0.0000
      8 C         -24.9405    0.2550   27.5028 C.ar    1  UNL1        0.0000
      9 C         -26.9129    0.5860   26.1397 C.ar    1  UNL1        0.0000
     10 C         -28.2688    0.7168   25.9850 C.ar    1  UNL1        0.0000
     11 C         -28.7657    0.7315   24.6860 C.ar    1  UNL1        0.0000
     12 C         -30.1595    0.8701   24.4627 C.ar    1  UNL1        0.0000
     13 C         -30.8294    1.0191   25.1944 C.ar    1  UNL1        0.0000
     14 C         -30.5276    1.0618   26.6717 C.ar    1  UNL1        0.0000
     15 C         -29.2536    0.9583   27.0098 C.ar    1  UNL1        0.0000
     16 C         -26.0292    0.6796   25.0268 C.ar    1  UNL1        0.0000
     17 C         -24.3540   -0.3517   28.6337 C.ar    1  UNL1        0.0000
     18 C         -24.4537   -1.4623   28.9887 C.ar    1  UNL1        0.0000
     19 C         -23.7462   -1.9776   30.1605 C.ar    1  UNL1        0.0000
     20 C         -22.9374   -1.1413   30.9244 C.ar    1  UNL1        0.0000
     21 C         -23.4711    0.6220   29.2791 C.ar    1  UNL1        0.0000
     22 C         -22.7918    0.2055   30.4440 C.ar    1  UNL1        0.0000
     23 C         -24.0920    0.5836   26.3908 C.ar    1  UNL1        0.0000
     24 C         -24.6564    0.7376   25.1820 C.ar    1  UNL1        0.0000
     25 C         -29.5520   -1.9522   30.2299 C.2     1  UNL1        0.1382
     26 CL        -29.0917   -3.4375   30.2183 Cl      1  UNL1       -0.0613
     27 N         -30.8788   -1.6692   30.3337 N.2     1  UNL1       -0.2340
     28 C         -31.3662   -0.4935   30.3567 C.ar    1  UNL1        0.0823
     29 C         -31.6207    0.2503   30.9864 C.ar    1  UNL1        0.0191
     30 C         -32.3143    1.5573   30.8014 C.ar    1  UNL1        0.0015
     31 C         -32.7655    1.7242   29.5008 C.ar    1  UNL1        0.0001
     32 C         -32.8052    0.9420   28.7899 C.ar    1  UNL1        0.0015
     33 C         -32.0186   -0.3165   28.8919 C.ar    1  UNL1        0.0191
@<TRIPOS>BOND
     1     3     7    1
     2     9    10    1
     3     8    17    1
     4     2    25    1
     5    25    26    1
     6    25    27    2
     7    27    28    1
     8    17    18   ar
     9    18    19   ar
    10    19    20   ar
    11    20    22   ar
    12    22    21   ar
    13    21    17   ar
    14     7     8   ar
    15     8    23   ar
    16    23    24   ar
    17    24    16   ar
    18    16     9   ar
    19     9     7   ar
    20    10    11   ar
    21    11    12   ar
    22    12    13   ar
    23    13    14   ar
    24    14    15   ar
    25    15    10   ar
    26    28    29   ar
    27    29    30   ar
    28    30    31   ar
    29    31    32   ar
    30    32    33   ar
    31    33    28   ar
    32     1     2   ar
    33     2     5   ar
    34     5     6   ar
    35     6     4   ar
    36     4     3   ar
    37     3     1   ar
