@<TRIPOS>MOLECULE
No_1211-gen_results/8p0m/2024-11-26-14-13-15/
 15 16 0 0 0
SMALL
GASTEIGER

@<TRIPOS>ATOM
      1 C         -28.0162   -0.8135   28.8779 C.ar    1  UNL1        0.0066
      2 C         -28.4690   -0.7850   29.8287 C.ar    1  UNL1        0.0798
      3 C         -26.5455   -0.8762   28.8500 C.ar    1  UNL1        0.0018
      4 C         -25.8041   -1.0324   30.0571 C.ar    1  UNL1        0.0194
      5 C         -27.9437   -0.9869   31.2075 C.ar    1  UNL1        0.0066
      6 C         -26.5825   -1.0386   31.2231 C.ar    1  UNL1        0.0018
      7 C         -30.0279   -0.6588   29.6965 C.2     1  UNL1        0.3878
      8 O         -30.6032    0.2453   30.4157 O.co2   1  UNL1       -0.2406
      9 O         -30.6751   -1.6725   29.3125 O.co2   1  UNL1       -0.2406
     10 C         -24.3704   -1.1000   30.0898 C.ar    1  UNL1        0.1029
     11 N         -23.7589   -1.7924   30.6501 N.ar    1  UNL1       -0.1480
     12 C         -23.6111   -0.0864   29.2701 C.ar    1  UNL1        0.0226
     13 C         -22.2394   -0.2762   29.3077 C.ar    1  UNL1        0.0241
     14 N         -22.4468   -1.9137   30.7521 N.ar    1  UNL1       -0.1464
     15 C         -21.6627   -1.1683   30.0205 C.ar    1  UNL1        0.1222
@<TRIPOS>BOND
     1     2     7    1
     2     7     8   ar
     3     7     9   ar
     4     4    10    1
     5    10    11   ar
     6    11    14   ar
     7    14    15   ar
     8    15    13   ar
     9    13    12   ar
    10    12    10   ar
    11     1     2   ar
    12     2     5   ar
    13     5     6   ar
    14     6     4   ar
    15     4     3   ar
    16     3     1   ar
