@<TRIPOS>MOLECULE
No_1212-gen_results/8p0m/2024-11-26-14-13-15/
 22 23 0 0 0
SMALL
GASTEIGER

@<TRIPOS>ATOM
      1 C         -28.0162   -0.8135   28.8779 C.2     1  UNL1        0.1728
      2 C         -27.0636   -0.1189   28.6079 C.2     1  UNL1        0.0542
      3 C         -25.7647   -0.3897   29.0360 C.3     1  UNL1        0.0584
      4 C         -24.5516    0.4058   28.7646 C.ar    1  UNL1       -0.0211
      5 C         -24.6957    1.4480   27.7988 C.ar    1  UNL1       -0.0188
      6 C         -25.9755    1.7250   27.3077 C.3     1  UNL1        0.0836
      7 C         -27.0718    1.0134   27.6535 C.2     1  UNL1        0.1760
      8 O         -28.4697   -0.5996   30.0599 O.2     1  UNL1       -0.4564
      9 C         -23.4909    2.1771   27.4817 C.ar    1  UNL1       -0.0042
     10 C         -22.2254    1.6283   27.8340 C.ar    1  UNL1       -0.0003
     11 C         -22.1578    0.6269   28.8107 C.ar    1  UNL1       -0.0003
     12 C         -23.2866   -0.1043   29.1958 C.ar    1  UNL1       -0.0042
     13 C         -29.3246   -1.4092   30.7213 C.3     1  UNL1        0.2884
     14 C         -26.1422    2.9012   26.4129 C.3     1  UNL1        0.0128
     15 O         -28.2870    1.2430   27.1741 O.2     1  UNL1       -0.2912
     16 C         -29.3349   -1.4662   31.8756 C.3     1  UNL1        0.2660
     17 O         -28.3939   -0.9387   32.4370 O.2     1  UNL1       -0.4674
     18 CL        -30.8977   -1.1597   30.0435 Cl      1  UNL1       -0.0644
     19 C         -28.4433   -0.4761   33.8133 C.2     1  UNL1        0.1679
     20 C         -27.1663   -0.0663   34.1980 C.2     1  UNL1        0.0139
     21 C         -26.5523    0.8779   33.2071 C.3     1  UNL1        0.0293
     22 C         -26.5837    0.3848   31.8749 C.3     1  UNL1        0.0051
@<TRIPOS>BOND
     1     1     2    2
     2     2     3    1
     3     3     4    1
     4     5     6    1
     5     2     7    1
     6     6     7    1
     7     1     8    1
     8     8    13    1
     9     6    14    1
    10     7    15    2
    11    13    16    1
    12    16    17    1
    13    13    18    1
    14    17    19    1
    15    19    20    2
    16    20    21    1
    17    21    22    1
    18     4     5   ar
    19     5     9   ar
    20     9    10   ar
    21    10    11   ar
    22    11    12   ar
    23    12     4   ar
