@<TRIPOS>MOLECULE
No_1213-gen_results/8p0m/2024-11-26-14-13-15/
 16 17 0 0 0
SMALL
GASTEIGER

@<TRIPOS>ATOM
      1 C         -28.0162   -0.8135   28.8779 C.ar    1  UNL1        0.0003
      2 C         -27.0636   -0.1189   28.6079 C.ar    1  UNL1        0.0049
      3 C         -27.0010    0.6913   27.4910 C.ar    1  UNL1        0.0116
      4 C         -28.1373    0.7363   26.6350 C.ar    1  UNL1        0.0848
      5 C         -29.2360    0.0765   27.0690 C.ar    1  UNL1        0.1506
      6 C         -29.2177   -0.6429   28.1747 C.ar    1  UNL1        0.0303
      7 F         -30.3222    0.1455   26.3092 F       1  UNL1       -0.2033
      8 C         -25.8876   -0.2734   29.5899 C.3     1  UNL1        0.1476
      9 N         -25.5038   -1.2627   30.1408 N.2     1  UNL1       -0.2619
     10 C         -24.7328   -2.0001   29.7981 C.2     1  UNL1        0.0962
     11 C         -23.4232   -1.4769   29.4431 C.2     1  UNL1        0.0498
     12 C         -22.9609   -0.6264   29.7484 C.2     1  UNL1        0.1414
     13 C         -23.7477    0.7636   29.6660 C.2     1  UNL1        0.0274
     14 C         -24.9982    0.9114   29.4222 C.2     1  UNL1        0.0044
     15 F         -21.6362   -0.3236   29.7274 F       1  UNL1       -0.2041
     16 CL        -28.0439    1.7487   25.2650 Cl      1  UNL1       -0.0799
@<TRIPOS>BOND
     1     5     7    1
     2     2     8    1
     3     8     9    1
     4     9    10    2
     5    10    11    1
     6    11    12    2
     7    12    13    1
     8     8    14    1
     9    13    14    2
    10    12    15    1
    11     4    16    1
    12     1     2   ar
    13     2     3   ar
    14     3     4   ar
    15     4     5   ar
    16     5     6   ar
    17     6     1   ar
