@<TRIPOS>MOLECULE
No_1214-gen_results/8p0m/2024-11-26-14-13-15/
 19 20 0 0 0
SMALL
GASTEIGER

@<TRIPOS>ATOM
      1 C         -28.0162   -0.8135   28.8779 C.ar    1  UNL1       -0.0036
      2 C         -27.0636   -0.1190   28.6079 C.ar    1  UNL1       -0.0143
      3 C         -25.7923   -0.4302   29.0761 C.ar    1  UNL1       -0.0036
      4 C         -25.5756   -1.5654   29.9363 C.ar    1  UNL1       -0.0003
      5 C         -26.7354   -2.3004   30.2173 C.ar    1  UNL1       -0.0000
      6 C         -27.9184   -1.9537   29.7629 C.ar    1  UNL1       -0.0003
      7 C         -27.1057    1.1023   27.7593 C.3     1  UNL1        0.0663
      8 C         -27.8576    1.5309   27.2156 C.ar    1  UNL1       -0.0143
      9 C         -27.8433    2.7213   26.2861 C.ar    1  UNL1       -0.0036
     10 C         -28.9357    3.2862   25.6170 C.ar    1  UNL1       -0.0003
     11 C         -30.1399    2.6209   25.6952 C.ar    1  UNL1       -0.0000
     12 C         -30.2383    1.4941   26.4532 C.ar    1  UNL1       -0.0003
     13 C         -29.2829    0.9986   27.1618 C.ar    1  UNL1       -0.0036
     14 C         -26.1128    2.0917   28.4153 C.2     1  UNL1       -0.0139
     15 C         -26.1335    2.4574   29.6951 C.2     1  UNL1        0.0714
     16 C         -25.2208    3.4119   30.1045 C.3     1  UNL1        0.4183
     17 F         -25.1406    3.6400   31.4483 F       1  UNL1       -0.1659
     18 F         -23.9993    3.1345   29.7854 F       1  UNL1       -0.1659
     19 F         -25.4775    4.6136   29.5369 F       1  UNL1       -0.1659
@<TRIPOS>BOND
     1     2     7    1
     2     7    14    1
     3    14    15    2
     4    15    16    1
     5    16    17    1
     6    16    18    1
     7    16    19    1
     8     7     8    1
     9     1     2   ar
    10     2     3   ar
    11     3     4   ar
    12     4     5   ar
    13     5     6   ar
    14     6     1   ar
    15     8     9   ar
    16     9    10   ar
    17    10    11   ar
    18    11    12   ar
    19    12    13   ar
    20    13     8   ar
