@<TRIPOS>MOLECULE
No_1215-gen_results/8p0m/2024-11-26-14-13-15/
 28 31 0 0 0
SMALL
GASTEIGER

@<TRIPOS>ATOM
      1 C         -28.0162   -0.8135   28.8779 C.ar    1  UNL1        0.0076
      2 C         -28.4690   -0.7850   29.8287 C.ar    1  UNL1        0.0002
      3 C         -27.0871    0.2903   28.6377 C.ar    1  UNL1        0.0884
      4 C         -26.2516    0.4114   27.4223 C.2     1  UNL1        0.2557
      5 C         -28.3913    0.1041   30.9805 C.ar    1  UNL1        0.0051
      6 C         -27.5332    1.1666   30.7866 C.ar    1  UNL1        0.0867
      7 C         -26.8281    1.2557   29.6454 C.ar    1  UNL1        0.1552
      8 N         -25.1893    0.4693   27.3615 N.am    1  UNL1       -0.2531
      9 O         -26.9788    0.3975   26.2798 O.2     1  UNL1       -0.2695
     10 C         -24.2071    0.5276   28.5048 C.ar    1  UNL1        0.0604
     11 C         -23.5444   -0.6343   28.8585 C.ar    1  UNL1        0.0151
     12 C         -22.5162   -0.5433   29.8206 C.ar    1  UNL1        0.0013
     13 C         -24.1309    1.5610   29.2144 C.ar    1  UNL1        0.0897
     14 C         -23.1768    1.6552   30.3526 C.ar    1  UNL1        0.0077
     15 C         -22.4137    0.5782   30.6254 C.ar    1  UNL1        0.0003
     16 C         -25.2820    2.5966   29.3353 C.2     1  UNL1        0.3469
     17 O         -26.5140    2.3331   29.0010 O.3     1  UNL1       -0.4210
     18 O         -25.0242    3.6511   30.0390 O.2     1  UNL1       -0.2444
     19 C         -24.3554    0.1281   26.1558 C.3     1  UNL1        0.1203
     20 C         -27.3594    2.2321   31.8388 C.3     1  UNL1        0.3541
     21 O         -28.0822    3.1838   31.9888 O.3     1  UNL1       -0.4460
     22 F         -26.2986    1.9732   32.5599 F       1  UNL1       -0.1832
     23 C         -27.6190    4.3609   32.2715 C.ar    1  UNL1        0.1419
     24 C         -26.8937    4.6112   33.3823 C.ar    1  UNL1        0.0370
     25 C         -25.8822    5.5265   33.3307 C.ar    1  UNL1        0.0031
     26 C         -25.9037    6.5624   32.3611 C.ar    1  UNL1        0.0002
     27 C         -26.7082    6.3343   31.2353 C.ar    1  UNL1        0.0031
     28 C         -27.5563    5.2153   31.1538 C.ar    1  UNL1        0.0370
@<TRIPOS>BOND
     1     3     4    1
     2     4     8   am
     3     4     9    2
     4     8    10    1
     5    13    16    1
     6     7    17    1
     7    16    17    1
     8    16    18    2
     9     8    19    1
    10     6    20    1
    11    20    21    1
    12    20    22    1
    13    21    23    1
    14    23    24   ar
    15    24    25   ar
    16    25    26   ar
    17    26    27   ar
    18    27    28   ar
    19    28    23   ar
    20     1     2   ar
    21     2     5   ar
    22     5     6   ar
    23     6     7   ar
    24     7     3   ar
    25     3     1   ar
    26    10    11   ar
    27    11    12   ar
    28    12    15   ar
    29    15    14   ar
    30    14    13   ar
    31    13    10   ar
