@<TRIPOS>MOLECULE
No_1217-gen_results/8p0m/2024-11-26-14-13-15/
 25 26 0 0 0
SMALL
GASTEIGER

@<TRIPOS>ATOM
      1 C         -28.0162   -0.8135   28.8779 C.2     1  UNL1        0.0761
      2 C         -27.0636   -0.1189   28.6079 C.2     1  UNL1       -0.0055
      3 C         -26.9716    0.7139   27.5060 C.3     1  UNL1        0.1808
      4 C         -25.8205    1.4909   27.1160 C.3     1  UNL1        0.0561
      5 C         -24.6562    1.4242   27.9180 C.3     1  UNL1        0.0872
      6 C         -24.6847    0.5901   29.0659 C.3     1  UNL1        0.0406
      7 C         -25.8099   -0.1265   29.3338 C.3     1  UNL1        0.0304
      8 C         -28.7093   -0.4588   30.1754 C.2     1  UNL1        0.3427
      9 O         -28.6701    0.3803   30.7522 O.2     1  UNL1       -0.2448
     10 O         -29.4758   -1.6155   30.6141 O.3     1  UNL1       -0.4186
     11 CL        -23.2807    2.3456   27.5534 Cl      1  UNL1       -0.1146
     12 F         -27.9576    0.7858   26.6493 F       1  UNL1       -0.2327
     13 C         -23.4523    0.4957   29.9280 C.2     1  UNL1       -0.0334
     14 C         -23.1519   -0.6663   30.4507 C.2     1  UNL1       -0.0478
     15 C         -22.3744   -0.9605   31.2930 C.3     1  UNL1        0.0260
     16 C         -23.4087   -1.7437   29.4986 C.3     1  UNL1        0.0260
     17 C         -29.6902   -2.6803   30.0494 C.3     1  UNL1        0.3214
     18 C         -29.5007   -3.8024   30.6102 C.3     1  UNL1        0.2210
     19 O         -29.7346   -4.9489   29.9288 O.3     1  UNL1       -0.3196
     20 C         -30.3900   -4.7847   28.8672 C.3     1  UNL1        0.3044
     21 C         -31.2346   -3.6281   29.0901 C.3     1  UNL1        0.2417
     22 O         -30.6053   -2.5059   29.2892 O.3     1  UNL1       -0.3077
     23 C         -32.2123   -3.4342   27.8296 C.2     1  UNL1        0.2421
     24 O         -32.0781   -2.4528   27.2123 O.2     1  UNL1       -0.2854
     25 O         -31.0865   -5.9707   28.5175 O.3     1  UNL1       -0.1866
@<TRIPOS>BOND
     1     1     2    2
     2     2     3    1
     3     3     4    1
     4     4     5    1
     5     5     6    1
     6     2     7    1
     7     6     7    1
     8     1     8    1
     9     8     9    2
    10     8    10    1
    11     5    11    1
    12     3    12    1
    13     6    13    1
    14    13    14    2
    15    14    15    1
    16    14    16    1
    17    10    17    1
    18    17    18    1
    19    18    19    1
    20    19    20    1
    21    20    21    1
    22    17    22    1
    23    21    22    1
    24    21    23    1
    25    23    24    2
    26    20    25    1
