@<TRIPOS>MOLECULE
No_1219-gen_results/8p0m/2024-11-26-14-13-15/
 15 16 0 0 0
SMALL
GASTEIGER

@<TRIPOS>ATOM
      1 C         -28.0162   -0.8135   28.8779 C.ar    1  UNL1        0.0813
      2 C         -27.0636   -0.1189   28.6079 C.ar    1  UNL1        0.0177
      3 C         -25.7923   -0.4302   29.0761 C.ar    1  UNL1        0.0018
      4 C         -24.5456    0.3494   28.8225 C.ar    1  UNL1        0.0080
      5 C         -24.6586    1.4196   27.8878 C.ar    1  UNL1        0.0975
      6 C         -25.9471    1.6811   27.3792 C.ar    1  UNL1        0.0080
      7 C         -27.0439    0.9739   27.6871 C.ar    1  UNL1        0.0018
      8 N         -29.1882   -0.1472   29.0918 N.ar    1  UNL1       -0.2438
      9 C         -30.2017   -0.7833   29.7303 C.ar    1  UNL1        0.0988
     10 C         -23.4507    2.1524   27.6005 C.2     1  UNL1        0.4766
     11 N         -22.5166    1.8358   27.2546 N.pl3   1  UNL1        0.2047
     12 N         -23.5362    3.5200   27.8728 N.pl3   1  UNL1        0.2047
     13 C         -29.9279   -1.9798   30.3433 C.ar    1  UNL1        0.0207
     14 C         -28.6766   -2.5789   30.3303 C.ar    1  UNL1        0.0031
     15 C         -27.6771   -1.8999   29.7829 C.ar    1  UNL1        0.0191
@<TRIPOS>BOND
     1     1     2    1
     2     5    10    1
     3    10    11    2
     4    10    12    1
     5     1     8   ar
     6     8     9   ar
     7     9    13   ar
     8    13    14   ar
     9    14    15   ar
    10    15     1   ar
    11     2     3   ar
    12     3     4   ar
    13     4     5   ar
    14     5     6   ar
    15     6     7   ar
    16     7     2   ar
