@<TRIPOS>MOLECULE
No_122-gen_results/8p0m/2024-11-26-14-13-15/
 20 22 0 0 0
SMALL
GASTEIGER

@<TRIPOS>ATOM
      1 C         -28.0162   -0.8135   28.8779 C.ar    1  UNL1        0.0019
      2 C         -27.0636   -0.1189   28.6079 C.ar    1  UNL1        0.0235
      3 C         -25.7923   -0.4302   29.0761 C.ar    1  UNL1       -0.0156
      4 C         -25.5756   -1.5654   29.9363 C.ar    1  UNL1       -0.0039
      5 C         -26.7354   -2.3004   30.2173 C.ar    1  UNL1       -0.0003
      6 C         -27.9184   -1.9537   29.7629 C.ar    1  UNL1        0.0001
      7 C         -27.1057    1.1023   27.7593 C.2     1  UNL1        0.1358
      8 C         -26.7157    2.2350   27.9945 C.2     1  UNL1        0.0053
      9 C         -26.0688    2.4770   29.3567 C.ar    1  UNL1       -0.0052
     10 C         -26.2621    3.4491   30.0956 C.ar    1  UNL1        0.0060
     11 C         -25.6340    3.5822   31.4192 C.ar    1  UNL1        0.0797
     12 C         -24.6717    2.6589   31.7915 C.ar    1  UNL1        0.0063
     13 C         -24.3736    1.6329   30.9475 C.ar    1  UNL1       -0.0037
     14 C         -25.0017    1.5278   29.7386 C.ar    1  UNL1       -0.0180
     15 C         -24.9308    0.2086   29.2049 C.3     1  UNL1        0.0527
     16 F         -28.3777    1.0798   27.1786 F       1  UNL1       -0.2045
     17 C         -25.8525    4.8140   32.2973 C.2     1  UNL1        0.3878
     18 O         -25.8275    5.7643   31.8831 O.co2   1  UNL1       -0.2406
     19 O         -26.3490    4.4364   33.5467 O.co2   1  UNL1       -0.2406
     20 C         -26.8516    3.4529   27.2383 C.3     1  UNL1        0.0334
@<TRIPOS>BOND
     1     2     7    1
     2     7     8    2
     3     8     9    1
     4     3    15    1
     5    14    15    1
     6     7    16    1
     7    11    17    1
     8    17    18   ar
     9    17    19   ar
    10     8    20    1
    11     1     2   ar
    12     2     3   ar
    13     3     4   ar
    14     4     5   ar
    15     5     6   ar
    16     6     1   ar
    17     9    10   ar
    18    10    11   ar
    19    11    12   ar
    20    12    13   ar
    21    13    14   ar
    22    14     9   ar
