@<TRIPOS>MOLECULE
No_1220-gen_results/8p0m/2024-11-26-14-13-15/
 26 28 0 0 0
SMALL
GASTEIGER

@<TRIPOS>ATOM
      1 C         -28.0162   -0.8135   28.8779 C.ar    1  UNL1        0.0442
      2 C         -28.4690   -0.7850   29.8287 C.ar    1  UNL1        0.0828
      3 C         -26.5455   -0.8762   28.8500 C.ar    1  UNL1        0.1484
      4 C         -25.8041   -1.0324   30.0571 C.ar    1  UNL1        0.0721
      5 C         -27.9437   -0.9869   31.2075 C.ar    1  UNL1        0.0069
      6 C         -26.5825   -1.0386   31.2231 C.ar    1  UNL1        0.0064
      7 C         -30.0606   -0.7371   29.9024 C.2     1  UNL1        0.3879
      8 O         -30.6052    0.0855   30.7066 O.co2   1  UNL1       -0.2406
      9 O         -30.6649   -1.4220   29.0648 O.co2   1  UNL1       -0.2406
     10 C         -24.3706   -1.0924   30.0778 C.ar    1  UNL1        0.1883
     11 N         -23.7556   -1.8170   30.6117 N.ar    1  UNL1       -0.1267
     12 N         -23.6921   -0.1357   29.3230 N.ar    1  UNL1       -0.1986
     13 C         -22.3361   -0.4440   29.4756 C.ar    1  UNL1        0.2655
     14 N         -22.4221   -1.4563   30.3296 N.ar    1  UNL1       -0.1200
     15 C         -21.2104    0.1929   28.9459 C.2     1  UNL1        0.4247
     16 O         -21.5999    1.0961   28.3504 O.co2   1  UNL1       -0.2370
     17 O         -20.1440   -0.4171   28.8450 O.co2   1  UNL1       -0.2370
     18 O         -25.8622   -0.8244   27.6790 O.3     1  UNL1       -0.4534
     19 C         -25.8875    0.3451   26.8796 C.2     1  UNL1        0.1453
     20 C         -25.4307    0.1874   25.6041 C.2     1  UNL1        0.0406
     21 C         -26.2918    1.5879   27.3231 C.ar    1  UNL1        0.0346
     22 C         -26.7503    1.8531   28.6447 C.ar    1  UNL1        0.0030
     23 C         -27.0655    3.2666   28.8936 C.ar    1  UNL1        0.0001
     24 C         -26.9615    4.1598   27.9130 C.ar    1  UNL1        0.0000
     25 C         -26.0554    2.7398   26.5456 C.ar    1  UNL1        0.0030
     26 C         -26.3147    3.9944   26.8170 C.ar    1  UNL1        0.0001
@<TRIPOS>BOND
     1     2     7    1
     2     7     8   ar
     3     7     9   ar
     4     4    10    1
     5    10    11   ar
     6    10    12   ar
     7    12    13   ar
     8    11    14   ar
     9    13    14   ar
    10    13    15    1
    11    15    16   ar
    12    15    17   ar
    13     3    18    1
    14    18    19    1
    15    19    20    2
    16    19    21    1
    17    21    22   ar
    18    22    23   ar
    19    23    24   ar
    20    24    26   ar
    21    26    25   ar
    22    25    21   ar
    23     1     2   ar
    24     2     5   ar
    25     5     6   ar
    26     6     4   ar
    27     4     3   ar
    28     3     1   ar
