@<TRIPOS>MOLECULE
No_1221-gen_results/8p0m/2024-11-26-14-13-15/
 22 24 0 0 0
SMALL
GASTEIGER

@<TRIPOS>ATOM
      1 O         -28.1229   -1.3353   28.4874 O.2     1  UNL1       -0.2733
      2 C         -27.4806   -0.4044   28.7094 C.2     1  UNL1        0.2426
      3 N         -27.2412    0.3910   29.5098 N.am    1  UNL1       -0.2068
      4 C         -26.2388   -0.3380   27.6778 C.3     1  UNL1        0.1031
      5 C         -25.3094    0.6912   27.7522 C.3     1  UNL1        0.0908
      6 C         -25.3619    1.5421   28.8283 C.3     1  UNL1        0.0387
      7 C         -26.3549    1.4061   29.7468 C.3     1  UNL1        0.1008
      8 CL        -24.0688    0.6344   26.6316 Cl      1  UNL1       -0.1144
      9 C         -26.3800    2.3627   30.8543 C.3     1  UNL1        0.0467
     10 C         -25.9824    1.9332   32.0797 C.3     1  UNL1        0.0324
     11 C         -26.4722    2.0122   33.0386 C.ar    1  UNL1       -0.0218
     12 C         -27.8129    1.7673   33.2353 C.ar    1  UNL1       -0.0043
     13 C         -28.3211    1.4970   34.4738 C.ar    1  UNL1       -0.0003
     14 C         -27.6083    1.7841   35.6136 C.ar    1  UNL1       -0.0000
     15 C         -26.3075    2.1755   35.5447 C.ar    1  UNL1       -0.0003
     16 C         -25.7061    2.2124   34.3577 C.ar    1  UNL1       -0.0043
     17 C         -27.0142    3.6065   30.6596 C.ar    1  UNL1       -0.0205
     18 C         -28.3043    3.6962   30.1188 C.ar    1  UNL1       -0.0042
     19 C         -28.8562    4.9158   29.9783 C.ar    1  UNL1       -0.0003
     20 C         -26.2951    4.7701   30.9751 C.ar    1  UNL1       -0.0042
     21 C         -26.8446    6.0395   30.8290 C.ar    1  UNL1       -0.0003
     22 C         -28.1469    6.1059   30.3136 C.ar    1  UNL1       -0.0000
@<TRIPOS>BOND
     1     1     2    2
     2     2     3   am
     3     2     4    1
     4     5     6    1
     5     6     7    1
     6     5     8    1
     7     7     9    1
     8     9    10    1
     9     9    17    1
    10    10    11    1
    11     3     7    1
    12     5     4    1
    13    17    18   ar
    14    18    19   ar
    15    19    22   ar
    16    22    21   ar
    17    21    20   ar
    18    20    17   ar
    19    11    12   ar
    20    12    13   ar
    21    13    14   ar
    22    14    15   ar
    23    15    16   ar
    24    16    11   ar
