@<TRIPOS>MOLECULE
No_1222-gen_results/8p0m/2024-11-26-14-13-15/
 22 23 0 0 0
SMALL
GASTEIGER

@<TRIPOS>ATOM
      1 C         -28.0162   -0.8135   28.8779 C.ar    1  UNL1       -0.0042
      2 C         -28.4690   -0.7850   29.8287 C.ar    1  UNL1       -0.0003
      3 C         -26.5455   -0.8762   28.8500 C.ar    1  UNL1       -0.0217
      4 C         -25.6825   -0.7773   27.6829 C.3     1  UNL1        0.0523
      5 C         -27.9181   -1.0034   31.1877 C.ar    1  UNL1       -0.0003
      6 C         -26.6533   -0.9210   31.2338 C.ar    1  UNL1       -0.0046
      7 C         -25.7947   -0.9499   30.1098 C.ar    1  UNL1       -0.0257
      8 C         -25.8688    0.2526   26.7514 C.ar    1  UNL1       -0.0176
      9 C         -24.8800    0.7801   26.0725 C.ar    1  UNL1       -0.0039
     10 C         -24.1894    1.8088   26.2567 C.ar    1  UNL1       -0.0001
     11 C         -24.3827    2.6470   27.4111 C.ar    1  UNL1        0.0066
     12 C         -25.6596    2.6679   27.8953 C.ar    1  UNL1        0.0795
     13 C         -26.4000    1.6062   27.8256 C.ar    1  UNL1        0.0026
     14 C         -26.0376    3.6781   28.8856 C.2     1  UNL1        0.3877
     15 O         -26.9331    3.6288   29.5346 O.co2   1  UNL1       -0.2406
     16 O         -25.3992    4.9350   28.6629 O.co2   1  UNL1       -0.2406
     17 C         -24.4057   -0.9424   30.1966 C.3     1  UNL1        0.0294
     18 C         -23.5746   -0.1195   30.0330 C.3     1  UNL1        0.0689
     19 C         -23.7201    1.2787   30.3431 C.3     1  UNL1        0.0086
     20 C         -22.2400   -0.3921   29.3584 C.2     1  UNL1        0.2073
     21 C         -23.9366   -2.3588   30.5538 C.3     1  UNL1        0.0051
     22 O         -21.8085   -1.4794   29.1508 O.2     1  UNL1       -0.2883
@<TRIPOS>BOND
     1     3     4    1
     2     4     8    1
     3    12    14    1
     4    14    15   ar
     5    14    16   ar
     6     7    17    1
     7    17    18    1
     8    18    19    1
     9    18    20    1
    10    17    21    1
    11    20    22    2
    12     8     9   ar
    13     9    10   ar
    14    10    11   ar
    15    11    12   ar
    16    12    13   ar
    17    13     8   ar
    18     1     2   ar
    19     2     5   ar
    20     5     6   ar
    21     6     7   ar
    22     7     3   ar
    23     3     1   ar
