@<TRIPOS>MOLECULE
No_1223-gen_results/8p0m/2024-11-26-14-13-15/
 26 27 0 0 0
SMALL
GASTEIGER

@<TRIPOS>ATOM
      1 O         -28.1229   -1.3353   28.4874 O.2     1  UNL1       -0.2745
      2 C         -28.5208   -0.4363   29.0779 C.2     1  UNL1        0.2295
      3 C         -28.5894    0.5916   28.9464 C.3     1  UNL1        0.0994
      4 N         -28.7865   -0.8872   30.4874 N.am    1  UNL1       -0.2750
      5 C         -27.7841    1.2822   27.9869 C.ar    1  UNL1       -0.0142
      6 C         -27.2940    2.5462   27.9405 C.ar    1  UNL1       -0.0038
      7 C         -26.4932    3.1208   26.8267 C.ar    1  UNL1       -0.0006
      8 C         -26.0139    2.2175   25.8520 C.ar    1  UNL1       -0.0043
      9 C         -26.4277    0.9050   25.9133 C.ar    1  UNL1       -0.0222
     10 C         -27.2284    0.4525   26.9170 C.ar    1  UNL1       -0.0081
     11 C         -29.2247   -0.0437   31.5440 C.3     1  UNL1        0.0942
     12 C         -28.6879   -2.3562   30.8402 C.3     1  UNL1        0.1246
     13 C         -30.3430    0.4876   31.2544 C.3     1  UNL1        0.0307
     14 C         -30.2825    1.7476   30.3557 C.3     1  UNL1        0.0811
     15 C         -29.4445    1.8040   29.4964 C.3     1  UNL1        0.0227
     16 C         -31.2430    2.8186   30.5527 C.2     1  UNL1        0.2452
     17 O         -32.0628    2.8496   31.3048 O.2     1  UNL1       -0.2730
     18 N         -31.0740    3.8820   29.6552 N.am    1  UNL1       -0.1782
     19 C         -31.8651    5.0241   29.6847 C.2     1  UNL1        0.0841
     20 C         -27.4419   -2.8046   30.6438 C.2     1  UNL1        0.0557
     21 C         -27.2991   -4.2053   30.1288 C.2     1  UNL1        0.2762
     22 F         -28.2866   -4.9301   30.3404 F       1  UNL1       -0.1723
     23 F         -26.3183   -4.6983   29.5509 F       1  UNL1       -0.1723
     24 C         -25.9374    0.0010   24.9130 C.3     1  UNL1        0.0310
     25 C         -31.7492    5.7815   28.6490 C.2     1  UNL1       -0.0079
     26 C         -32.2507    6.8581   28.3483 C.3     1  UNL1        0.0321
@<TRIPOS>BOND
     1     1     2    2
     2     2     3    1
     3     2     4   am
     4     3     5    1
     5     4    11    1
     6     4    12    1
     7    11    13    1
     8    13    14    1
     9     3    15    1
    10    14    15    1
    11    14    16    1
    12    16    17    2
    13    16    18   am
    14    18    19    1
    15    12    20    1
    16    20    21    2
    17    21    22    1
    18    21    23    1
    19     9    24    1
    20    19    25    2
    21    25    26    1
    22     5     6   ar
    23     6     7   ar
    24     7     8   ar
    25     8     9   ar
    26     9    10   ar
    27    10     5   ar
