@<TRIPOS>MOLECULE
No_1224-gen_results/8p0m/2024-11-26-14-13-15/
 29 31 0 0 0
SMALL
GASTEIGER

@<TRIPOS>ATOM
      1 O         -28.1229   -1.3353   28.4874 O.2     1  UNL1       -0.2698
      2 C         -27.0637   -0.8242   28.8687 C.2     1  UNL1        0.2518
      3 C         -26.4017   -0.0623   28.6224 C.ar    1  UNL1        0.0561
      4 N         -26.2652   -1.8674   29.7609 N.am    1  UNL1       -0.2353
      5 C         -26.8442    1.1343   27.8798 C.ar    1  UNL1        0.0838
      6 C         -26.6915   -3.0657   30.1340 C.3     1  UNL1        0.3201
      7 C         -25.1977    0.4601   29.4503 C.ar    1  UNL1       -0.0159
      8 C         -24.4614    1.5974   29.1797 C.ar    1  UNL1       -0.0041
      9 C         -24.9364    2.5924   28.3485 C.ar    1  UNL1       -0.0001
     10 C         -26.1103    2.3166   27.5990 C.ar    1  UNL1        0.0067
     11 C         -25.0196   -1.5758   30.3187 C.3     1  UNL1        0.1022
     12 C         -24.4760   -0.4836   30.2089 C.3     1  UNL1        0.0481
     13 C         -28.0274    0.9454   27.0075 C.2     1  UNL1        0.3879
     14 O         -29.0500    1.1988   27.4027 O.co2   1  UNL1       -0.2406
     15 O         -27.8463    0.3880   25.8481 O.co2   1  UNL1       -0.2406
     16 F         -26.1016   -4.0450   29.5567 F       1  UNL1       -0.1939
     17 N         -28.1784   -3.2074   29.7105 N.3     1  UNL1       -0.1494
     18 C         -28.8586   -4.2101   30.4512 C.3     1  UNL1        0.2109
     19 BR        -28.2326   -5.2121   31.7950 Br      1  UNL1       -0.0522
     20 C         -30.2247   -4.4477   29.9738 C.2     1  UNL1        0.2726
     21 O         -30.9448   -3.6303   29.7400 O.2     1  UNL1       -0.2705
     22 N         -30.5378   -5.8288   29.7466 N.am    1  UNL1       -0.1750
     23 C         -31.7414   -6.2436   29.1665 C.ar    1  UNL1        0.1008
     24 C         -32.6333   -6.4566   29.9395 C.ar    1  UNL1        0.0189
     25 C         -33.9390   -6.7735   29.4145 C.ar    1  UNL1        0.0015
     26 C         -34.0677   -6.9127   28.0026 C.ar    1  UNL1        0.0024
     27 C         -32.9909   -6.6191   27.1672 C.ar    1  UNL1        0.0310
     28 C         -31.7188   -6.2146   27.7267 C.ar    1  UNL1        0.1553
     29 F         -30.7124   -5.9345   26.9949 F       1  UNL1       -0.2028
@<TRIPOS>BOND
     1     1     2    2
     2     2     3    1
     3     2     4   am
     4     4     6    1
     5     4    11    1
     6     7    12    1
     7     5    13    1
     8    13    14   ar
     9    13    15   ar
    10     6    16    1
    11     6    17    1
    12    17    18    1
    13    18    19    1
    14    18    20    1
    15    20    21    2
    16    20    22   am
    17    22    23    1
    18    28    29    1
    19    12    11    1
    20     3     5   ar
    21     5    10   ar
    22    10     9   ar
    23     9     8   ar
    24     8     7   ar
    25     7     3   ar
    26    23    24   ar
    27    24    25   ar
    28    25    26   ar
    29    26    27   ar
    30    27    28   ar
    31    28    23   ar
