@<TRIPOS>MOLECULE
No_1226-gen_results/8p0m/2024-11-26-14-13-15/
 21 24 0 0 0
SMALL
GASTEIGER

@<TRIPOS>ATOM
      1 C         -28.0162   -0.8135   28.8779 C.ar    1  UNL1        0.0013
      2 C         -27.0636   -0.1189   28.6079 C.ar    1  UNL1        0.0153
      3 C         -25.7923   -0.4302   29.0761 C.ar    1  UNL1        0.0704
      4 C         -25.5756   -1.5654   29.9363 C.ar    1  UNL1        0.0165
      5 C         -26.7354   -2.3004   30.2173 C.ar    1  UNL1        0.0013
      6 C         -27.9184   -1.9537   29.7629 C.ar    1  UNL1        0.0001
      7 C         -27.1057    1.1023   27.7593 C.ar    1  UNL1        0.0025
      8 C         -27.8576    1.5309   27.2156 C.ar    1  UNL1        0.0001
      9 C         -27.8433    2.7213   26.2861 C.ar    1  UNL1        0.0000
     10 C         -26.6217    3.3253   26.0566 C.ar    1  UNL1        0.0000
     11 C         -25.4854    2.7960   26.6725 C.ar    1  UNL1        0.0012
     12 C         -25.6222    1.7365   27.5193 C.ar    1  UNL1        0.0152
     13 C         -24.1950    3.4456   26.4809 C.ar    1  UNL1        0.0000
     14 C         -23.0515    2.5919   26.8713 C.ar    1  UNL1        0.0052
     15 C         -23.3205    1.5393   27.7878 C.ar    1  UNL1        0.0866
     16 C         -24.5158    1.0792   28.0506 C.ar    1  UNL1        0.0743
     17 N         -24.6232    0.1531   28.7961 N.pl3   1  UNL1       -0.2125
     18 C         -22.0925    0.8907   28.3495 C.3     1  UNL1        0.4198
     19 F         -20.9786    1.1932   28.1173 F       1  UNL1       -0.1658
     20 F         -22.2111    0.9440   29.8121 F       1  UNL1       -0.1658
     21 F         -22.2164   -0.4574   28.0795 F       1  UNL1       -0.1658
@<TRIPOS>BOND
     1     2     7    1
     2     3    17    1
     3    16    17    1
     4    15    18    1
     5    18    19    1
     6    18    20    1
     7    18    21    1
     8     7     8   ar
     9     8     9   ar
    10     9    10   ar
    11    10    11   ar
    12    12     7   ar
    13     1     2   ar
    14     2     3   ar
    15     3     4   ar
    16     4     5   ar
    17     5     6   ar
    18     6     1   ar
    19    11    12   ar
    20    12    16   ar
    21    16    15   ar
    22    15    14   ar
    23    14    13   ar
    24    13    11   ar
