@<TRIPOS>MOLECULE
No_1227-gen_results/8p0m/2024-11-26-14-13-15/
 19 20 0 0 0
SMALL
GASTEIGER

@<TRIPOS>ATOM
      1 C         -28.0162   -0.8135   28.8779 C.ar    1  UNL1       -0.0024
      2 C         -28.4690   -0.7850   29.8287 C.ar    1  UNL1        0.0039
      3 C         -26.5042   -0.7777   28.8766 C.ar    1  UNL1       -0.0003
      4 C         -25.8103   -0.8531   30.1028 C.ar    1  UNL1       -0.0000
      5 C         -27.9906   -0.8916   31.2257 C.ar    1  UNL1       -0.0024
      6 C         -26.6042   -0.8676   31.2652 C.ar    1  UNL1       -0.0003
      7 C         -30.0739   -0.8360   29.8615 C.3     1  UNL1        0.1918
      8 N         -30.6529   -1.7943   30.2676 N.3     1  UNL1       -0.1182
      9 C         -30.5853   -0.3977   28.4870 C.2     1  UNL1        0.2670
     10 N         -30.1747    0.6348   27.9233 N.am    1  UNL1       -0.1808
     11 C         -30.7312    1.4267   27.1861 C.2     1  UNL1        0.0670
     12 C         -32.0460    1.3438   27.0348 C.3     1  UNL1        0.0705
     13 O         -31.3396   -1.1453   27.8536 O.2     1  UNL1       -0.2711
     14 C         -32.8652    1.1507   27.7026 C.ar    1  UNL1       -0.0164
     15 C         -32.6589    1.2886   29.1503 C.ar    1  UNL1       -0.0039
     16 C         -33.7009    0.8792   30.0916 C.ar    1  UNL1       -0.0003
     17 C         -34.8504    0.7444   29.6246 C.ar    1  UNL1       -0.0000
     18 C         -35.1885    0.7509   28.2719 C.ar    1  UNL1       -0.0003
     19 C         -34.2355    0.9388   27.3737 C.ar    1  UNL1       -0.0039
@<TRIPOS>BOND
     1     2     7    1
     2     7     8    1
     3     7     9    1
     4     9    10    1
     5    10    11    2
     6    11    12    1
     7     9    13    2
     8    12    14    1
     9    14    15   ar
    10    15    16   ar
    11    16    17   ar
    12    17    18   ar
    13    18    19   ar
    14    19    14   ar
    15     1     2   ar
    16     2     5   ar
    17     5     6   ar
    18     6     4   ar
    19     4     3   ar
    20     3     1   ar
