@<TRIPOS>MOLECULE
No_1228-gen_results/8p0m/2024-11-26-14-13-15/
 20 23 0 0 0
SMALL
GASTEIGER

@<TRIPOS>ATOM
      1 C         -28.0162   -0.8135   28.8779 C.ar    1  UNL1       -0.0027
      2 C         -28.4690   -0.7850   29.8287 C.ar    1  UNL1       -0.0002
      3 C         -28.1816    0.4277   28.1134 C.ar    1  UNL1       -0.0041
      4 C         -28.9841    1.4155   28.5154 C.ar    1  UNL1        0.0616
      5 C         -29.3802    0.1384   30.4612 C.ar    1  UNL1        0.0013
      6 C         -29.5415    1.2736   29.7242 C.ar    1  UNL1        0.0158
      7 C         -27.4452    0.4872   26.7726 C.3     1  UNL1        0.0405
      8 C         -26.0008    0.3969   26.7906 C.ar    1  UNL1       -0.0189
      9 C         -25.2463    1.0863   25.9144 C.ar    1  UNL1       -0.0043
     10 C         -23.8497    1.1473   26.0086 C.ar    1  UNL1       -0.0046
     11 C         -23.3723    1.4171   27.2891 C.ar    1  UNL1       -0.0219
     12 C         -24.1069    0.7207   28.3448 C.ar    1  UNL1       -0.0046
     13 C         -25.3796    0.3453   28.1617 C.ar    1  UNL1       -0.0043
     14 C         -27.9371   -0.5182   25.7581 C.3     1  UNL1        0.0082
     15 C         -27.9047    1.8969   26.2104 C.3     1  UNL1        0.0292
     16 N         -29.0660    2.5011   27.7561 N.pl3   1  UNL1       -0.2379
     17 C         -28.5665    2.7952   26.6151 C.3     1  UNL1        0.1128
     18 C         -21.9288    1.6444   27.4805 C.3     1  UNL1        0.0310
     19 C         -28.6525    0.0916   24.5968 C.3     1  UNL1        0.0007
     20 C         -27.8585    1.7283   24.6319 C.3     1  UNL1        0.0024
@<TRIPOS>BOND
     1     3     7    1
     2     7     8    1
     3     7    14    1
     4     7    15    1
     5    16    17    1
     6    11    18    1
     7    14    19    1
     8    15    20    1
     9    19    20    1
    10     4    16    1
    11    17    15    1
    12     8     9   ar
    13     9    10   ar
    14    10    11   ar
    15    11    12   ar
    16    12    13   ar
    17    13     8   ar
    18     1     2   ar
    19     2     5   ar
    20     5     6   ar
    21     6     4   ar
    22     4     3   ar
    23     3     1   ar
