@<TRIPOS>MOLECULE
No_123-gen_results/8p0m/2024-11-26-14-13-15/
 24 27 0 0 0
SMALL
GASTEIGER

@<TRIPOS>ATOM
      1 C         -28.0162   -0.8135   28.8779 C.ar    1  UNL1       -0.0003
      2 C         -27.0636   -0.1189   28.6079 C.ar    1  UNL1       -0.0043
      3 C         -25.7923   -0.4302   29.0761 C.ar    1  UNL1       -0.0003
      4 C         -25.5756   -1.5654   29.9363 C.ar    1  UNL1       -0.0000
      5 C         -26.7354   -2.3004   30.2173 C.ar    1  UNL1       -0.0000
      6 C         -27.9184   -1.9537   29.7629 C.ar    1  UNL1       -0.0000
      7 C         -27.1057    1.1023   27.7593 C.ar    1  UNL1       -0.0258
      8 C         -26.1219    1.4820   27.0232 C.ar    1  UNL1       -0.0258
      9 C         -24.7142    1.1299   27.4889 C.ar    1  UNL1       -0.0043
     10 C         -24.5718    0.0966   28.4066 C.ar    1  UNL1       -0.0003
     11 C         -23.5476    1.7679   26.9015 C.ar    1  UNL1       -0.0003
     12 C         -22.3959    1.9123   27.7199 C.ar    1  UNL1       -0.0000
     13 C         -22.1510    0.9229   28.7176 C.ar    1  UNL1       -0.0000
     14 C         -23.2894    0.0291   29.1478 C.ar    1  UNL1       -0.0000
     15 C         -27.6702    2.1987   28.6165 C.3     1  UNL1        0.0307
     16 C         -29.0612    2.4634   28.0861 C.3     1  UNL1        0.0310
     17 C         -26.2527    2.0443   25.6895 C.3     1  UNL1        0.0307
     18 C         -29.3213    2.1689   26.9894 C.ar    1  UNL1       -0.0222
     19 C         -30.6777    2.3302   26.5276 C.ar    1  UNL1       -0.0043
     20 C         -31.0463    1.8645   25.2379 C.ar    1  UNL1       -0.0006
     21 C         -30.0911    1.2405   24.4006 C.ar    1  UNL1       -0.0043
     22 C         -28.8718    0.9496   24.8920 C.ar    1  UNL1       -0.0222
     23 C         -27.9121    0.2167   24.1473 C.3     1  UNL1        0.0310
     24 C         -28.5028    1.4223   26.2340 C.ar    1  UNL1       -0.0085
@<TRIPOS>BOND
     1     7    15    1
     2    15    16    1
     3     8    17    1
     4    22    23    1
     5    16    18    1
     6     1     2   ar
     7     3     4   ar
     8     4     5   ar
     9     5     6   ar
    10     6     1   ar
    11     2     3   ar
    12     3    10   ar
    13     9     8   ar
    14     8     7   ar
    15     7     2   ar
    16     9    10   ar
    17    10    14   ar
    18    14    13   ar
    19    13    12   ar
    20    12    11   ar
    21    11     9   ar
    22    18    19   ar
    23    19    20   ar
    24    20    21   ar
    25    21    22   ar
    26    22    24   ar
    27    24    18   ar
