@<TRIPOS>MOLECULE
No_1230-gen_results/8p0m/2024-11-26-14-13-15/
 35 38 0 0 0
SMALL
GASTEIGER

@<TRIPOS>ATOM
      1 C         -28.0162   -0.8135   28.8779 C.ar    1  UNL1        0.0370
      2 C         -27.0636   -0.1189   28.6079 C.ar    1  UNL1        0.0053
      3 C         -25.7923   -0.4302   29.0761 C.ar    1  UNL1        0.0277
      4 C         -24.5456    0.3494   28.8225 C.ar    1  UNL1        0.1401
      5 C         -23.2409    0.0217   29.3323 C.ar    1  UNL1        0.0296
      6 C         -27.8820   -1.8995   29.8633 C.ar    1  UNL1        0.1387
      7 C         -26.6706   -2.3272   30.3212 C.ar    1  UNL1        0.0370
      8 C         -25.5433   -1.5852   29.9316 C.ar    1  UNL1        0.0052
      9 C         -23.1550   -1.2815   29.8844 C.ar    1  UNL1        0.0023
     10 C         -24.2416   -1.9858   30.3143 C.ar    1  UNL1        0.0002
     11 F         -24.6000    1.4462   28.0950 F       1  UNL1       -0.2042
     12 O         -29.0145   -2.6193   30.2053 O.3     1  UNL1       -0.4728
     13 C         -30.0821   -2.0228   30.7735 C.3     1  UNL1        0.2363
     14 C         -30.6255   -2.7912   31.7256 C.3     1  UNL1        0.1796
     15 O         -31.5985   -2.4214   32.2036 O.3     1  UNL1       -0.3508
     16 C         -30.8094   -4.2737   31.2270 C.3     1  UNL1        0.1629
     17 C         -29.8335   -5.1641   31.6366 C.3     1  UNL1        0.2889
     18 N         -32.0821   -4.8393   31.7977 N.3     1  UNL1       -0.2073
     19 C         -32.6412   -5.7984   31.0568 C.3     1  UNL1        0.1397
     20 O         -30.1006   -6.5444   31.2751 O.3     1  UNL1       -0.3092
     21 C         -31.5234   -6.7445   31.2807 C.3     1  UNL1        0.2124
     22 N         -31.5883   -7.9708   30.2235 N.pl3   1  UNL1       -0.2835
     23 C         -31.8723   -7.8265   29.0067 C.2     1  UNL1        0.0588
     24 C         -31.7370   -8.9849   28.1919 C.2     1  UNL1       -0.0046
     25 C         -31.4851   -9.2885   30.5448 C.3     1  UNL1        0.1017
     26 C         -31.4942   -9.9808   29.2616 C.3     1  UNL1        0.0650
     27 O         -28.4644   -4.9310   31.1011 O.3     1  UNL1       -0.1882
     28 C         -31.2828  -11.3464   29.0454 C.2     1  UNL1       -0.0203
     29 C         -30.5095  -11.8549   28.5208 C.2     1  UNL1       -0.0042
     30 C         -29.7967  -12.4308   28.0781 C.2     1  UNL1       -0.0003
     31 C         -28.6079  -12.4975   27.4189 C.2     1  UNL1       -0.0000
     32 C         -27.6156  -12.7600   26.5487 C.2     1  UNL1       -0.0000
     33 C         -26.5014  -13.3278   26.5415 C.2     1  UNL1       -0.0000
     34 C         -31.5047   -1.2102   33.0293 C.3     1  UNL1        0.1424
     35 C         -31.7321   -0.1376   32.3087 C.3     1  UNL1        0.0346
@<TRIPOS>BOND
     1     4    11    1
     2     6    12    1
     3    12    13    1
     4    13    14    1
     5    14    15    1
     6    14    16    1
     7    16    17    1
     8    16    18    1
     9    18    19    1
    10    17    20    1
    11    19    21    1
    12    20    21    1
    13    21    22    1
    14    22    23    1
    15    23    24    2
    16    22    25    1
    17    24    26    1
    18    25    26    1
    19    17    27    1
    20    26    28    1
    21    28    29    2
    22    29    30    1
    23    30    31    2
    24    31    32    1
    25    32    33    2
    26    15    34    1
    27    34    35    1
    28     1     2   ar
    29     2     3   ar
    30     8     7   ar
    31     7     6   ar
    32     6     1   ar
    33     3     4   ar
    34     4     5   ar
    35     5     9   ar
    36     9    10   ar
    37    10     8   ar
    38     8     3   ar
