@<TRIPOS>MOLECULE
No_1231-gen_results/8p0m/2024-11-26-14-13-15/
 19 20 0 0 0
SMALL
GASTEIGER

@<TRIPOS>ATOM
      1 C         -28.0162   -0.8135   28.8779 C.ar    1  UNL1       -0.0040
      2 C         -28.4690   -0.7850   29.8287 C.ar    1  UNL1       -0.0003
      3 C         -28.1816    0.4277   28.1134 C.ar    1  UNL1       -0.0184
      4 C         -28.9841    1.4155   28.5154 C.ar    1  UNL1       -0.0040
      5 C         -29.3802    0.1384   30.4612 C.ar    1  UNL1       -0.0000
      6 C         -29.5415    1.2736   29.7242 C.ar    1  UNL1       -0.0003
      7 C         -27.4586    0.4934   26.7701 C.3     1  UNL1        0.0442
      8 C         -26.0264    0.3840   26.7617 C.3     1  UNL1        0.0131
      9 C         -25.2257    1.3507   27.3721 C.3     1  UNL1        0.0230
     10 C         -23.8545    1.0997   27.5822 C.ar    1  UNL1       -0.0225
     11 C         -23.4145   -0.0549   28.1094 C.ar    1  UNL1       -0.0043
     12 C         -22.0584   -0.1657   28.5524 C.ar    1  UNL1       -0.0003
     13 C         -21.1282    0.7609   28.1424 C.ar    1  UNL1       -0.0000
     14 C         -21.5562    1.9701   27.5549 C.ar    1  UNL1       -0.0003
     15 C         -22.9513    2.1399   27.3265 C.ar    1  UNL1       -0.0043
     16 C         -25.7707    2.6774   27.6525 C.3     1  UNL1        0.0047
     17 C         -28.1911    0.5715   25.5941 C.2     1  UNL1       -0.0266
     18 C         -27.9459   -0.0427   24.5459 C.2     1  UNL1       -0.0300
     19 C         -28.8239    0.0080   23.3607 C.3     1  UNL1        0.0304
@<TRIPOS>BOND
     1     3     7    1
     2     7     8    1
     3     8     9    1
     4     9    16    1
     5     7    17    1
     6    17    18    2
     7    18    19    1
     8     9    10    1
     9     1     2   ar
    10     2     5   ar
    11     5     6   ar
    12     6     4   ar
    13     4     3   ar
    14     3     1   ar
    15    10    11   ar
    16    11    12   ar
    17    12    13   ar
    18    13    14   ar
    19    14    15   ar
    20    15    10   ar
