@<TRIPOS>MOLECULE
No_1232-gen_results/8p0m/2024-11-26-14-13-15/
 14 15 0 0 0
SMALL
GASTEIGER

@<TRIPOS>ATOM
      1 C         -28.0162   -0.8135   28.8779 C.ar    1  UNL1       -0.0000
      2 C         -28.4690   -0.7850   29.8287 C.ar    1  UNL1       -0.0000
      3 C         -26.5455   -0.8762   28.8500 C.ar    1  UNL1       -0.0000
      4 C         -25.6825   -0.7773   27.6829 C.ar    1  UNL1       -0.0001
      5 C         -27.9181   -1.0034   31.1877 C.ar    1  UNL1       -0.0000
      6 C         -26.5308   -1.0794   31.2463 C.ar    1  UNL1       -0.0000
      7 C         -25.7798   -1.0462   30.0905 C.ar    1  UNL1       -0.0001
      8 C         -24.3676   -0.2501   27.7917 C.ar    1  UNL1        0.0039
      9 C         -23.6808   -0.4762   29.0175 C.ar    1  UNL1        0.0714
     10 C         -24.3689   -0.7866   30.1443 C.ar    1  UNL1        0.0039
     11 C         -22.2229   -0.1809   29.0568 C.3     1  UNL1        0.4186
     12 F         -21.9181    0.6100   29.9372 F       1  UNL1       -0.1659
     13 F         -21.8246    0.4276   27.8630 F       1  UNL1       -0.1659
     14 F         -21.5029   -1.3173   29.2276 F       1  UNL1       -0.1659
@<TRIPOS>BOND
     1     9    11    1
     2    11    12    1
     3    11    13    1
     4    11    14    1
     5     1     2   ar
     6     2     5   ar
     7     5     6   ar
     8     6     7   ar
     9     3     1   ar
    10     3     4   ar
    11     4     8   ar
    12     8     9   ar
    13     9    10   ar
    14    10     7   ar
    15     7     3   ar
