@<TRIPOS>MOLECULE
No_1234-gen_results/8p0m/2024-11-26-14-13-15/
 10 10 0 0 0
SMALL
GASTEIGER

@<TRIPOS>ATOM
      1 C         -28.0162   -0.8135   28.8779 C.ar    1  UNL1        0.0180
      2 C         -27.0636   -0.1190   28.6079 C.ar    1  UNL1        0.0579
      3 C         -25.7923   -0.4302   29.0761 C.ar    1  UNL1        0.0114
      4 C         -25.5756   -1.5654   29.9363 C.ar    1  UNL1        0.0011
      5 C         -26.7354   -2.3004   30.2173 C.ar    1  UNL1        0.0066
      6 C         -27.9184   -1.9537   29.7629 C.ar    1  UNL1        0.0806
      7 CL        -27.1463    1.2916   27.6407 Cl      1  UNL1       -0.0822
      8 C         -29.0683   -2.7883   30.1813 C.2     1  UNL1        0.3878
      9 O         -30.1058   -2.4376   29.9921 O.co2   1  UNL1       -0.2406
     10 O         -28.8030   -3.9112   30.8167 O.co2   1  UNL1       -0.2406
@<TRIPOS>BOND
     1     2     7    1
     2     6     8    1
     3     8     9   ar
     4     8    10   ar
     5     1     2   ar
     6     2     3   ar
     7     3     4   ar
     8     4     5   ar
     9     5     6   ar
    10     6     1   ar
