@<TRIPOS>MOLECULE
No_1235-gen_results/8p0m/2024-11-26-14-13-15/
 14 16 0 0 0
SMALL
GASTEIGER

@<TRIPOS>ATOM
      1 C         -28.0162   -0.8135   28.8779 C.ar    1  UNL1        0.0000
      2 C         -28.4690   -0.7850   29.8287 C.ar    1  UNL1        0.0000
      3 C         -27.1356    0.2359   28.5352 C.ar    1  UNL1        0.0000
      4 C         -26.8745    1.2825   29.3982 C.ar    1  UNL1        0.0000
      5 C         -25.9742    2.3797   29.0831 C.ar    1  UNL1        0.0015
      6 C         -28.3915    0.1302   30.9603 C.ar    1  UNL1        0.0000
      7 C         -27.5035    1.2424   30.6700 C.ar    1  UNL1        0.0000
      8 C         -25.3913    2.5625   28.0344 C.ar    1  UNL1        0.0192
      9 C         -24.5135    3.6871   27.7241 C.ar    1  UNL1        0.0988
     10 C         -25.3934    1.5397   26.9757 C.ar    1  UNL1        0.0030
     11 C         -26.3756    0.2724   27.2386 C.ar    1  UNL1        0.0001
     12 N         -23.8071    3.5727   26.5033 N.ar    1  UNL1       -0.2423
     13 C         -23.6974    2.4204   25.8913 C.ar    1  UNL1        0.0989
     14 C         -24.5945    1.4431   25.9314 C.ar    1  UNL1        0.0207
@<TRIPOS>BOND
     1     1     2   ar
     2     2     6   ar
     3     6     7   ar
     4     7     4   ar
     5     3     1   ar
     6     3     4   ar
     7     4     5   ar
     8     5     8   ar
     9    10    11   ar
    10    11     3   ar
    11     8     9   ar
    12     9    12   ar
    13    12    13   ar
    14    13    14   ar
    15    14    10   ar
    16    10     8   ar
