@<TRIPOS>MOLECULE
No_1236-gen_results/8p0m/2024-11-26-14-13-15/
 19 20 0 0 0
SMALL
GASTEIGER

@<TRIPOS>ATOM
      1 C         -28.0162   -0.8135   28.8779 C.3     1  UNL1        0.0310
      2 C         -27.0636   -0.1190   28.6079 C.ar    1  UNL1       -0.0218
      3 C         -26.8756    1.1325   28.9134 C.ar    1  UNL1       -0.0042
      4 C         -25.6883    1.9515   28.5672 C.ar    1  UNL1        0.0014
      5 C         -24.6394    1.2834   27.8753 C.ar    1  UNL1        0.0240
      6 C         -24.8068   -0.0513   27.6040 C.ar    1  UNL1        0.0014
      7 C         -25.9019   -0.7670   27.9511 C.ar    1  UNL1       -0.0042
      8 C         -28.6392   -0.5118   30.2403 C.3     1  UNL1        0.0310
      9 C         -29.6536   -1.1144   30.6354 C.ar    1  UNL1       -0.0218
     10 C         -23.4500    1.9911   27.4655 C.2     1  UNL1        0.1592
     11 N         -23.1429    2.6575   26.6254 N.2     1  UNL1       -0.1431
     12 C         -22.2014    1.6231   28.3645 C.2     1  UNL1        0.3037
     13 C         -30.2319   -2.1536   29.8404 C.ar    1  UNL1       -0.0043
     14 C         -31.2972   -2.9465   30.4270 C.ar    1  UNL1       -0.0003
     15 C         -31.7480   -2.6837   31.3823 C.ar    1  UNL1       -0.0000
     16 C         -31.3694   -1.6865   32.3373 C.ar    1  UNL1       -0.0003
     17 C         -30.2729   -0.9409   31.9392 C.ar    1  UNL1       -0.0043
     18 N         -21.1666    1.3065   28.1150 N.am    1  UNL1       -0.0823
     19 O         -22.5913    1.3041   29.6826 O.2     1  UNL1       -0.2649
@<TRIPOS>BOND
     1     1     8    1
     2     5    10    1
     3    10    11    2
     4    10    12    1
     5    12    18   am
     6    12    19    2
     7     1     2    1
     8     8     9    1
     9     2     3   ar
    10     3     4   ar
    11     4     5   ar
    12     5     6   ar
    13     6     7   ar
    14     7     2   ar
    15     9    13   ar
    16    13    14   ar
    17    14    15   ar
    18    15    16   ar
    19    16    17   ar
    20    17     9   ar
