@<TRIPOS>MOLECULE
No_1237-gen_results/8p0m/2024-11-26-14-13-15/
 14 15 0 0 0
SMALL
GASTEIGER

@<TRIPOS>ATOM
      1 C         -28.0162   -0.8135   28.8779 C.ar    1  UNL1        0.1365
      2 C         -28.4690   -0.7850   29.8287 C.ar    1  UNL1        0.0293
      3 F         -26.9162   -1.5644   28.7368 F       1  UNL1       -0.2045
      4 C         -28.1645    0.0261   27.7584 C.ar    1  UNL1        0.0097
      5 C         -27.1847    0.3116   26.8074 C.3     1  UNL1        0.0549
      6 C         -29.4669    0.1341   30.2370 C.ar    1  UNL1        0.0023
      7 C         -29.7713    1.0006   29.1434 C.ar    1  UNL1       -0.0002
      8 C         -29.1521    1.0655   27.9542 C.ar    1  UNL1       -0.0017
      9 C         -25.7868    0.3433   27.1479 C.ar    1  UNL1       -0.0177
     10 C         -24.8702    1.1980   26.4765 C.ar    1  UNL1       -0.0039
     11 C         -23.5628    1.3691   26.9856 C.ar    1  UNL1       -0.0003
     12 C         -23.0650    0.5774   28.0322 C.ar    1  UNL1       -0.0000
     13 C         -23.9228   -0.3509   28.6328 C.ar    1  UNL1       -0.0003
     14 C         -25.2169   -0.4245   28.2583 C.ar    1  UNL1       -0.0039
@<TRIPOS>BOND
     1     1     3    1
     2     4     5    1
     3     5     9    1
     4     1     2   ar
     5     2     6   ar
     6     6     7   ar
     7     7     8   ar
     8     8     4   ar
     9     4     1   ar
    10     9    10   ar
    11    10    11   ar
    12    11    12   ar
    13    12    13   ar
    14    13    14   ar
    15    14     9   ar
