@<TRIPOS>MOLECULE
No_1238-gen_results/8p0m/2024-11-26-14-13-15/
 30 33 0 0 0
SMALL
GASTEIGER

@<TRIPOS>ATOM
      1 C         -28.0162   -0.8135   28.8779 C.ar    1  UNL1       -0.0029
      2 C         -28.4690   -0.7850   29.8287 C.ar    1  UNL1       -0.0059
      3 C         -27.0871    0.2903   28.6377 C.ar    1  UNL1        0.0026
      4 C         -26.2516    0.4114   27.4223 C.ar    1  UNL1        0.0340
      5 C         -28.3913    0.1041   30.9805 C.ar    1  UNL1       -0.0030
      6 C         -27.5332    1.1666   30.7866 C.ar    1  UNL1       -0.0003
      7 C         -26.8281    1.2557   29.6454 C.ar    1  UNL1        0.0001
      8 C         -24.9668    0.4106   27.5252 C.ar    1  UNL1        0.0029
      9 C         -24.2606    0.1651   28.7212 C.ar    1  UNL1        0.0001
     10 C         -22.8025    0.3416   28.7027 C.ar    1  UNL1        0.0000
     11 C         -21.9778   -0.3235   29.5593 C.ar    1  UNL1        0.0000
     12 C         -22.5602   -0.9269   30.6975 C.ar    1  UNL1        0.0000
     13 C         -23.9127   -0.8362   30.9150 C.ar    1  UNL1        0.0000
     14 C         -24.7641   -0.4310   29.8570 C.ar    1  UNL1        0.0000
     15 C         -26.9810    0.5432   26.2085 C.ar    1  UNL1        0.1383
     16 C         -26.3516    0.3277   25.0169 C.ar    1  UNL1        0.0369
     17 C         -24.8680    0.3614   25.0721 C.ar    1  UNL1        0.0031
     18 C         -24.2029    0.3827   26.2670 C.ar    1  UNL1        0.0002
     19 O         -28.3178    0.4946   26.1979 O.3     1  UNL1       -0.4792
     20 C         -29.0026    1.5134   25.5650 C.3     1  UNL1        0.1661
     21 C         -28.8520    2.7173   25.7702 C.3     1  UNL1        0.0472
     22 C         -29.9768    0.9541   24.6695 C.3     1  UNL1        0.0472
     23 C         -27.4209    2.2436   31.8245 C.ar    1  UNL1       -0.0000
     24 C         -27.9390    3.3954   31.7007 C.ar    1  UNL1       -0.0000
     25 C         -27.7412    4.4634   32.6362 C.ar    1  UNL1       -0.0000
     26 C         -26.9515    4.2375   33.7873 C.ar    1  UNL1        0.0000
     27 C         -26.3616    2.9736   33.9382 C.ar    1  UNL1       -0.0000
     28 C         -26.5267    1.9723   32.9474 C.ar    1  UNL1       -0.0000
     29 C         -29.5284   -1.9311   30.2331 C.3     1  UNL1        0.1211
     30 CL        -29.8838   -2.6446   31.3962 Cl      1  UNL1       -0.1085
@<TRIPOS>BOND
     1     3     4    1
     2     8     9    1
     3    15    19    1
     4    19    20    1
     5    20    21    1
     6    20    22    1
     7     6    23    1
     8     2    29    1
     9    29    30    1
    10     4     8   ar
    11     8    18   ar
    12    18    17   ar
    13    17    16   ar
    14    16    15   ar
    15    15     4   ar
    16    23    24   ar
    17    24    25   ar
    18    25    26   ar
    19    26    27   ar
    20    27    28   ar
    21    28    23   ar
    22     9    10   ar
    23    10    11   ar
    24    11    12   ar
    25    12    13   ar
    26    13    14   ar
    27    14     9   ar
    28     1     2   ar
    29     2     5   ar
    30     5     6   ar
    31     6     7   ar
    32     7     3   ar
    33     3     1   ar
