@<TRIPOS>MOLECULE
No_124-gen_results/8p0m/2024-11-26-14-13-15/
 15 15 0 0 0
SMALL
GASTEIGER

@<TRIPOS>ATOM
      1 C         -28.0162   -0.8135   28.8779 C.ar    1  UNL1        0.1184
      2 C         -28.4690   -0.7850   29.8287 C.2     1  UNL1        0.3908
      3 C         -28.1816    0.4277   28.1134 C.ar    1  UNL1        0.0077
      4 C         -27.4498    0.6435   26.8500 C.ar    1  UNL1        0.0051
      5 C         -26.1815    0.0357   26.7145 C.ar    1  UNL1        0.1393
      6 C         -25.7800   -0.9326   27.6938 C.ar    1  UNL1        0.0715
      7 C         -26.5568   -1.2134   28.7413 C.ar    1  UNL1        0.2043
      8 O         -28.5319   -1.9487   30.6145 O.co2   1  UNL1       -0.2404
      9 O         -29.0863    0.1524   30.5687 O.co2   1  UNL1       -0.2404
     10 F         -25.3666    0.2772   25.7072 F       1  UNL1       -0.2044
     11 O         -25.9902   -2.1936   29.5268 O.3     1  UNL1       -0.2863
     12 C         -27.6801    1.4375   25.6477 C.3     1  UNL1        0.0211
     13 C         -27.9217    2.7354   25.9255 C.3     1  UNL1        0.0044
     14 C         -28.6657    0.6984   24.7931 C.3     1  UNL1        0.0044
     15 C         -26.4508    1.7240   24.7139 C.3     1  UNL1        0.0044
@<TRIPOS>BOND
     1     1     2    1
     2     2     8   ar
     3     2     9   ar
     4     5    10    1
     5     7    11    1
     6     4    12    1
     7    12    13    1
     8    12    14    1
     9    12    15    1
    10     1     3   ar
    11     3     4   ar
    12     4     5   ar
    13     5     6   ar
    14     6     7   ar
    15     7     1   ar
