@<TRIPOS>MOLECULE
No_1240-gen_results/8p0m/2024-11-26-14-13-15/
 32 36 0 0 0
SMALL
GASTEIGER

@<TRIPOS>ATOM
      1 O         -28.1229   -1.3353   28.4874 O.2     1  UNL1       -0.2730
      2 C         -28.5208   -0.4363   29.0779 C.2     1  UNL1        0.2457
      3 C         -29.6977    0.0507   28.9764 C.3     1  UNL1        0.1358
      4 N         -27.5405    0.1756   30.0054 N.am    1  UNL1       -0.2307
      5 C         -27.8890    1.2664   30.8176 C.3     1  UNL1        0.2432
      6 C         -30.1166    1.1818   29.8399 C.3     1  UNL1        0.0300
      7 C         -29.1567    1.7558   30.7136 C.3     1  UNL1        0.0589
      8 C         -26.2253   -0.3866   30.1200 C.ar    1  UNL1        0.0562
      9 C         -25.8505   -0.8629   31.0728 C.ar    1  UNL1        0.0150
     10 C         -24.4732   -1.3926   31.2228 C.ar    1  UNL1        0.0013
     11 C         -23.5962   -1.4241   30.1359 C.ar    1  UNL1        0.0001
     12 C         -24.1333   -0.8435   28.9273 C.ar    1  UNL1        0.0013
     13 C         -25.4283   -0.3450   28.8836 C.ar    1  UNL1        0.0150
     14 F         -27.0573    1.7041   31.5620 F       1  UNL1       -0.2144
     15 N         -30.6193   -0.4657   28.1354 N.3     1  UNL1       -0.2602
     16 C         -31.9392   -0.3857   28.1327 C.3     1  UNL1        0.1008
     17 C         -32.6021   -1.0391   27.1702 C.ar    1  UNL1        0.0099
     18 C         -32.0700   -1.0503   25.8902 C.ar    1  UNL1        0.0847
     19 C         -30.5819   -0.8930   25.8401 C.3     1  UNL1        0.1709
     20 C         -29.9382   -0.3263   26.8782 C.3     1  UNL1        0.1088
     21 O         -30.2555   -0.3598   24.5507 O.3     1  UNL1       -0.3441
     22 N         -32.4776   -2.2153   25.0417 N.ar    1  UNL1       -0.2460
     23 C         -33.8122   -1.7232   27.4176 C.ar    1  UNL1       -0.0001
     24 C         -34.3146   -2.6664   26.5963 C.ar    1  UNL1        0.0204
     25 C         -33.6756   -2.7762   25.2434 C.ar    1  UNL1        0.0985
     26 C         -29.8716    0.8868   24.3300 C.3     1  UNL1        0.1691
     27 C         -28.7146    1.4056   24.4432 C.ar    1  UNL1        0.0073
     28 C         -27.5110    0.6506   24.8819 C.ar    1  UNL1       -0.0019
     29 C         -26.2809    1.1737   25.1751 C.ar    1  UNL1       -0.0002
     30 C         -26.1675    2.5393   25.4862 C.ar    1  UNL1       -0.0000
     31 C         -27.3414    3.3555   25.2095 C.ar    1  UNL1       -0.0002
     32 C         -28.4767    2.8399   24.7194 C.ar    1  UNL1       -0.0019
@<TRIPOS>BOND
     1     1     2    2
     2     2     3    1
     3     2     4   am
     4     4     5    1
     5     6     7    1
     6     4     8    1
     7     5    14    1
     8     3    15    1
     9    15    16    1
    10    16    17    1
    11    18    19    1
    12    15    20    1
    13    19    20    1
    14    19    21    1
    15    21    26    1
    16    26    27    1
    17     3     6    1
    18     7     5    1
    19    17    18   ar
    20    18    22   ar
    21    22    25   ar
    22    25    24   ar
    23    24    23   ar
    24    23    17   ar
    25    27    28   ar
    26    28    29   ar
    27    29    30   ar
    28    30    31   ar
    29    31    32   ar
    30    32    27   ar
    31     8     9   ar
    32     9    10   ar
    33    10    11   ar
    34    11    12   ar
    35    12    13   ar
    36    13     8   ar
