@<TRIPOS>MOLECULE
No_1242-gen_results/8p0m/2024-11-26-14-13-15/
 20 21 0 0 0
SMALL
GASTEIGER

@<TRIPOS>ATOM
      1 O         -28.1229   -1.3353   28.4874 O.2     1  UNL1       -0.2696
      2 C         -27.4806   -0.4044   28.7094 C.2     1  UNL1        0.2525
      3 C         -26.3804   -0.0867   27.9394 C.ar    1  UNL1        0.0514
      4 N         -27.6664    0.4468   29.8988 N.am    1  UNL1       -0.2534
      5 C         -26.4086    0.8567   26.8802 C.ar    1  UNL1        0.0228
      6 C         -25.2466    1.1198   26.1102 C.ar    1  UNL1        0.0017
      7 C         -23.9991    0.7500   26.5964 C.ar    1  UNL1       -0.0003
      8 C         -23.9411    0.0388   27.7865 C.ar    1  UNL1       -0.0041
      9 C         -25.0420   -0.3844   28.4675 C.ar    1  UNL1       -0.0174
     10 C         -26.9353    1.5560   30.3219 C.ar    1  UNL1        0.0542
     11 C         -27.0455    1.8376   31.5107 C.ar    1  UNL1        0.0149
     12 C         -26.3212    3.0066   32.0756 C.ar    1  UNL1        0.0013
     13 C         -25.4748    3.7512   31.1837 C.ar    1  UNL1        0.0001
     14 C         -25.3673    3.3038   29.8768 C.ar    1  UNL1        0.0013
     15 C         -26.0739    2.2110   29.4131 C.ar    1  UNL1        0.0149
     16 C         -24.8682   -1.1653   29.6764 C.3     1  UNL1        0.0312
     17 C         -28.8086   -0.0109   30.7281 C.3     1  UNL1        0.1203
     18 C         -27.6826    1.2527   26.3125 C.2     1  UNL1        0.0933
     19 N         -28.4233    1.9668   26.8607 N.2     1  UNL1       -0.2668
     20 C         -29.7387    2.3508   26.4930 C.3     1  UNL1        0.1517
@<TRIPOS>BOND
     1     1     2    2
     2     2     3    1
     3     2     4   am
     4     4    10    1
     5     9    16    1
     6     4    17    1
     7     5    18    1
     8    18    19    2
     9    19    20    1
    10     3     5   ar
    11     5     6   ar
    12     6     7   ar
    13     7     8   ar
    14     8     9   ar
    15     9     3   ar
    16    10    11   ar
    17    11    12   ar
    18    12    13   ar
    19    13    14   ar
    20    14    15   ar
    21    15    10   ar
