@<TRIPOS>MOLECULE
No_1243-gen_results/8p0m/2024-11-26-14-13-15/
 35 38 0 0 0
SMALL
GASTEIGER

@<TRIPOS>ATOM
      1 O         -28.1229   -1.3353   28.4874 O.2     1  UNL1       -0.2692
      2 C         -27.4806   -0.4044   28.7094 C.2     1  UNL1        0.2562
      3 C         -26.3804   -0.0867   27.9394 C.ar    1  UNL1        0.0515
      4 N         -27.6664    0.4468   29.8988 N.am    1  UNL1       -0.2339
      5 C         -25.1773   -0.4388   28.3946 C.ar    1  UNL1       -0.0015
      6 C         -23.9281   -0.2469   27.6677 C.ar    1  UNL1       -0.0029
      7 C         -24.0115    0.7683   26.6848 C.ar    1  UNL1       -0.0003
      8 C         -25.2436    1.2341   26.2435 C.ar    1  UNL1        0.0001
      9 C         -26.3955    0.8712   26.8685 C.ar    1  UNL1        0.0041
     10 C         -28.7657    0.1195   30.7687 C.ar    1  UNL1        0.0584
     11 C         -26.8570    1.5236   30.2067 C.ar    1  UNL1        0.0586
     12 C         -26.3372    1.6492   31.1156 C.ar    1  UNL1        0.0152
     13 C         -25.3947    2.8095   31.3256 C.ar    1  UNL1        0.0015
     14 C         -25.1330    3.6304   30.2418 C.ar    1  UNL1        0.0067
     15 C         -25.7782    3.3621   29.0389 C.ar    1  UNL1        0.0810
     16 C         -26.6479    2.3227   28.9948 C.ar    1  UNL1        0.0218
     17 C         -25.4689    4.3564   27.9656 C.2     1  UNL1        0.3878
     18 O         -24.6273    4.3989   27.3695 O.co2   1  UNL1       -0.2406
     19 O         -26.4043    5.3782   27.9367 O.co2   1  UNL1       -0.2406
     20 C         -27.6774    1.2474   26.2726 C.ar    1  UNL1        0.0003
     21 C         -27.7462    1.9526   25.1522 C.ar    1  UNL1        0.0000
     22 C         -28.9635    2.3045   24.6583 C.ar    1  UNL1        0.0002
     23 C         -30.1546    1.7108   24.8894 C.ar    1  UNL1        0.0066
     24 C         -30.0711    0.7580   25.9994 C.ar    1  UNL1        0.0798
     25 C         -28.8837    0.5530   26.6443 C.ar    1  UNL1        0.0066
     26 C         -31.3639    0.1511   26.3952 C.2     1  UNL1        0.3878
     27 O         -31.7410   -0.8691   25.9223 O.co2   1  UNL1       -0.2406
     28 O         -31.9636    0.6077   27.4649 O.co2   1  UNL1       -0.2406
     29 C         -29.2812    1.0360   31.5772 C.ar    1  UNL1        0.0152
     30 C         -30.4050    0.7614   32.2471 C.ar    1  UNL1        0.0013
     31 C         -31.0315   -0.4691   32.0835 C.ar    1  UNL1        0.0001
     32 C         -30.5113   -1.4307   31.2183 C.ar    1  UNL1        0.0013
     33 C         -29.3906   -1.0872   30.5740 C.ar    1  UNL1        0.0152
     34 C         -25.0005   -1.4697   29.5109 C.3     1  UNL1        0.1213
     35 CL        -23.8852   -1.5517   30.5993 Cl      1  UNL1       -0.1085
@<TRIPOS>BOND
     1     1     2    2
     2     2     3    1
     3     2     4   am
     4     4    10    1
     5     4    11    1
     6    15    17    1
     7    17    18   ar
     8    17    19   ar
     9     9    20    1
    10    24    26    1
    11    26    27   ar
    12    26    28   ar
    13     5    34    1
    14    34    35    1
    15    20    21   ar
    16    21    22   ar
    17    22    23   ar
    18    23    24   ar
    19    24    25   ar
    20    25    20   ar
    21    11    12   ar
    22    12    13   ar
    23    13    14   ar
    24    14    15   ar
    25    15    16   ar
    26    16    11   ar
    27     3     5   ar
    28     5     6   ar
    29     6     7   ar
    30     7     8   ar
    31     8     9   ar
    32     9     3   ar
    33    10    29   ar
    34    29    30   ar
    35    30    31   ar
    36    31    32   ar
    37    32    33   ar
    38    33    10   ar
