@<TRIPOS>MOLECULE
No_1244-gen_results/8p0m/2024-11-26-14-13-15/
 28 32 0 0 0
SMALL
GASTEIGER

@<TRIPOS>ATOM
      1 C         -28.0162   -0.8135   28.8779 C.ar    1  UNL1        0.0030
      2 C         -27.0636   -0.1190   28.6079 C.ar    1  UNL1        0.0358
      3 C         -27.0010    0.6913   27.4910 C.ar    1  UNL1        0.1618
      4 N         -25.8649    1.0375   26.9421 N.ar    1  UNL1       -0.2269
      5 C         -27.9596   -1.6381   30.0842 C.ar    1  UNL1        0.0001
      6 C         -26.7489   -1.8619   30.7288 C.ar    1  UNL1        0.0000
      7 C         -25.6103   -1.2303   30.2737 C.ar    1  UNL1        0.0001
      8 C         -25.7186   -0.3534   29.1337 C.ar    1  UNL1        0.0044
      9 C         -24.6258    0.9187   27.5548 C.ar    1  UNL1        0.0790
     10 C         -24.5324    0.1192   28.6322 C.ar    1  UNL1        0.0175
     11 N         -28.0830    0.9322   26.7109 N.2     1  UNL1       -0.2294
     12 C         -23.1962   -0.0169   29.2888 C.ar    1  UNL1        0.0015
     13 C         -22.0290    0.3182   28.6015 C.ar    1  UNL1       -0.0002
     14 C         -22.1695    1.2525   27.5087 C.ar    1  UNL1       -0.0028
     15 C         -23.4008    1.5172   26.9437 C.ar    1  UNL1       -0.0042
     16 C         -23.4792    2.3434   25.7555 C.3     1  UNL1        0.0326
     17 C         -28.5194    1.8015   26.2454 C.2     1  UNL1        0.0789
     18 C         -29.1859    2.4086   25.6930 C.3     1  UNL1        0.0733
     19 C         -30.2257    2.0930   24.8756 C.ar    1  UNL1       -0.0162
     20 C         -31.1185    2.9822   24.1448 C.ar    1  UNL1       -0.0039
     21 C         -31.9948    2.6051   23.2333 C.ar    1  UNL1       -0.0003
     22 C         -32.1268    1.1995   23.0147 C.ar    1  UNL1       -0.0000
     23 C         -31.3424    0.3152   23.6755 C.ar    1  UNL1       -0.0003
     24 C         -31.4217   -1.0856   23.5353 C.ar    1  UNL1       -0.0000
     25 C         -30.3544    0.8179   24.6120 C.ar    1  UNL1       -0.0036
     26 C         -30.5069   -1.9074   24.2590 C.ar    1  UNL1       -0.0000
     27 C         -29.6446   -1.2326   24.9333 C.ar    1  UNL1       -0.0000
     28 C         -29.5090   -0.1382   25.1978 C.ar    1  UNL1       -0.0003
@<TRIPOS>BOND
     1     3    11    1
     2    15    16    1
     3    11    17    2
     4    17    18    1
     5    18    19    1
     6     2     3   ar
     7     3     4   ar
     8     4     9   ar
     9    10     8   ar
    10     1     2   ar
    11     2     8   ar
    12     8     7   ar
    13     7     6   ar
    14     6     5   ar
    15     5     1   ar
    16    19    20   ar
    17    20    21   ar
    18    21    22   ar
    19    22    23   ar
    20    25    19   ar
    21     9    10   ar
    22    10    12   ar
    23    12    13   ar
    24    13    14   ar
    25    14    15   ar
    26    15     9   ar
    27    23    24   ar
    28    24    26   ar
    29    26    27   ar
    30    27    28   ar
    31    28    25   ar
    32    25    23   ar
