@<TRIPOS>MOLECULE
No_1245-gen_results/8p0m/2024-11-26-14-13-15/
 6 5 0 0 0
SMALL
GASTEIGER

@<TRIPOS>ATOM
      1 O         -28.1229   -1.3353   28.4874 O.2     1  UNL1       -0.2541
      2 C         -27.0637   -0.8242   28.8687 C.2     1  UNL1        0.3333
      3 C         -26.9592    0.0926   29.7582 C.2     1  UNL1        0.0686
      4 F         -25.9873   -1.0033   28.0327 F       1  UNL1       -0.1586
      5 C         -26.0939    1.2039   29.6159 C.2     1  UNL1       -0.0201
      6 C         -24.9631    0.9673   28.6479 C.3     1  UNL1        0.0309
@<TRIPOS>BOND
     1     1     2    2
     2     2     3    1
     3     2     4    1
     4     3     5    2
     5     5     6    1
