@<TRIPOS>MOLECULE
No_1246-gen_results/8p0m/2024-11-26-14-13-15/
 22 25 0 0 0
SMALL
GASTEIGER

@<TRIPOS>ATOM
      1 C         -28.0162   -0.8135   28.8779 C.ar    1  UNL1        0.0000
      2 C         -27.0636   -0.1189   28.6079 C.ar    1  UNL1        0.0001
      3 C         -25.7923   -0.4302   29.0761 C.ar    1  UNL1        0.0044
      4 C         -24.5456    0.3494   28.8225 C.ar    1  UNL1        0.0539
      5 C         -23.2409    0.0217   29.3323 C.ar    1  UNL1        0.0045
      6 C         -23.1926   -1.2816   29.8967 C.ar    1  UNL1        0.0001
      7 C         -27.8703   -1.9138   29.8642 C.ar    1  UNL1        0.0000
      8 C         -26.6310   -2.3256   30.2990 C.ar    1  UNL1        0.0000
      9 C         -25.5115   -1.5728   29.9655 C.ar    1  UNL1        0.0001
     10 C         -24.2167   -1.9673   30.3246 C.ar    1  UNL1        0.0000
     11 C         -24.5912    1.5912   27.9920 C.2     1  UNL1        0.2527
     12 N         -24.7905    2.6522   28.5272 N.am    1  UNL1       -0.2555
     13 O         -24.4276    1.4859   26.7329 O.2     1  UNL1       -0.2696
     14 C         -24.8881    3.9842   27.8586 C.3     1  UNL1        0.0988
     15 C         -25.0141    2.8662   30.0494 C.ar    1  UNL1        0.0501
     16 C         -26.0024    3.8829   30.3908 C.ar    1  UNL1       -0.0084
     17 C         -26.3219    3.7915   31.7048 C.ar    1  UNL1       -0.0030
     18 C         -25.9736    2.7454   32.4347 C.ar    1  UNL1       -0.0002
     19 C         -25.0540    1.7826   32.0492 C.ar    1  UNL1        0.0013
     20 C         -24.6341    1.8481   30.7927 C.ar    1  UNL1        0.0146
     21 C         -26.3644    4.8647   29.5061 C.3     1  UNL1        0.0294
     22 C         -25.7638    4.9545   28.2403 C.3     1  UNL1        0.0266
@<TRIPOS>BOND
     1     4    11    1
     2    11    12   am
     3    11    13    2
     4    12    14    1
     5    12    15    1
     6    16    21    1
     7    14    22    1
     8    21    22    1
     9    15    16   ar
    10    16    17   ar
    11    17    18   ar
    12    18    19   ar
    13    19    20   ar
    14    20    15   ar
    15     1     2   ar
    16     2     3   ar
    17     9     8   ar
    18     8     7   ar
    19     7     1   ar
    20     3     4   ar
    21     4     5   ar
    22     5     6   ar
    23     6    10   ar
    24    10     9   ar
    25     9     3   ar
