@<TRIPOS>MOLECULE
No_1247-gen_results/8p0m/2024-11-26-14-13-15/
 17 17 0 0 0
SMALL
GASTEIGER

@<TRIPOS>ATOM
      1 C         -28.0162   -0.8135   28.8779 C.3     1  UNL1        0.3342
      2 C         -27.0636   -0.1190   28.6079 C.3     1  UNL1        0.4503
      3 F         -27.0788    0.9846   29.1738 F       1  UNL1       -0.1653
      4 F         -25.8414   -0.7435   29.0314 F       1  UNL1       -0.1653
      5 O         -28.6695   -0.4036   30.0288 O.3     1  UNL1       -0.3214
      6 O         -28.8109   -1.2272   28.1690 O.3     1  UNL1       -0.3213
      7 F         -26.8764    0.3211   27.4481 F       1  UNL1       -0.1653
      8 C         -30.0371   -0.6059   28.1395 C.3     1  UNL1        0.1812
      9 C         -30.6010   -0.9308   29.3678 C.3     1  UNL1        0.2110
     10 C         -29.8745   -0.4346   30.4704 C.3     1  UNL1        0.1804
     11 O         -30.8948   -2.3747   29.4728 O.3     1  UNL1       -0.2177
     12 C         -30.7225   -1.0167   26.8083 C.3     1  UNL1        0.1859
     13 C         -30.3460   -0.1866   25.7024 C.3     1  UNL1        0.0612
     14 C         -30.1540    1.0969   25.8403 C.2     1  UNL1       -0.0280
     15 O         -32.1234   -0.8385   27.0266 O.3     1  UNL1       -0.2201
     16 C         -31.0872    1.9600   26.1964 C.2     1  UNL1       -0.0303
     17 C         -30.7720    3.3269   26.4547 C.3     1  UNL1        0.0303
@<TRIPOS>BOND
     1     1     2    1
     2     2     3    1
     3     2     4    1
     4     1     5    1
     5     1     6    1
     6     2     7    1
     7     6     8    1
     8     8     9    1
     9     5    10    1
    10     9    10    1
    11     9    11    1
    12     8    12    1
    13    12    13    1
    14    13    14    1
    15    12    15    1
    16    14    16    2
    17    16    17    1
