@<TRIPOS>MOLECULE
No_1248-gen_results/8p0m/2024-11-26-14-13-15/
 17 18 0 0 0
SMALL
GASTEIGER

@<TRIPOS>ATOM
      1 C         -28.0162   -0.8135   28.8779 C.ar    1  UNL1        0.0011
      2 C         -28.4690   -0.7850   29.8287 C.ar    1  UNL1        0.0066
      3 C         -28.1816    0.4277   28.1134 C.ar    1  UNL1        0.0023
      4 C         -27.4498    0.6435   26.8500 C.ar    1  UNL1        0.0296
      5 C         -27.8596    1.4573   25.9076 C.ar    1  UNL1        0.1401
      6 C         -28.3080   -1.9885   30.8635 C.ar    1  UNL1        0.0806
      7 C         -27.5277   -3.0190   30.3596 C.ar    1  UNL1        0.0180
      8 C         -26.7389   -2.8481   29.2719 C.ar    1  UNL1        0.0579
      9 C         -26.9091   -1.6576   28.5337 C.ar    1  UNL1        0.0114
     10 C         -28.9724    2.3472   26.1217 C.ar    1  UNL1        0.0296
     11 C         -29.6230    2.2195   27.3318 C.ar    1  UNL1        0.0023
     12 C         -29.2848    1.2346   28.2720 C.ar    1  UNL1        0.0001
     13 CL        -25.5535   -3.9864   28.8994 Cl      1  UNL1       -0.0822
     14 F         -27.1201    1.6573   24.8077 F       1  UNL1       -0.2042
     15 C         -29.1718   -2.2228   32.0393 C.2     1  UNL1        0.3878
     16 O         -29.0174   -1.4700   32.9493 O.co2   1  UNL1       -0.2406
     17 O         -30.1406   -3.0107   31.9184 O.co2   1  UNL1       -0.2406
@<TRIPOS>BOND
     1     8    13    1
     2     5    14    1
     3     6    15    1
     4    15    16   ar
     5    15    17   ar
     6     3     1    1
     7     3     4   ar
     8     4     5   ar
     9     5    10   ar
    10    10    11   ar
    11    11    12   ar
    12    12     3   ar
    13     1     2   ar
    14     2     6   ar
    15     6     7   ar
    16     7     8   ar
    17     8     9   ar
    18     9     1   ar
