@<TRIPOS>MOLECULE
No_1249-gen_results/8p0m/2024-11-26-14-13-15/
 23 25 0 0 0
SMALL
GASTEIGER

@<TRIPOS>ATOM
      1 C         -28.0162   -0.8135   28.8779 C.ar    1  UNL1        0.1447
      2 C         -27.0636   -0.1189   28.6079 C.ar    1  UNL1        0.0404
      3 C         -25.7923   -0.4302   29.0761 C.ar    1  UNL1        0.0034
      4 C         -25.2700   -0.0487   30.0123 C.ar    1  UNL1        0.0001
      5 C         -29.2965   -0.1838   28.9398 C.ar    1  UNL1        0.0371
      6 C         -29.5648    0.8003   28.0352 C.ar    1  UNL1        0.0035
      7 C         -28.4695    1.4413   27.4238 C.ar    1  UNL1        0.0069
      8 C         -27.1368    1.0792   27.7975 C.ar    1  UNL1        0.0375
      9 C         -23.8989   -0.3559   30.5250 C.ar    1  UNL1        0.0000
     10 C         -23.1075   -1.1949   29.7370 C.ar    1  UNL1        0.0000
     11 C         -23.6421   -1.6781   28.5918 C.ar    1  UNL1        0.0000
     12 C         -24.9086   -1.3299   28.1894 C.ar    1  UNL1        0.0001
     13 C         -30.9046    1.2986   27.7729 C.ar    1  UNL1        0.0001
     14 C         -31.7574    1.3020   28.7025 C.ar    1  UNL1        0.0000
     15 C         -33.1814    1.5612   28.4497 C.ar    1  UNL1        0.0000
     16 C         -33.4933    1.9376   27.1424 C.ar    1  UNL1        0.0000
     17 C         -31.2573    1.6143   26.4500 C.ar    1  UNL1        0.0000
     18 C         -32.5525    1.9655   26.1680 C.ar    1  UNL1        0.0000
     19 BR        -25.6923    1.9120   27.0388 Br      1  UNL1       -0.0489
     20 O         -28.0277   -1.7570   29.8745 O.3     1  UNL1       -0.4236
     21 C         -29.0556   -2.3254   30.5538 C.3     1  UNL1        0.5087
     22 F         -29.2243   -3.3903   30.0040 F       1  UNL1       -0.1550
     23 F         -30.0904   -1.6034   30.2909 F       1  UNL1       -0.1550
@<TRIPOS>BOND
     1     2     3    1
     2     6    13    1
     3     8    19    1
     4     1    20    1
     5    20    21    1
     6    21    22    1
     7    21    23    1
     8     1     2   ar
     9     2     8   ar
    10     8     7   ar
    11     7     6   ar
    12     6     5   ar
    13     5     1   ar
    14     3     4   ar
    15     4     9   ar
    16     9    10   ar
    17    10    11   ar
    18    11    12   ar
    19    12     3   ar
    20    13    14   ar
    21    14    15   ar
    22    15    16   ar
    23    16    18   ar
    24    18    17   ar
    25    17    13   ar
