@<TRIPOS>MOLECULE
No_125-gen_results/8p0m/2024-11-26-14-13-15/
 15 15 0 0 0
SMALL
GASTEIGER

@<TRIPOS>ATOM
      1 C         -28.0162   -0.8135   28.8779 C.ar    1  UNL1       -0.0000
      2 C         -27.0636   -0.1190   28.6079 C.ar    1  UNL1       -0.0001
      3 C         -25.7647   -0.3897   29.0360 C.ar    1  UNL1        0.0013
      4 C         -25.5296   -1.5302   29.9014 C.ar    1  UNL1       -0.0001
      5 C         -26.6888   -2.2893   30.1810 C.ar    1  UNL1       -0.0000
      6 C         -27.8727   -1.9508   29.7373 C.ar    1  UNL1       -0.0000
      7 C         -24.5491    0.4100   28.7341 C.2     1  UNL1        0.0436
      8 C         -24.4789    1.1871   27.6843 C.2     1  UNL1        0.0009
      9 C         -23.2716    1.8973   27.3731 C.2     1  UNL1       -0.0019
     10 C         -22.1063    1.7032   28.0412 C.2     1  UNL1        0.0116
     11 C         -23.3188    0.1792   29.4669 C.3     1  UNL1        0.3410
     12 C         -22.1165    0.8402   29.1011 C.3     1  UNL1        0.2195
     13 F         -23.2363   -0.6779   30.4785 F       1  UNL1       -0.1933
     14 F         -23.6301    0.0857   30.4296 F       1  UNL1       -0.1933
     15 F         -20.9698    0.6201   29.6732 F       1  UNL1       -0.2291
@<TRIPOS>BOND
     1     3     7    1
     2     7     8    2
     3     8     9    1
     4     9    10    2
     5     7    11    1
     6    10    12    1
     7    11    13    1
     8    11    14    1
     9    12    15    1
    10     1     2   ar
    11     2     3   ar
    12     3     4   ar
    13     4     5   ar
    14     5     6   ar
    15     6     1   ar
