@<TRIPOS>MOLECULE
No_1250-gen_results/8p0m/2024-11-26-14-13-15/
 9 9 0 0 0
SMALL
GASTEIGER

@<TRIPOS>ATOM
      1 C         -28.0162   -0.8135   28.8779 C.ar    1  UNL1        0.0427
      2 C         -27.0636   -0.1189   28.6079 C.ar    1  UNL1        0.0136
      3 C         -25.7923   -0.4302   29.0761 C.ar    1  UNL1        0.0687
      4 C         -25.5756   -1.5654   29.9363 C.ar    1  UNL1        0.0136
      5 C         -26.7354   -2.3004   30.2173 C.ar    1  UNL1        0.0427
      6 C         -27.9184   -1.9537   29.7629 C.ar    1  UNL1        0.1958
      7 O         -29.0001   -2.7012   30.1151 O.3     1  UNL1       -0.2866
      8 C         -24.5290    0.3490   28.7998 C.1     1  UNL1        0.1004
      9 N         -24.1601    1.2117   29.6150 N.1     1  UNL1       -0.1908
@<TRIPOS>BOND
     1     6     7    1
     2     3     8    1
     3     8     9    3
     4     1     2   ar
     5     2     3   ar
     6     3     4   ar
     7     4     5   ar
     8     5     6   ar
     9     6     1   ar
