@<TRIPOS>MOLECULE
No_1252-gen_results/8p0m/2024-11-26-14-13-15/
 14 15 0 0 0
SMALL
GASTEIGER

@<TRIPOS>ATOM
      1 C         -28.0162   -0.8135   28.8779 C.ar    1  UNL1       -0.0003
      2 C         -27.0636   -0.1189   28.6079 C.ar    1  UNL1       -0.0026
      3 C         -27.0010    0.6913   27.4910 C.ar    1  UNL1       -0.0007
      4 C         -28.1373    0.7363   26.6350 C.ar    1  UNL1       -0.0026
      5 C         -29.2360    0.0765   27.0690 C.ar    1  UNL1       -0.0003
      6 C         -29.2177   -0.6429   28.1747 C.ar    1  UNL1       -0.0000
      7 C         -30.4152    0.1590   26.1819 C.ar    1  UNL1       -0.0000
      8 C         -31.4540   -0.5158   26.5659 C.ar    1  UNL1       -0.0000
      9 C         -31.5535   -1.0981   27.8263 C.ar    1  UNL1       -0.0000
     10 C         -30.4299   -1.2643   28.5772 C.ar    1  UNL1       -0.0000
     11 C         -25.6910    1.3881   27.0841 C.3     1  UNL1        0.1386
     12 N         -24.6493    0.9280   27.6344 N.pl3   1  UNL1       -0.2315
     13 C         -23.8405    1.5515   28.2041 C.2     1  UNL1        0.0805
     14 C         -22.5002    0.9175   28.6648 C.2     1  UNL1        0.0188
@<TRIPOS>BOND
     1     3    11    1
     2    11    12    1
     3    12    13    1
     4    13    14    2
     5     1     2   ar
     6     2     3   ar
     7     3     4   ar
     8     4     5   ar
     9     6     1   ar
    10     5     6   ar
    11     6    10   ar
    12    10     9   ar
    13     9     8   ar
    14     8     7   ar
    15     7     5   ar
