@<TRIPOS>MOLECULE
No_1253-gen_results/8p0m/2024-11-26-14-13-15/
 7 6 0 0 0
SMALL
GASTEIGER

@<TRIPOS>ATOM
      1 C         -28.0162   -0.8135   28.8779 C.2     1  UNL1       -0.0260
      2 C         -28.4690   -0.7850   29.8287 C.2     1  UNL1       -0.0300
      3 C         -27.1356    0.2359   28.5352 C.3     1  UNL1        0.0513
      4 C         -26.8745    1.2825   29.3982 C.2     1  UNL1       -0.0260
      5 C         -27.5070    1.2380   30.6295 C.2     1  UNL1       -0.0300
      6 C         -28.3293    0.1745   30.9350 C.3     1  UNL1        0.0304
      7 C         -29.4061   -1.9770   30.3246 C.3     1  UNL1        0.0304
@<TRIPOS>BOND
     1     1     2    2
     2     1     3    1
     3     3     4    1
     4     4     5    2
     5     5     6    1
     6     2     7    1
