@<TRIPOS>MOLECULE
No_1254-gen_results/8p0m/2024-11-26-14-13-15/
 16 17 0 0 0
SMALL
GASTEIGER

@<TRIPOS>ATOM
      1 C         -28.0162   -0.8135   28.8779 C.ar    1  UNL1        0.0002
      2 C         -27.0636   -0.1190   28.6079 C.ar    1  UNL1        0.0064
      3 C         -25.7647   -0.3897   29.0360 C.ar    1  UNL1        0.0001
      4 C         -24.5516    0.4058   28.7646 C.ar    1  UNL1        0.0011
      5 C         -24.6957    1.4480   27.7988 C.ar    1  UNL1        0.0438
      6 C         -25.9755    1.7250   27.3077 C.ar    1  UNL1        0.0077
      7 C         -27.0718    1.0134   27.6535 C.ar    1  UNL1        0.0796
      8 C         -27.9653   -1.6216   30.1356 C.ar    1  UNL1        0.0000
      9 C         -26.6745   -2.1506   30.4965 C.ar    1  UNL1       -0.0000
     10 C         -25.5535   -1.4129   30.0823 C.ar    1  UNL1       -0.0000
     11 C         -23.4812    2.2323   27.4585 C.3     1  UNL1        0.3410
     12 F         -22.7234    1.6229   27.0347 F       1  UNL1       -0.1933
     13 F         -23.7016    3.4501   27.1933 F       1  UNL1       -0.1933
     14 C         -27.9962    0.7737   26.4820 C.2     1  UNL1        0.3877
     15 O         -29.1408    0.6939   26.6729 O.co2   1  UNL1       -0.2406
     16 O         -27.5372    0.8668   25.2932 O.co2   1  UNL1       -0.2406
@<TRIPOS>BOND
     1     5    11    1
     2    11    12    1
     3    11    13    1
     4     7    14    1
     5    14    15   ar
     6    14    16   ar
     7     3     4   ar
     8     4     5   ar
     9     5     6   ar
    10     6     7   ar
    11     7     2   ar
    12     1     2   ar
    13     2     3   ar
    14     3    10   ar
    15    10     9   ar
    16     9     8   ar
    17     8     1   ar
