@<TRIPOS>MOLECULE
No_1255-gen_results/8p0m/2024-11-26-14-13-15/
 30 33 0 0 0
SMALL
GASTEIGER

@<TRIPOS>ATOM
      1 C         -28.0162   -0.8135   28.8779 C.2     1  UNL1        0.2503
      2 C         -27.0636   -0.1190   28.6079 C.ar    1  UNL1        0.0537
      3 C         -27.0010    0.6913   27.4910 C.ar    1  UNL1        0.0054
      4 C         -25.8548    1.4825   27.0830 C.ar    1  UNL1        0.0115
      5 C         -24.6901    1.4526   27.8807 C.ar    1  UNL1        0.0577
      6 C         -24.7379    0.6010   29.0416 C.ar    1  UNL1        0.0115
      7 C         -25.8234   -0.1688   29.3887 C.ar    1  UNL1        0.0054
      8 N         -29.2150   -0.1725   29.0132 N.am    1  UNL1       -0.2565
      9 C         -29.7200    0.5474   28.3236 C.3     1  UNL1        0.1088
     10 C         -30.9742    1.0608   28.6662 C.3     1  UNL1        0.1200
     11 C         -30.0997   -0.6583   30.1305 C.3     1  UNL1        0.2116
     12 N         -31.2230   -0.2233   30.4115 N.am    1  UNL1       -0.1826
     13 C         -31.7156    0.6877   29.6434 C.2     1  UNL1        0.2483
     14 CL        -23.3029    2.3008   27.4957 Cl      1  UNL1       -0.0822
     15 O         -32.8905    1.2306   29.8699 O.2     1  UNL1       -0.2729
     16 O         -27.8771   -2.0197   29.1529 O.2     1  UNL1       -0.2699
     17 C         -31.5201    2.1771   27.6693 C.2     1  UNL1       -0.0156
     18 C         -31.3287    3.2352   27.9111 C.2     1  UNL1       -0.0041
     19 C         -30.5344    3.7754   29.0780 C.ar    1  UNL1       -0.0003
     20 C         -29.9443    4.7015   29.2735 C.ar    1  UNL1       -0.0000
     21 C         -29.1429    5.0484   30.4763 C.ar    1  UNL1       -0.0000
     22 C         -29.0866    4.0534   31.4775 C.ar    1  UNL1       -0.0000
     23 C         -29.7330    2.8622   31.2641 C.ar    1  UNL1       -0.0000
     24 C         -30.3529    2.6989   30.1367 C.ar    1  UNL1       -0.0000
     25 C         -31.5342    3.1458   30.6101 C.2     1  UNL1       -0.0000
     26 C         -32.1192    4.2621   30.7771 C.2     1  UNL1       -0.0000
     27 C         -33.2686    4.3330   31.7785 C.2     1  UNL1        0.0000
     28 C         -33.9711    5.4725   32.0220 C.2     1  UNL1        0.0000
     29 C         -32.2668    2.3029   31.5079 C.2     1  UNL1       -0.0000
     30 C         -33.2647    3.1157   32.2860 C.2     1  UNL1        0.0000
@<TRIPOS>BOND
     1     1     2    1
     2     1     8   am
     3     8     9    1
     4     8    11    1
     5    10    13    1
     6    12    13   am
     7     5    14    1
     8    13    15    2
     9     1    16    2
    10    10    17    1
    11    17    18    2
    12    18    19    1
    13    24    25    1
    14    25    26    2
    15    26    27    1
    16    27    28    2
    17    25    29    1
    18    27    30    1
    19    29    30    2
    20     9    10    1
    21    12    11    1
    22     2     3   ar
    23     3     4   ar
    24     4     5   ar
    25     5     6   ar
    26     6     7   ar
    27     7     2   ar
    28    19    20   ar
    29    20    21   ar
    30    21    22   ar
    31    22    23   ar
    32    23    24   ar
    33    24    19   ar
