@<TRIPOS>MOLECULE
No_1256-gen_results/8p0m/2024-11-26-14-13-15/
 15 15 0 0 0
SMALL
GASTEIGER

@<TRIPOS>ATOM
      1 C         -28.0162   -0.8135   28.8779 C.ar    1  UNL1       -0.0003
      2 C         -28.4690   -0.7850   29.8287 C.ar    1  UNL1       -0.0000
      3 C         -26.5042   -0.7777   28.8766 C.ar    1  UNL1       -0.0043
      4 C         -25.8103   -0.8531   30.1028 C.ar    1  UNL1       -0.0222
      5 C         -27.9906   -0.8916   31.2257 C.ar    1  UNL1       -0.0003
      6 C         -26.6042   -0.8676   31.2652 C.ar    1  UNL1       -0.0043
      7 C         -24.3894   -0.8049   30.1638 C.3     1  UNL1        0.0267
      8 C         -23.8172    0.4762   29.9118 C.3     1  UNL1        0.0090
      9 C         -23.2476    0.8215   28.7226 C.3     1  UNL1        0.0224
     10 C         -21.9088    0.6359   28.5389 C.3     1  UNL1        0.0047
     11 C         -24.0515    1.5001   27.7874 C.2     1  UNL1       -0.0265
     12 C         -24.0330    2.5322   27.5015 C.2     1  UNL1       -0.0049
     13 C         -24.6621    3.0334   26.2050 C.2     1  UNL1       -0.0049
     14 C         -25.4802    2.2373   25.5476 C.2     1  UNL1       -0.0258
     15 C         -25.4969    0.9163   25.9310 C.3     1  UNL1        0.0307
@<TRIPOS>BOND
     1     4     7    1
     2     7     8    1
     3     8     9    1
     4     9    10    1
     5     9    11    1
     6    11    12    2
     7    12    13    1
     8    13    14    2
     9    14    15    1
    10     1     2   ar
    11     2     5   ar
    12     5     6   ar
    13     6     4   ar
    14     4     3   ar
    15     3     1   ar
