@<TRIPOS>MOLECULE
No_1257-gen_results/8p0m/2024-11-26-14-13-15/
 16 17 0 0 0
SMALL
GASTEIGER

@<TRIPOS>ATOM
      1 C         -28.0162   -0.8135   28.8779 C.ar    1  UNL1        0.0129
      2 C         -27.0636   -0.1189   28.6079 C.ar    1  UNL1        0.0577
      3 C         -25.7923   -0.4302   29.0761 C.ar    1  UNL1        0.0114
      4 C         -25.5756   -1.5654   29.9363 C.ar    1  UNL1        0.0009
      5 C         -26.7354   -2.3004   30.2173 C.ar    1  UNL1        0.0016
      6 C         -27.9184   -1.9537   29.7629 C.ar    1  UNL1        0.0196
      7 CL        -27.1463    1.2916   27.6407 Cl      1  UNL1       -0.0822
      8 C         -29.0683   -2.7883   30.1813 C.2     1  UNL1        0.0935
      9 N         -28.9567   -4.0769   30.4359 N.2     1  UNL1       -0.2641
     10 C         -30.0665   -4.8365   30.7255 C.3     1  UNL1        0.1519
     11 C         -30.4999   -4.8333   31.7244 C.ar    1  UNL1        0.0020
     12 C         -31.0432   -5.9302   32.4237 C.ar    1  UNL1       -0.0023
     13 C         -31.6060   -5.9538   33.7187 C.ar    1  UNL1       -0.0003
     14 C         -31.6457   -4.6996   34.3835 C.ar    1  UNL1       -0.0000
     15 C         -31.1494   -3.5787   33.8473 C.ar    1  UNL1       -0.0003
     16 C         -30.5535   -3.5813   32.6496 C.ar    1  UNL1       -0.0023
@<TRIPOS>BOND
     1     2     7    1
     2     6     8    1
     3     8     9    2
     4     9    10    1
     5    10    11    1
     6    11    12   ar
     7    12    13   ar
     8    13    14   ar
     9    14    15   ar
    10    15    16   ar
    11    16    11   ar
    12     1     2   ar
    13     2     3   ar
    14     3     4   ar
    15     4     5   ar
    16     5     6   ar
    17     6     1   ar
