@<TRIPOS>MOLECULE
No_1258-gen_results/8p0m/2024-11-26-14-13-15/
 24 26 0 0 0
SMALL
GASTEIGER

@<TRIPOS>ATOM
      1 C         -28.0162   -0.8135   28.8779 C.ar    1  UNL1        0.0442
      2 C         -28.4690   -0.7850   29.8287 C.ar    1  UNL1        0.0828
      3 C         -27.1356    0.2359   28.5352 C.ar    1  UNL1        0.1489
      4 C         -26.8745    1.2825   29.3982 C.ar    1  UNL1        0.0347
      5 C         -28.3613    0.1987   30.9244 C.ar    1  UNL1        0.0068
      6 C         -25.9723    2.3852   29.1040 C.ar    1  UNL1        0.0029
      7 C         -27.5118    1.2316   30.6323 C.ar    1  UNL1        0.0032
      8 C         -25.4925    3.0751   29.8094 C.ar    1  UNL1        0.0001
      9 C         -24.5824    4.1870   29.4674 C.ar    1  UNL1        0.0000
     10 C         -24.5868    4.5078   28.0903 C.ar    1  UNL1        0.0000
     11 C         -25.8733    2.8000   27.6717 C.ar    1  UNL1        0.0001
     12 C         -25.1997    3.7959   27.2293 C.ar    1  UNL1        0.0000
     13 O         -26.5203    0.2163   27.3121 O.3     1  UNL1       -0.4210
     14 C         -25.3464   -0.2373   27.0710 C.2     1  UNL1        0.3457
     15 C         -29.4495   -2.0048   30.3245 C.2     1  UNL1        0.3879
     16 O         -28.9433   -3.1603   30.5197 O.co2   1  UNL1       -0.2406
     17 O         -30.6189   -1.8338   30.5371 O.co2   1  UNL1       -0.2406
     18 C         -24.4408   -0.5679   28.1686 C.ar    1  UNL1        0.0760
     19 C         -23.3502    0.1321   28.5505 C.ar    1  UNL1        0.0065
     20 C         -22.4876   -0.2881   29.5110 C.ar    1  UNL1        0.0002
     21 C         -24.6992   -1.6694   29.0649 C.ar    1  UNL1        0.0065
     22 C         -23.9383   -2.0595   30.0987 C.ar    1  UNL1        0.0002
     23 C         -22.8382   -1.2727   30.4046 C.ar    1  UNL1        0.0000
     24 O         -24.8775   -0.2682   25.9305 O.2     1  UNL1       -0.2445
@<TRIPOS>BOND
     1     4     6    1
     2     3    13    1
     3    13    14    1
     4     2    15    1
     5    15    16   ar
     6    15    17   ar
     7    14    18    1
     8    14    24    2
     9    18    19   ar
    10    19    20   ar
    11    20    23   ar
    12    23    22   ar
    13    22    21   ar
    14    21    18   ar
    15     6     8   ar
    16     8     9   ar
    17     9    10   ar
    18    10    12   ar
    19    12    11   ar
    20    11     6   ar
    21     1     2   ar
    22     2     5   ar
    23     5     7   ar
    24     7     4   ar
    25     4     3   ar
    26     3     1   ar
