@<TRIPOS>MOLECULE
No_1259-gen_results/8p0m/2024-11-26-14-13-15/
 24 27 0 0 0
SMALL
GASTEIGER

@<TRIPOS>ATOM
      1 C         -28.0162   -0.8135   28.8779 C.ar    1  UNL1        0.0000
      2 C         -28.4690   -0.7850   29.8287 C.ar    1  UNL1        0.0000
      3 C         -27.0871    0.2903   28.6377 C.ar    1  UNL1        0.0012
      4 C         -26.7676    1.0274   29.4716 C.ar    1  UNL1        0.0000
      5 C         -28.2764    0.0268   31.0145 C.ar    1  UNL1        0.0000
      6 C         -27.3287    1.0538   30.7535 C.ar    1  UNL1        0.0000
      7 C         -26.3859    0.3011   27.2661 C.ar    1  UNL1        0.0133
      8 C         -26.8831    0.6625   26.2724 C.ar    1  UNL1        0.0478
      9 C         -26.1616    0.6204   24.9732 C.ar    1  UNL1        0.0145
     10 C         -25.0173   -0.1321   27.2736 C.ar    1  UNL1        0.0012
     11 C         -24.3818   -0.5523   28.6013 C.ar    1  UNL1        0.0000
     12 C         -24.7811    0.3002   25.0246 C.ar    1  UNL1        0.0013
     13 C         -24.2465   -0.0015   26.1958 C.ar    1  UNL1        0.0001
     14 C         -23.4390    0.0844   29.1108 C.ar    1  UNL1        0.0000
     15 C         -22.6836   -0.4812   30.2053 C.ar    1  UNL1        0.0000
     16 C         -24.3124   -1.9377   28.9641 C.ar    1  UNL1        0.0000
     17 C         -23.8034   -2.5059   30.0266 C.ar    1  UNL1        0.0000
     18 C         -22.8792   -1.6614   30.7412 C.ar    1  UNL1        0.0000
     19 N         -28.2668    0.9711   26.0759 N.pl3   1  UNL1       -0.3075
     20 C         -29.1070    0.6516   25.2140 C.3     1  UNL1        0.0908
     21 C         -30.4627    0.9084   25.3080 C.3     1  UNL1        0.0215
     22 C         -28.6991    2.3048   26.6431 C.3     1  UNL1        0.0908
     23 C         -30.0037    2.5673   26.9875 C.3     1  UNL1        0.0215
     24 C         -30.8230    1.8361   26.4205 C.3     1  UNL1        0.0035
@<TRIPOS>BOND
     1     3     7    1
     2    10    11    1
     3     8    19    1
     4    19    20    1
     5    19    22    1
     6    21    24    1
     7    23    24    1
     8    20    21    1
     9    23    22    1
    10     7     8   ar
    11     8     9   ar
    12     9    12   ar
    13    12    13   ar
    14    13    10   ar
    15    10     7   ar
    16    11    14   ar
    17    14    15   ar
    18    15    18   ar
    19    18    17   ar
    20    17    16   ar
    21    16    11   ar
    22     1     2   ar
    23     2     5   ar
    24     5     6   ar
    25     6     4   ar
    26     4     3   ar
    27     3     1   ar
