@<TRIPOS>MOLECULE
No_1260-gen_results/8p0m/2024-11-26-14-13-15/
 23 24 0 0 0
SMALL
GASTEIGER

@<TRIPOS>ATOM
      1 C         -28.0162   -0.8135   28.8779 C.ar    1  UNL1        0.0159
      2 C         -28.4690   -0.7850   29.8287 C.ar    1  UNL1        0.0663
      3 C         -26.5042   -0.7777   28.8766 C.ar    1  UNL1        0.0013
      4 C         -25.8103   -0.8531   30.1028 C.ar    1  UNL1        0.0001
      5 C         -27.9906   -0.8916   31.2257 C.ar    1  UNL1        0.0159
      6 C         -26.6042   -0.8676   31.2652 C.ar    1  UNL1        0.0013
      7 N         -29.9538   -0.7893   29.6417 N.am    1  UNL1       -0.1961
      8 C         -30.5157   -0.0312   28.8183 C.2     1  UNL1        0.2436
      9 C         -31.7837   -0.4577   28.4284 C.3     1  UNL1        0.1002
     10 C         -30.8163   -1.0358   30.8445 C.1     1  UNL1        0.0154
     11 C         -32.0275   -1.2498   27.5921 C.ar    1  UNL1       -0.0138
     12 C         -33.3358   -1.7966   27.1995 C.ar    1  UNL1       -0.0038
     13 C         -33.4199   -2.7933   26.1974 C.ar    1  UNL1       -0.0003
     14 C         -32.2407   -3.2740   25.6015 C.ar    1  UNL1       -0.0000
     15 C         -31.1010   -2.6325   25.6537 C.ar    1  UNL1       -0.0003
     16 C         -30.9212   -1.7390   26.6174 C.ar    1  UNL1       -0.0038
     17 C         -32.8522    0.1859   29.1955 C.3     1  UNL1        0.0144
     18 O         -29.9128    0.8014   28.0869 O.2     1  UNL1       -0.2732
     19 C         -30.9661   -1.6538   31.6446 C.1     1  UNL1       -0.0433
     20 C         -30.3084   -2.9653   31.7163 C.2     1  UNL1        0.0508
     21 C         -30.3602   -3.6714   32.8778 C.2     1  UNL1        0.0089
     22 C         -31.1861   -3.2562   33.9140 C.2     1  UNL1        0.0006
     23 C         -31.8657   -2.0776   33.8724 C.2     1  UNL1        0.0000
@<TRIPOS>BOND
     1     2     7    1
     2     7     8   am
     3     8     9    1
     4     7    10    1
     5     9    17    1
     6     8    18    2
     7    10    19    3
     8    19    20    1
     9    20    21    2
    10    21    22    1
    11    22    23    2
    12     9    11    1
    13    11    12   ar
    14    12    13   ar
    15    13    14   ar
    16    14    15   ar
    17    15    16   ar
    18    16    11   ar
    19     1     2   ar
    20     2     5   ar
    21     5     6   ar
    22     6     4   ar
    23     4     3   ar
    24     3     1   ar
