@<TRIPOS>MOLECULE
No_1261-gen_results/8p0m/2024-11-26-14-13-15/
 7 7 0 0 0
SMALL
GASTEIGER

@<TRIPOS>ATOM
      1 C         -28.0162   -0.8135   28.8779 C.ar    1  UNL1        0.0009
      2 C         -27.0636   -0.1189   28.6079 C.ar    1  UNL1        0.0114
      3 C         -26.8756    1.1325   28.9134 C.ar    1  UNL1        0.0577
      4 C         -27.9014    1.8066   29.6436 C.ar    1  UNL1        0.0114
      5 C         -28.9449    1.0388   30.0360 C.ar    1  UNL1        0.0009
      6 C         -29.0273   -0.2890   29.7051 C.ar    1  UNL1        0.0001
      7 CL        -25.5203    2.0636   28.4209 Cl      1  UNL1       -0.0822
@<TRIPOS>BOND
     1     3     7    1
     2     1     2   ar
     3     2     3   ar
     4     3     4   ar
     5     4     5   ar
     6     5     6   ar
     7     6     1   ar
