@<TRIPOS>MOLECULE
No_1263-gen_results/8p0m/2024-11-26-14-13-15/
 21 22 0 0 0
SMALL
GASTEIGER

@<TRIPOS>ATOM
      1 C         -28.0162   -0.8135   28.8779 C.ar    1  UNL1       -0.0154
      2 C         -28.4690   -0.7850   29.8287 C.ar    1  UNL1       -0.0039
      3 C         -28.1816    0.4277   28.1134 C.3     1  UNL1        0.0824
      4 C         -27.4498    0.6435   26.8500 C.2     1  UNL1        0.1180
      5 C         -26.4529    0.9939   26.6681 C.2     1  UNL1        0.0018
      6 C         -25.1810    0.8624   26.8164 C.ar    1  UNL1       -0.0022
      7 C         -24.5150    0.1164   27.8116 C.ar    1  UNL1        0.0036
      8 C         -23.1975    0.2648   28.2065 C.ar    1  UNL1        0.0714
      9 C         -28.2893   -2.0095   30.8342 C.ar    1  UNL1       -0.0003
     10 C         -27.5172   -2.9939   30.3016 C.ar    1  UNL1       -0.0000
     11 C         -26.6620   -2.8265   29.2754 C.ar    1  UNL1       -0.0003
     12 C         -26.8777   -1.6181   28.5501 C.ar    1  UNL1       -0.0039
     13 C         -22.4347    1.2056   27.5575 C.ar    1  UNL1        0.0039
     14 C         -22.9551    2.0266   26.5539 C.ar    1  UNL1       -0.0001
     15 C         -24.2731    1.8986   26.2569 C.ar    1  UNL1       -0.0003
     16 C         -26.5173    1.9264   25.3387 C.3     1  UNL1        0.0330
     17 F         -28.3128   -0.0755   25.9942 F       1  UNL1       -0.2088
     18 C         -22.5696   -0.5446   29.2470 C.3     1  UNL1        0.4186
     19 F         -23.2484   -1.0861   29.9331 F       1  UNL1       -0.1659
     20 F         -21.7486    0.3216   29.9981 F       1  UNL1       -0.1659
     21 F         -21.6166   -1.2991   28.6181 F       1  UNL1       -0.1659
@<TRIPOS>BOND
     1     3     4    1
     2     4     5    2
     3     5     6    1
     4     5    16    1
     5     4    17    1
     6     8    18    1
     7    18    19    1
     8    18    20    1
     9    18    21    1
    10     3     1    1
    11     1     2   ar
    12     2     9   ar
    13     9    10   ar
    14    10    11   ar
    15    11    12   ar
    16    12     1   ar
    17     6     7   ar
    18     7     8   ar
    19     8    13   ar
    20    13    14   ar
    21    14    15   ar
    22    15     6   ar
