@<TRIPOS>MOLECULE
No_1264-gen_results/8p0m/2024-11-26-14-13-15/
 21 23 0 0 0
SMALL
GASTEIGER

@<TRIPOS>ATOM
      1 C         -28.0162   -0.8135   28.8779 C.ar    1  UNL1        0.0145
      2 C         -28.4690   -0.7850   29.8287 C.ar    1  UNL1        0.0479
      3 C         -26.5455   -0.8762   28.8500 C.ar    1  UNL1        0.0010
      4 C         -25.8041   -1.0324   30.0571 C.ar    1  UNL1       -0.0028
      5 C         -26.5373   -1.0386   31.2171 C.ar    1  UNL1        0.0010
      6 C         -27.8843   -0.9532   31.1862 C.ar    1  UNL1        0.0145
      7 C         -24.3655   -1.1134   30.0483 C.2     1  UNL1       -0.0092
      8 C         -23.6254   -0.9434   29.0230 C.2     1  UNL1       -0.0289
      9 C         -22.1628   -0.8291   29.0965 C.3     1  UNL1        0.0276
     10 C         -23.6191   -0.2385   31.0306 C.3     1  UNL1        0.1140
     11 N         -24.1490   -0.0763   32.3085 N.3     1  UNL1       -0.1281
     12 C         -22.1886   -0.2955   30.9870 C.3     1  UNL1        0.0282
     13 N         -29.9542   -0.6988   29.8792 N.pl3   1  UNL1       -0.3069
     14 C         -30.5923   -0.0457   28.9797 C.3     1  UNL1        0.1020
     15 C         -32.0197   -0.2553   28.9062 C.3     1  UNL1        0.1231
     16 C         -30.7003   -1.8437   30.3845 C.3     1  UNL1        0.0908
     17 C         -32.0126   -1.9582   30.3441 C.3     1  UNL1        0.0220
     18 C         -32.7071   -1.1670   29.5376 C.3     1  UNL1        0.0147
     19 C         -32.7698    0.7548   27.9792 C.2     1  UNL1        0.3660
     20 O         -33.1260    1.7318   28.4319 O.co2   1  UNL1       -0.2456
     21 O         -32.8555    0.3423   26.7638 O.co2   1  UNL1       -0.2456
@<TRIPOS>BOND
     1     4     7    1
     2     7     8    2
     3     8     9    1
     4     7    10    1
     5    10    11    1
     6     9    12    1
     7    10    12    1
     8     2    13    1
     9    13    14    1
    10    13    16    1
    11    15    18    1
    12    17    18    1
    13    15    19    1
    14    19    20   ar
    15    19    21   ar
    16    14    15    1
    17    17    16    1
    18     1     2   ar
    19     2     6   ar
    20     6     5   ar
    21     5     4   ar
    22     4     3   ar
    23     3     1   ar
