@<TRIPOS>MOLECULE
No_1265-gen_results/8p0m/2024-11-26-14-13-15/
 25 26 0 0 0
SMALL
GASTEIGER

@<TRIPOS>ATOM
      1 C         -28.0162   -0.8135   28.8779 C.ar    1  UNL1        0.1051
      2 C         -27.0636   -0.1189   28.6079 C.ar    1  UNL1        0.1577
      3 C         -26.9716    0.7139   27.5060 C.ar    1  UNL1        0.0966
      4 C         -28.1053    0.7744   26.6421 C.ar    1  UNL1        0.0809
      5 C         -29.2008    0.1044   27.0527 C.ar    1  UNL1        0.0694
      6 C         -29.2096   -0.6029   28.1853 C.ar    1  UNL1        0.0210
      7 CL        -30.5115    0.2088   25.9012 Cl      1  UNL1       -0.0813
      8 F         -25.8730   -0.1869   29.3768 F       1  UNL1       -0.2030
      9 C         -28.2796   -1.6313   30.0932 C.2     1  UNL1        0.3481
     10 O         -28.3764   -1.0973   31.2248 O.3     1  UNL1       -0.4178
     11 O         -28.1309   -2.9091   30.0296 O.2     1  UNL1       -0.2444
     12 CL        -27.9384    1.7793   25.2311 Cl      1  UNL1       -0.0804
     13 CL        -25.3653    1.4067   27.1035 Cl      1  UNL1       -0.0790
     14 C         -29.2451   -1.5849   32.1674 C.2     1  UNL1        0.1831
     15 C         -29.1742   -0.9881   33.4032 C.2     1  UNL1        0.0408
     16 C         -28.3258    0.0996   33.5693 C.ar    1  UNL1        0.0032
     17 C         -28.0942    0.6187   34.8633 C.ar    1  UNL1        0.0001
     18 C         -27.2057    1.7662   35.0677 C.ar    1  UNL1        0.0001
     19 C         -26.5620    2.3429   33.9195 C.ar    1  UNL1        0.0015
     20 C         -26.7645    1.7170   32.6547 C.ar    1  UNL1        0.0191
     21 C         -27.5910    0.6691   32.5496 C.ar    1  UNL1        0.0016
     22 C         -26.0075    2.3332   31.5361 C.2     1  UNL1        0.0988
     23 N         -26.5182    3.2441   30.8109 N.2     1  UNL1       -0.2423
     24 C         -25.8079    3.7793   29.7855 C.2     1  UNL1        0.0989
     25 C         -26.4348    4.8735   28.9935 C.2     1  UNL1        0.0222
@<TRIPOS>BOND
     1     5     7    1
     2     2     8    1
     3     1     9    1
     4     9    10    1
     5     9    11    2
     6     4    12    1
     7     3    13    1
     8    10    14    1
     9    14    15    2
    10    15    16    1
    11    20    22    1
    12    22    23    2
    13    23    24    1
    14    24    25    2
    15     1     2   ar
    16     2     3   ar
    17     3     4   ar
    18     4     5   ar
    19     5     6   ar
    20     6     1   ar
    21    16    17   ar
    22    17    18   ar
    23    18    19   ar
    24    19    20   ar
    25    20    21   ar
    26    21    16   ar
