@<TRIPOS>MOLECULE
No_1266-gen_results/8p0m/2024-11-26-14-13-15/
 28 31 0 0 0
SMALL
GASTEIGER

@<TRIPOS>ATOM
      1 C         -28.0162   -0.8135   28.8779 C.ar    1  UNL1        0.0066
      2 C         -27.0636   -0.1189   28.6079 C.ar    1  UNL1        0.0002
      3 C         -25.7923   -0.4302   29.0761 C.ar    1  UNL1        0.0000
      4 C         -25.5756   -1.5654   29.9363 C.ar    1  UNL1        0.0002
      5 C         -26.7354   -2.3004   30.2173 C.ar    1  UNL1        0.0066
      6 C         -27.9184   -1.9537   29.7629 C.ar    1  UNL1        0.0798
      7 C         -29.0732   -2.7835   30.1783 C.2     1  UNL1        0.3878
      8 O         -29.3220   -2.7952   31.3885 O.co2   1  UNL1       -0.2406
      9 C         -24.5220    0.3538   28.7440 C.ar    1  UNL1        0.0000
     10 C         -24.0727    1.3472   29.5713 C.ar    1  UNL1        0.0000
     11 C         -23.6592    2.3530   29.3116 C.ar    1  UNL1        0.0000
     12 C         -23.1090    2.5840   27.9065 C.ar    1  UNL1        0.0000
     13 C         -23.4243    1.5714   27.0014 C.ar    1  UNL1        0.0000
     14 C         -24.2208    0.5263   27.3599 C.ar    1  UNL1        0.0000
     15 O         -29.3569   -3.8347   29.5391 O.co2   1  UNL1       -0.2406
     16 C         -27.1386    1.1151   27.7234 C.ar    1  UNL1       -0.0000
     17 C         -27.7894    2.1721   28.4555 C.ar    1  UNL1       -0.0000
     18 C         -28.5117    2.1449   29.3489 C.ar    1  UNL1       -0.0000
     19 C         -29.0938    3.3395   29.9915 C.ar    1  UNL1        0.0000
     20 C         -27.5573    3.5415   27.8024 C.ar    1  UNL1       -0.0000
     21 C         -26.6499    3.7268   26.6997 C.ar    1  UNL1       -0.0000
     22 C         -28.8887    4.5617   29.4483 C.ar    1  UNL1        0.0000
     23 C         -28.0892    4.7407   28.4020 C.ar    1  UNL1        0.0000
     24 C         -26.5667    1.0886   26.6337 C.ar    1  UNL1       -0.0003
     25 C         -26.3400    2.5071   25.9932 C.ar    1  UNL1       -0.0000
     26 C         -27.5567    0.5448   25.4970 C.2     1  UNL1       -0.0046
     27 C         -28.8511    0.7154   25.4964 C.2     1  UNL1       -0.0258
     28 C         -29.6662    0.0768   24.6659 C.3     1  UNL1        0.0307
@<TRIPOS>BOND
     1     6     7    1
     2     7     8   ar
     3     3     9    1
     4     7    15   ar
     5     2    16    1
     6    24    26    1
     7    26    27    2
     8    27    28    1
     9     1     2   ar
    10     2     3   ar
    11     3     4   ar
    12     4     5   ar
    13     5     6   ar
    14     6     1   ar
    15    16    17   ar
    16    20    21   ar
    17    21    25   ar
    18    25    24   ar
    19    24    16   ar
    20     9    10   ar
    21    10    11   ar
    22    11    12   ar
    23    12    13   ar
    24    13    14   ar
    25    14     9   ar
    26    17    18   ar
    27    18    19   ar
    28    19    22   ar
    29    22    23   ar
    30    23    20   ar
    31    20    17   ar
