@<TRIPOS>MOLECULE
No_1267-gen_results/8p0m/2024-11-26-14-13-15/
 16 16 0 0 0
SMALL
GASTEIGER

@<TRIPOS>ATOM
      1 C         -28.0162   -0.8135   28.8779 C.ar    1  UNL1        0.0369
      2 C         -27.0636   -0.1189   28.6079 C.ar    1  UNL1        0.0070
      3 C         -25.7647   -0.3897   29.0360 C.ar    1  UNL1        0.0716
      4 C         -25.5296   -1.5302   29.9014 C.ar    1  UNL1        0.0070
      5 C         -26.6888   -2.2893   30.1810 C.ar    1  UNL1        0.0369
      6 C         -27.8727   -1.9508   29.7373 C.ar    1  UNL1        0.1390
      7 C         -24.5491    0.4100   28.7341 C.3     1  UNL1        0.4186
      8 F         -24.5413    0.8962   27.5953 F       1  UNL1       -0.1659
      9 F         -23.3814   -0.3845   28.8484 F       1  UNL1       -0.1659
     10 F         -24.3736    1.3916   29.6595 F       1  UNL1       -0.1659
     11 O         -28.9576   -2.6961   30.1093 O.3     1  UNL1       -0.4707
     12 C         -30.0822   -2.1547   30.5746 C.3     1  UNL1        0.2315
     13 C         -31.1667   -2.7940   30.1695 C.2     1  UNL1        0.0161
     14 C         -32.2621   -2.0870   29.8066 C.2     1  UNL1       -0.0270
     15 C         -32.4263   -0.7469   30.3541 C.3     1  UNL1        0.0258
     16 C         -33.5564    0.0146   30.0719 C.3     1  UNL1        0.0050
@<TRIPOS>BOND
     1     3     7    1
     2     7     8    1
     3     7     9    1
     4     7    10    1
     5     6    11    1
     6    11    12    1
     7    12    13    1
     8    13    14    2
     9    14    15    1
    10    15    16    1
    11     1     2   ar
    12     2     3   ar
    13     3     4   ar
    14     4     5   ar
    15     5     6   ar
    16     6     1   ar
