@<TRIPOS>MOLECULE
No_1268-gen_results/8p0m/2024-11-26-14-13-15/
 24 25 0 0 0
SMALL
GASTEIGER

@<TRIPOS>ATOM
      1 C         -28.0162   -0.8135   28.8779 C.ar    1  UNL1        0.0374
      2 C         -28.4690   -0.7850   29.8287 C.ar    1  UNL1        0.1454
      3 C         -26.5455   -0.8762   28.8500 C.ar    1  UNL1        0.0070
      4 C         -25.8041   -1.0324   30.0571 C.ar    1  UNL1        0.0716
      5 C         -27.9437   -0.9869   31.2075 C.ar    1  UNL1        0.0374
      6 C         -26.5825   -1.0386   31.2231 C.ar    1  UNL1        0.0070
      7 O         -29.9267   -0.7257   29.8772 O.3     1  UNL1       -0.4504
      8 C         -30.5050   -0.0237   28.9624 C.ar    1  UNL1        0.1789
      9 C         -31.3773   -0.3992   28.1172 C.ar    1  UNL1        0.1729
     10 C         -31.9394    0.3228   27.0412 C.ar    1  UNL1        0.0401
     11 C         -31.4912    1.6577   26.9464 C.ar    1  UNL1        0.0033
     12 C         -30.0152    1.3636   28.7408 C.ar    1  UNL1        0.0406
     13 C         -30.5425    2.1519   27.8151 C.ar    1  UNL1        0.0033
     14 C         -24.3782   -1.1203   30.0680 C.3     1  UNL1        0.4186
     15 F         -23.9643   -1.9359   30.7393 F       1  UNL1       -0.1659
     16 F         -23.8585   -1.2760   28.7695 F       1  UNL1       -0.1659
     17 F         -23.8509    0.0834   30.4827 F       1  UNL1       -0.1659
     18 O         -31.8155   -1.7017   28.1675 O.3     1  UNL1       -0.4705
     19 C         -32.1530   -2.2947   29.3224 C.3     1  UNL1        0.2269
     20 C         -33.3318   -2.0414   29.7689 C.3     1  UNL1        0.1386
     21 N         -34.2395   -1.6215   29.1347 N.pl3   1  UNL1       -0.3015
     22 C         -34.5480   -1.9212   27.9706 C.3     1  UNL1        0.1123
     23 C         -35.1422   -0.4962   29.6103 C.2     1  UNL1        0.0615
     24 C         -34.9560   -0.0313   30.8762 C.2     1  UNL1        0.0171
@<TRIPOS>BOND
     1     2     7    1
     2     7     8    1
     3     4    14    1
     4    14    15    1
     5    14    16    1
     6    14    17    1
     7     9    18    1
     8    18    19    1
     9    19    20    1
    10    20    21    1
    11    21    22    1
    12    21    23    1
    13    23    24    2
    14     1     2   ar
    15     2     5   ar
    16     5     6   ar
    17     6     4   ar
    18     4     3   ar
    19     3     1   ar
    20     8     9   ar
    21     9    10   ar
    22    10    11   ar
    23    11    13   ar
    24    13    12   ar
    25    12     8   ar
