@<TRIPOS>MOLECULE
No_1269-gen_results/8p0m/2024-11-26-14-13-15/
 13 14 0 0 0
SMALL
GASTEIGER

@<TRIPOS>ATOM
      1 C         -28.0162   -0.8135   28.8779 C.ar    1  UNL1        0.0000
      2 C         -27.0636   -0.1190   28.6079 C.ar    1  UNL1        0.0000
      3 C         -25.7647   -0.3897   29.0360 C.ar    1  UNL1        0.0001
      4 C         -25.5296   -1.5303   29.9014 C.ar    1  UNL1        0.0000
      5 C         -26.6888   -2.2893   30.1810 C.ar    1  UNL1        0.0000
      6 C         -27.8727   -1.9508   29.7373 C.ar    1  UNL1        0.0000
      7 C         -24.4208    0.2303   28.7927 C.ar    1  UNL1        0.0046
      8 C         -23.2515   -0.1398   29.1486 C.ar    1  UNL1        0.0567
      9 C         -23.2163   -1.3772   29.9163 C.ar    1  UNL1        0.0046
     10 C         -24.2719   -2.0235   30.2631 C.ar    1  UNL1        0.0001
     11 C         -22.0143    0.5020   28.7895 C.2     1  UNL1        0.2842
     12 N         -21.9986    1.5612   27.9779 N.am    1  UNL1       -0.0837
     13 O         -20.8614   -0.1836   28.8535 O.2     1  UNL1       -0.2667
@<TRIPOS>BOND
     1     8    11    1
     2    11    12   am
     3    11    13    2
     4     1     2   ar
     5     2     3   ar
     6     4     5   ar
     7     5     6   ar
     8     6     1   ar
     9     3     4   ar
    10     4    10   ar
    11    10     9   ar
    12     9     8   ar
    13     8     7   ar
    14     7     3   ar
