@<TRIPOS>MOLECULE
No_1270-gen_results/8p0m/2024-11-26-14-13-15/
 21 24 0 0 0
SMALL
GASTEIGER

@<TRIPOS>ATOM
      1 C         -28.0162   -0.8135   28.8779 C.ar    1  UNL1        0.0473
      2 C         -28.4690   -0.7850   29.8287 C.ar    1  UNL1        0.0145
      3 N         -26.6082   -0.9454   28.8569 N.pl3   1  UNL1       -0.2905
      4 C         -25.7271   -0.3585   27.9991 C.2     1  UNL1        0.0241
      5 C         -24.3406   -0.4775   28.2916 C.2     1  UNL1       -0.0140
      6 C         -24.1416   -1.4913   29.2987 C.3     1  UNL1        0.0488
      7 C         -25.5876   -1.7572   29.6689 C.3     1  UNL1        0.0999
      8 C         -29.1983   -0.3351   30.4665 C.ar    1  UNL1        0.0013
      9 C         -29.6273    1.0346   29.9418 C.ar    1  UNL1       -0.0002
     10 C         -29.4512    1.1934   28.6443 C.ar    1  UNL1       -0.0030
     11 C         -28.3515    0.4168   28.1678 C.ar    1  UNL1       -0.0085
     12 C         -27.7753    0.7161   26.8490 C.3     1  UNL1        0.0285
     13 C         -26.4147    0.8264   27.2288 C.3     1  UNL1        0.0353
     14 C         -25.4017    0.9619   25.9160 C.3     1  UNL1        0.0060
     15 C         -26.0098    2.2123   27.8908 C.3     1  UNL1        0.0093
     16 C         -28.3001    1.8960   26.2207 C.3     1  UNL1        0.0051
     17 C         -24.7906    2.4466   28.3791 C.3     1  UNL1        0.0007
     18 C         -27.0770    3.1915   28.0336 C.3     1  UNL1        0.0224
     19 C         -26.7321    4.3807   28.8214 C.2     1  UNL1       -0.0265
     20 C         -28.1960    3.1488   27.1627 C.3     1  UNL1        0.0047
     21 C         -27.0766    5.4387   28.4986 C.2     1  UNL1       -0.0049
@<TRIPOS>BOND
     1     1     3    1
     2     3     4    1
     3     4     5    2
     4     5     6    1
     5     3     7    1
     6     6     7    1
     7    11    12    1
     8     4    13    1
     9    12    13    1
    10    13    14    1
    11    13    15    1
    12    12    16    1
    13    15    17    1
    14    15    18    1
    15    18    19    1
    16    16    20    1
    17    18    20    1
    18    19    21    2
    19     1     2   ar
    20     2     8   ar
    21     8     9   ar
    22     9    10   ar
    23    10    11   ar
    24    11     1   ar
