@<TRIPOS>MOLECULE
No_1271-gen_results/8p0m/2024-11-26-14-13-15/
 5 4 0 0 0
SMALL
GASTEIGER

@<TRIPOS>ATOM
      1 F         -28.0727   -1.2542   28.5316 F       1  UNL1       -0.2018
      2 C         -28.2662   -0.4214   29.1931 C.2     1  UNL1        0.1674
      3 C         -27.2356   -0.0574   30.0145 C.2     1  UNL1        0.0320
      4 C         -25.8939   -0.7075   29.9664 C.2     1  UNL1        0.0024
      5 C         -25.8796   -1.8759   29.1861 C.2     1  UNL1        0.0001
@<TRIPOS>BOND
     1     1     2    1
     2     2     3    2
     3     3     4    1
     4     4     5    2
