@<TRIPOS>MOLECULE
No_1272-gen_results/8p0m/2024-11-26-14-13-15/
 32 34 0 0 0
SMALL
GASTEIGER

@<TRIPOS>ATOM
      1 C         -28.0162   -0.8135   28.8779 C.ar    1  UNL1        0.0376
      2 C         -28.4690   -0.7850   29.8287 C.ar    1  UNL1        0.1485
      3 C         -27.1356    0.2359   28.5352 C.ar    1  UNL1        0.0033
      4 C         -26.8745    1.2825   29.3982 C.ar    1  UNL1        0.0046
      5 C         -28.3613    0.1987   30.9244 C.ar    1  UNL1        0.0375
      6 C         -25.9723    2.3852   29.1040 C.ar    1  UNL1        0.0550
      7 C         -27.5118    1.2316   30.6323 C.ar    1  UNL1        0.0071
      8 C         -25.4925    3.0751   29.8094 C.ar    1  UNL1        0.0045
      9 C         -25.9493    3.0646   31.2874 C.ar    1  UNL1        0.0040
     10 C         -26.9337    2.1155   31.6659 C.ar    1  UNL1        0.0715
     11 C         -25.4032    2.4093   27.6658 C.2     1  UNL1        0.2648
     12 N         -24.4840    2.9950   27.3744 N.am    1  UNL1       -0.1998
     13 O         -26.3011    2.2166   26.7411 O.2     1  UNL1       -0.2684
     14 C         -23.9325    3.1662   25.9610 C.3     1  UNL1        0.1388
     15 O         -29.4113   -1.8235   30.1752 O.3     1  UNL1       -0.4232
     16 C         -29.0222   -3.0681   30.5992 C.2     1  UNL1        0.3361
     17 C         -29.9259   -4.1026   30.3241 C.3     1  UNL1        0.1581
     18 N         -30.4112   -4.2938   29.2432 N.3     1  UNL1       -0.2644
     19 C         -31.6973   -4.0687   29.0766 C.3     1  UNL1        0.0838
     20 C         -32.2561   -4.4043   27.7912 C.3     1  UNL1        0.1193
     21 C         -31.6620   -5.5262   27.1405 C.3     1  UNL1        0.0141
     22 C         -30.3571   -5.9645   27.5524 C.3     1  UNL1        0.0179
     23 C         -29.8160   -5.2156   28.3839 C.3     1  UNL1        0.0726
     24 C         -33.6047   -4.0317   27.3967 C.2     1  UNL1        0.3657
     25 O         -34.0800   -3.0441   27.4545 O.co2   1  UNL1       -0.2456
     26 O         -34.3413   -5.0782   27.0403 O.co2   1  UNL1       -0.2456
     27 C         -29.3849   -5.3479   31.0995 C.3     1  UNL1        0.0294
     28 O         -27.8714   -3.1164   31.1261 O.2     1  UNL1       -0.2482
     29 C         -27.4543    2.0867   33.0529 C.3     1  UNL1        0.4186
     30 F         -27.0309    1.0795   33.6317 F       1  UNL1       -0.1659
     31 F         -28.7815    2.1335   33.0437 F       1  UNL1       -0.1659
     32 F         -27.0590    3.1698   33.7302 F       1  UNL1       -0.1659
@<TRIPOS>BOND
     1     6    11    1
     2    11    12   am
     3    11    13    2
     4    12    14    1
     5     2    15    1
     6    15    16    1
     7    16    17    1
     8    17    18    1
     9    18    19    1
    10    20    21    1
    11    18    23    1
    12    22    23    1
    13    20    24    1
    14    24    25   ar
    15    24    26   ar
    16    17    27    1
    17    16    28    2
    18    10    29    1
    19    29    30    1
    20    29    31    1
    21    29    32    1
    22    19    20    1
    23    21    22    1
    24     4     6   ar
    25     6     8   ar
    26     8     9   ar
    27     9    10   ar
    28    10     7   ar
    29     1     2   ar
    30     2     5   ar
    31     5     7   ar
    32     7     4   ar
    33     4     3   ar
    34     3     1   ar
