@<TRIPOS>MOLECULE
No_1273-gen_results/8p0m/2024-11-26-14-13-15/
 13 14 0 0 0
SMALL
GASTEIGER

@<TRIPOS>ATOM
      1 C         -28.0162   -0.8135   28.8779 C.ar    1  UNL1        0.0029
      2 C         -28.4690   -0.7850   29.8287 C.ar    1  UNL1        0.0001
      3 C         -28.1960    0.3478   28.0550 C.ar    1  UNL1        0.0353
      4 C         -27.4421    0.5100   26.7946 C.2     1  UNL1        0.1807
      5 C         -26.4394    0.8329   26.6142 C.3     1  UNL1        0.1057
      6 C         -25.2139    0.6624   26.7019 C.2     1  UNL1       -0.0144
      7 C         -24.2460    1.4732   26.1224 C.2     1  UNL1       -0.0041
      8 C         -24.8131    2.6495   25.7847 C.2     1  UNL1       -0.0041
      9 C         -26.4349    2.2503   25.8010 C.2     1  UNL1       -0.0144
     10 C         -29.4953    0.0657   30.3788 C.ar    1  UNL1        0.0000
     11 C         -29.1134    1.3026   28.3822 C.ar    1  UNL1        0.0029
     12 C         -29.7734    1.1699   29.5918 C.ar    1  UNL1        0.0001
     13 O         -28.1909   -0.1276   25.7909 O.2     1  UNL1       -0.2907
@<TRIPOS>BOND
     1     3     4    1
     2     4     5    1
     3     5     6    1
     4     6     7    2
     5     7     8    1
     6     5     9    1
     7     8     9    2
     8     4    13    2
     9     1     2   ar
    10     2    10   ar
    11    10    12   ar
    12    12    11   ar
    13    11     3   ar
    14     3     1   ar
