@<TRIPOS>MOLECULE
No_1276-gen_results/8p0m/2024-11-26-14-13-15/
 14 15 0 0 0
SMALL
GASTEIGER

@<TRIPOS>ATOM
      1 C         -28.0162   -0.8135   28.8779 C.ar    1  UNL1       -0.0043
      2 C         -28.4690   -0.7850   29.8287 C.ar    1  UNL1       -0.0003
      3 C         -28.1960    0.3478   28.0550 C.ar    1  UNL1       -0.0218
      4 C         -29.0191    1.3501   28.3782 C.ar    1  UNL1       -0.0043
      5 C         -29.2330    0.0588   30.3450 C.ar    1  UNL1       -0.0000
      6 C         -29.5334    1.2062   29.6597 C.ar    1  UNL1       -0.0003
      7 C         -27.4957    0.3867   26.6807 C.3     1  UNL1        0.0310
      8 C         -26.0355    0.3978   26.6663 C.3     1  UNL1        0.0310
      9 C         -25.3030    1.4051   27.2353 C.ar    1  UNL1       -0.0218
     10 C         -23.8723    1.3036   27.3137 C.ar    1  UNL1       -0.0043
     11 C         -23.1874    1.6207   28.3819 C.ar    1  UNL1       -0.0003
     12 C         -23.8384    2.2186   29.4659 C.ar    1  UNL1       -0.0000
     13 C         -25.2390    2.3399   29.4935 C.ar    1  UNL1       -0.0003
     14 C         -25.9061    1.8336   28.4491 C.ar    1  UNL1       -0.0043
@<TRIPOS>BOND
     1     3     7    1
     2     7     8    1
     3     8     9    1
     4     9    10   ar
     5    10    11   ar
     6    11    12   ar
     7    12    13   ar
     8    13    14   ar
     9    14     9   ar
    10     1     2   ar
    11     2     5   ar
    12     5     6   ar
    13     6     4   ar
    14     4     3   ar
    15     3     1   ar
