@<TRIPOS>MOLECULE
No_1277-gen_results/8p0m/2024-11-26-14-13-15/
 21 23 0 0 0
SMALL
GASTEIGER

@<TRIPOS>ATOM
      1 C         -28.0162   -0.8135   28.8779 C.ar    1  UNL1       -0.0039
      2 C         -28.4690   -0.7850   29.8287 C.ar    1  UNL1       -0.0003
      3 C         -27.0871    0.2903   28.6377 C.ar    1  UNL1       -0.0181
      4 C         -26.8317    1.2487   29.5869 C.ar    1  UNL1       -0.0039
      5 C         -28.3914    0.0801   31.0065 C.ar    1  UNL1       -0.0000
      6 C         -27.4940    1.1521   30.7841 C.ar    1  UNL1       -0.0003
      7 C         -26.3172    0.3994   27.3653 C.3     1  UNL1        0.0486
      8 C         -24.9405    0.2550   27.5028 C.ar    1  UNL1       -0.0181
      9 C         -26.9129    0.5860   26.1397 C.3     1  UNL1        0.0304
     10 C         -28.2688    0.7168   25.9850 C.ar    1  UNL1       -0.0219
     11 C         -28.7657    0.7315   24.6860 C.ar    1  UNL1       -0.0043
     12 C         -30.1595    0.8701   24.4627 C.ar    1  UNL1       -0.0003
     13 C         -30.8294    1.0191   25.1944 C.ar    1  UNL1       -0.0000
     14 C         -30.5277    1.0618   26.6717 C.ar    1  UNL1       -0.0003
     15 C         -29.3046    0.9050   27.0254 C.ar    1  UNL1       -0.0043
     16 C         -26.0342    1.3245   25.3254 C.3     1  UNL1        0.0054
     17 C         -24.3464   -0.4610   28.5604 C.ar    1  UNL1       -0.0039
     18 C         -23.0571   -0.1913   28.9912 C.ar    1  UNL1       -0.0003
     19 C         -22.2608    0.6892   28.1762 C.ar    1  UNL1       -0.0000
     20 C         -22.8664    1.4576   27.1725 C.ar    1  UNL1       -0.0003
     21 C         -24.1979    1.3435   26.9425 C.ar    1  UNL1       -0.0039
@<TRIPOS>BOND
     1     3     7    1
     2     7     8    1
     3     7     9    1
     4     9    10    1
     5     9    16    1
     6    10    11   ar
     7    11    12   ar
     8    12    13   ar
     9    13    14   ar
    10    14    15   ar
    11    15    10   ar
    12     1     2   ar
    13     2     5   ar
    14     5     6   ar
    15     6     4   ar
    16     4     3   ar
    17     3     1   ar
    18     8    17   ar
    19    17    18   ar
    20    18    19   ar
    21    19    20   ar
    22    20    21   ar
    23    21     8   ar
