@<TRIPOS>MOLECULE
No_1278-gen_results/8p0m/2024-11-26-14-13-15/
 15 16 0 0 0
SMALL
GASTEIGER

@<TRIPOS>ATOM
      1 C         -28.0162   -0.8135   28.8779 C.ar    1  UNL1        0.0013
      2 C         -27.0636   -0.1189   28.6079 C.ar    1  UNL1        0.0001
      3 C         -26.9716    0.7139   27.5060 C.ar    1  UNL1        0.0012
      4 C         -28.1053    0.7744   26.6421 C.ar    1  UNL1        0.0145
      5 C         -29.2041    0.1179   27.0477 C.ar    1  UNL1        0.0479
      6 C         -29.2127   -0.6088   28.1281 C.ar    1  UNL1        0.0145
      7 N         -30.3053    0.2258   26.1930 N.pl3   1  UNL1       -0.3041
      8 C         -31.4543   -0.1603   26.5600 C.3     1  UNL1        0.1122
      9 C         -30.3105    1.3214   25.2746 C.3     1  UNL1        0.1122
     10 C         -25.6430    1.3877   27.1319 C.ar    1  UNL1        0.0000
     11 C         -25.4618    2.2166   26.2388 C.ar    1  UNL1        0.0000
     12 C         -24.1649    2.8590   26.0568 C.ar    1  UNL1        0.0000
     13 C         -23.0603    2.3800   26.7362 C.ar    1  UNL1        0.0000
     14 C         -23.2087    1.3274   27.6365 C.ar    1  UNL1        0.0000
     15 C         -24.5218    0.8494   27.8821 C.ar    1  UNL1        0.0000
@<TRIPOS>BOND
     1     5     7    1
     2     7     8    1
     3     7     9    1
     4     3    10    1
     5     1     2   ar
     6     2     3   ar
     7     3     4   ar
     8     4     5   ar
     9     5     6   ar
    10     6     1   ar
    11    10    11   ar
    12    11    12   ar
    13    12    13   ar
    14    13    14   ar
    15    14    15   ar
    16    15    10   ar
