@<TRIPOS>MOLECULE
No_1280-gen_results/8p0m/2024-11-26-14-13-15/
 24 26 0 0 0
SMALL
GASTEIGER

@<TRIPOS>ATOM
      1 C         -28.0162   -0.8135   28.8779 C.ar    1  UNL1        0.0369
      2 C         -27.0636   -0.1189   28.6079 C.ar    1  UNL1        0.0031
      3 C         -25.7647   -0.3897   29.0360 C.ar    1  UNL1        0.0002
      4 C         -25.5296   -1.5302   29.9014 C.ar    1  UNL1        0.0031
      5 C         -26.6888   -2.2893   30.1810 C.ar    1  UNL1        0.0369
      6 C         -27.8727   -1.9508   29.7373 C.ar    1  UNL1        0.1385
      7 O         -28.9304   -2.7298   30.1154 O.3     1  UNL1       -0.4773
      8 C         -24.5394    0.4211   28.7421 C.ar    1  UNL1        0.0008
      9 C         -23.3459    0.1143   29.1690 C.ar    1  UNL1        0.0001
     10 C         -22.1936    0.8740   28.7553 C.ar    1  UNL1        0.0009
     11 C         -22.3615    1.8342   27.6952 C.ar    1  UNL1        0.0114
     12 C         -24.5980    1.3584   27.6396 C.ar    1  UNL1        0.0114
     13 C         -23.5460    2.0827   27.2326 C.ar    1  UNL1        0.0577
     14 CL        -23.7509    3.2731   25.9875 Cl      1  UNL1       -0.0822
     15 C         -28.7782   -3.9930   30.6484 C.3     1  UNL1        0.1875
     16 C         -28.7937   -4.9987   29.8229 C.3     1  UNL1        0.0492
     17 C         -29.0199   -4.1502   32.0215 C.3     1  UNL1        0.1555
     18 N         -29.3007   -3.1236   32.7812 N.pl3   1  UNL1       -0.2338
     19 C         -29.7848   -3.2028   34.0899 C.ar    1  UNL1        0.0654
     20 C         -30.4401   -4.0287   34.4564 C.ar    1  UNL1        0.0161
     21 C         -31.1396   -4.0962   35.6246 C.ar    1  UNL1        0.0013
     22 C         -30.9449   -2.9893   36.5507 C.ar    1  UNL1        0.0001
     23 C         -29.5888   -1.8974   34.8721 C.ar    1  UNL1        0.0161
     24 C         -30.2172   -1.8835   36.1111 C.ar    1  UNL1        0.0013
@<TRIPOS>BOND
     1     6     7    1
     2     3     8    1
     3    13    14    1
     4     7    15    1
     5    15    16    1
     6    15    17    1
     7    17    18    1
     8    18    19    1
     9    19    20   ar
    10    20    21   ar
    11    21    22   ar
    12    22    24   ar
    13    24    23   ar
    14    23    19   ar
    15     1     2   ar
    16     2     3   ar
    17     3     4   ar
    18     4     5   ar
    19     5     6   ar
    20     6     1   ar
    21     8     9   ar
    22     9    10   ar
    23    10    11   ar
    24    11    13   ar
    25    13    12   ar
    26    12     8   ar
