@<TRIPOS>MOLECULE
No_1281-gen_results/8p0m/2024-11-26-14-13-15/
 28 30 0 0 0
SMALL
GASTEIGER

@<TRIPOS>ATOM
      1 C         -28.0162   -0.8135   28.8779 C.3     1  UNL1        0.0558
      2 C         -27.0636   -0.1189   28.6079 C.ar    1  UNL1        0.0206
      3 C         -25.7647   -0.3897   29.0360 C.ar    1  UNL1        0.1351
      4 C         -24.5516    0.4058   28.7646 C.ar    1  UNL1        0.0404
      5 C         -24.6957    1.4480   27.7988 C.ar    1  UNL1        0.0746
      6 C         -26.0010    1.6784   27.2965 C.ar    1  UNL1        0.0083
      7 C         -26.9149    0.9208   27.6542 C.ar    1  UNL1        0.0546
      8 C         -28.6432   -0.4893   30.2316 C.ar    1  UNL1       -0.0177
      9 C         -28.3169    0.5267   30.7978 C.ar    1  UNL1       -0.0039
     10 C         -28.9679    0.8692   32.1427 C.ar    1  UNL1       -0.0003
     11 C         -23.4829    2.2162   27.4737 C.3     1  UNL1        0.4187
     12 F         -22.5932    1.8375   27.8983 F       1  UNL1       -0.1659
     13 F         -23.3607    2.1729   26.0444 F       1  UNL1       -0.1659
     14 F         -23.7890    3.5384   27.7212 F       1  UNL1       -0.1659
     15 C         -29.8272   -0.0271   32.6846 C.ar    1  UNL1       -0.0000
     16 C         -29.4675   -1.5821   30.8421 C.ar    1  UNL1       -0.0039
     17 C         -30.0884   -1.2704   32.0786 C.ar    1  UNL1       -0.0003
     18 C         -28.3392    1.2887   27.0075 C.2     1  UNL1        0.2688
     19 O         -28.4809    1.3310   25.8560 O.2     1  UNL1       -0.2680
     20 N         -29.3526    1.5521   27.8438 N.am    1  UNL1       -0.1755
     21 C         -30.6751    1.8973   27.4027 C.ar    1  UNL1        0.0737
     22 C         -31.1742    2.7711   27.7286 C.ar    1  UNL1        0.0166
     23 C         -31.3800    0.6219   27.3765 C.ar    1  UNL1        0.0166
     24 C         -32.4466    0.6528   27.3065 C.ar    1  UNL1        0.0013
     25 C         -32.5913    3.0142   27.6097 C.ar    1  UNL1        0.0013
     26 C         -33.3051    1.8113   27.4233 C.ar    1  UNL1        0.0001
     27 O         -25.4785   -1.3522   29.9700 O.3     1  UNL1       -0.4717
     28 C         -24.2795   -1.8587   30.0566 C.3     1  UNL1        0.2525
@<TRIPOS>BOND
     1     1     8    1
     2     5    11    1
     3    11    12    1
     4    11    13    1
     5    11    14    1
     6     7    18    1
     7    18    19    2
     8    18    20   am
     9    20    21    1
    10     3    27    1
    11    27    28    1
    12     1     2    1
    13     8     9   ar
    14     9    10   ar
    15    10    15   ar
    16    15    17   ar
    17    17    16   ar
    18    16     8   ar
    19     2     3   ar
    20     3     4   ar
    21     4     5   ar
    22     5     6   ar
    23     6     7   ar
    24     7     2   ar
    25    21    22   ar
    26    22    25   ar
    27    25    26   ar
    28    26    24   ar
    29    24    23   ar
    30    23    21   ar
