@<TRIPOS>MOLECULE
No_1282-gen_results/8p0m/2024-11-26-14-13-15/
 10 10 0 0 0
SMALL
GASTEIGER

@<TRIPOS>ATOM
      1 O         -28.1229   -1.3353   28.4874 O.2     1  UNL1       -0.2733
      2 C         -27.4806   -0.4044   28.7094 C.2     1  UNL1        0.2414
      3 C         -26.3804   -0.0867   27.9394 C.3     1  UNL1        0.0874
      4 N         -27.4232    0.1749   30.0549 N.am    1  UNL1       -0.2049
      5 C         -25.8482    1.0048   27.9942 C.3     1  UNL1        0.0216
      6 C         -25.8487    1.7377   29.2952 C.3     1  UNL1        0.1133
      7 C         -26.7619    1.3299   30.2362 C.3     1  UNL1        0.1253
      8 C         -25.0738    2.9752   29.4639 C.2     1  UNL1        0.3119
      9 O         -24.1850    3.2733   28.6885 O.2     1  UNL1       -0.2591
     10 F         -24.9862    3.2883   30.7423 F       1  UNL1       -0.1636
@<TRIPOS>BOND
     1     1     2    2
     2     2     3    1
     3     2     4   am
     4     5     6    1
     5     6     7    1
     6     6     8    1
     7     8     9    2
     8     8    10    1
     9     3     5    1
    10     7     4    1
