@<TRIPOS>MOLECULE
No_1283-gen_results/8p0m/2024-11-26-14-13-15/
 15 16 0 0 0
SMALL
GASTEIGER

@<TRIPOS>ATOM
      1 C         -28.0162   -0.8135   28.8779 C.ar    1  UNL1        0.0002
      2 C         -27.0636   -0.1189   28.6079 C.ar    1  UNL1        0.0000
      3 C         -26.9716    0.7139   27.5060 C.ar    1  UNL1        0.0002
      4 C         -28.1053    0.7744   26.6421 C.ar    1  UNL1        0.0066
      5 C         -29.2008    0.1044   27.0527 C.ar    1  UNL1        0.0798
      6 C         -29.2096   -0.6029   28.1853 C.ar    1  UNL1        0.0066
      7 C         -30.3702    0.2264   26.1604 C.2     1  UNL1        0.3878
      8 O         -30.9870    1.1892   26.1601 O.co2   1  UNL1       -0.2406
      9 O         -30.4768   -0.7090   25.2126 O.co2   1  UNL1       -0.2406
     10 C         -25.6998   -0.2105   29.4319 C.ar    1  UNL1        0.0000
     11 C         -25.1492    1.0369   29.9365 C.ar    1  UNL1        0.0000
     12 C         -23.8013    0.9900   30.1775 C.ar    1  UNL1        0.0000
     13 C         -23.0436   -0.1927   30.2103 C.ar    1  UNL1        0.0000
     14 C         -23.6465   -1.3502   29.7587 C.ar    1  UNL1        0.0000
     15 C         -24.9491   -1.3751   29.2690 C.ar    1  UNL1        0.0000
@<TRIPOS>BOND
     1     5     7    1
     2     7     8   ar
     3     7     9   ar
     4     2    10    1
     5     1     2   ar
     6     2     3   ar
     7     3     4   ar
     8     4     5   ar
     9     5     6   ar
    10     6     1   ar
    11    10    11   ar
    12    11    12   ar
    13    12    13   ar
    14    13    14   ar
    15    14    15   ar
    16    15    10   ar
