@<TRIPOS>MOLECULE
No_1284-gen_results/8p0m/2024-11-26-14-13-15/
 15 16 0 0 0
SMALL
GASTEIGER

@<TRIPOS>ATOM
      1 C         -28.0162   -0.8135   28.8779 C.ar    1  UNL1        0.0040
      2 C         -27.0636   -0.1189   28.6079 C.ar    1  UNL1        0.0711
      3 C         -26.9716    0.7139   27.5060 C.ar    1  UNL1       -0.0002
      4 C         -28.1053    0.7744   26.6421 C.ar    1  UNL1       -0.0160
      5 C         -29.2008    0.1044   27.0527 C.ar    1  UNL1        0.0511
      6 C         -29.2096   -0.6029   28.1853 C.ar    1  UNL1        0.0042
      7 C         -30.3702    0.2264   26.1604 C.2     1  UNL1        0.2645
      8 O         -31.2210   -0.4630   26.3096 O.2     1  UNL1       -0.2684
      9 N         -30.1244    0.8419   24.8873 N.am    1  UNL1       -0.2013
     10 C         -25.7085   -0.2255   29.4405 C.3     1  UNL1        0.4186
     11 F         -25.6507   -0.8754   30.3304 F       1  UNL1       -0.1659
     12 F         -25.4121    1.0867   29.8936 F       1  UNL1       -0.1659
     13 F         -24.6279   -0.4157   28.5780 F       1  UNL1       -0.1659
     14 C         -29.0856    1.7273   24.5894 C.3     1  UNL1        0.1201
     15 C         -27.9249    1.5148   25.4769 C.3     1  UNL1        0.0499
@<TRIPOS>BOND
     1     5     7    1
     2     7     8    2
     3     7     9   am
     4     2    10    1
     5    10    11    1
     6    10    12    1
     7    10    13    1
     8     4    15    1
     9    14    15    1
    10    14     9    1
    11     1     2   ar
    12     2     3   ar
    13     3     4   ar
    14     4     5   ar
    15     5     6   ar
    16     6     1   ar
