@<TRIPOS>MOLECULE
No_1285-gen_results/8p0m/2024-11-26-14-13-15/
 11 11 0 0 0
SMALL
GASTEIGER

@<TRIPOS>ATOM
      1 C         -28.0162   -0.8135   28.8779 C.ar    1  UNL1        0.0015
      2 C         -28.4690   -0.7850   29.8287 C.ar    1  UNL1        0.0000
      3 C         -27.0871    0.2903   28.6377 C.ar    1  UNL1        0.0172
      4 C         -26.2516    0.4114   27.4223 C.2     1  UNL1        0.0760
      5 C         -28.3913    0.1041   30.9805 C.ar    1  UNL1        0.0000
      6 C         -27.5332    1.1666   30.7866 C.ar    1  UNL1        0.0000
      7 C         -26.8281    1.2557   29.6454 C.ar    1  UNL1        0.0015
      8 N         -25.1895    0.4694   27.3613 N.2     1  UNL1       -0.2683
      9 C         -27.0351    0.4919   26.1389 C.2     1  UNL1        0.0187
     10 C         -26.1127    0.4643   25.1016 C.2     1  UNL1        0.0016
     11 C         -24.3648    0.4312   28.6844 C.3     1  UNL1        0.1517
@<TRIPOS>BOND
     1     3     4    1
     2     4     8    2
     3     4     9    1
     4     9    10    2
     5     8    11    1
     6     1     2   ar
     7     2     5   ar
     8     5     6   ar
     9     6     7   ar
    10     7     3   ar
    11     3     1   ar
