@<TRIPOS>MOLECULE
No_1286-gen_results/8p0m/2024-11-26-14-13-15/
 15 14 0 0 0
SMALL
GASTEIGER

@<TRIPOS>ATOM
      1 C         -28.0162   -0.8135   28.8779 C.3     1  UNL1        0.1481
      2 C         -28.4690   -0.7850   29.8287 C.3     1  UNL1        0.2468
      3 C         -26.5042   -0.7777   28.8766 C.3     1  UNL1        0.4009
      4 F         -26.0808   -1.8936   29.1655 F       1  UNL1       -0.1699
      5 F         -25.9581    0.1184   29.7237 F       1  UNL1       -0.1699
      6 F         -25.9513   -0.4199   27.6514 F       1  UNL1       -0.1699
      7 F         -27.7649   -0.9454   30.7900 F       1  UNL1       -0.2270
      8 C         -29.9331   -0.9371   30.0331 C.2     1  UNL1        0.2786
      9 O         -30.4066   -1.8114   30.6116 O.2     1  UNL1       -0.2700
     10 N         -30.6598   -0.0193   29.4228 N.am    1  UNL1       -0.1756
     11 C         -32.0909   -0.0610   29.3842 C.2     1  UNL1        0.0887
     12 C         -32.5757    0.6007   28.4277 C.2     1  UNL1        0.0176
     13 C         -31.8428    1.3426   27.6176 C.2     1  UNL1       -0.0032
     14 C         -32.3583    2.0348   26.4647 C.2     1  UNL1       -0.0257
     15 C         -33.6756    1.8750   26.1661 C.3     1  UNL1        0.0307
@<TRIPOS>BOND
     1     1     2    1
     2     1     3    1
     3     3     4    1
     4     3     5    1
     5     3     6    1
     6     2     7    1
     7     2     8    1
     8     8     9    2
     9     8    10   am
    10    10    11    1
    11    11    12    2
    12    12    13    1
    13    13    14    2
    14    14    15    1
