@<TRIPOS>MOLECULE
No_1287-gen_results/8p0m/2024-11-26-14-13-15/
 21 24 0 0 0
SMALL
GASTEIGER

@<TRIPOS>ATOM
      1 C         -28.0162   -0.8135   28.8779 C.3     1  UNL1        0.1375
      2 C         -27.0636   -0.1189   28.6079 C.ar    1  UNL1        0.0032
      3 C         -25.7923   -0.4302   29.0761 C.ar    1  UNL1        0.0490
      4 C         -24.5456    0.3494   28.8225 C.ar    1  UNL1       -0.0118
      5 C         -24.6586    1.4196   27.8878 C.ar    1  UNL1        0.0513
      6 C         -25.9471    1.6811   27.3792 C.ar    1  UNL1        0.0040
      7 C         -27.0439    0.9739   27.6871 C.ar    1  UNL1       -0.0023
      8 N         -29.1882   -0.1472   29.0918 N.am    1  UNL1       -0.2009
      9 C         -30.2017   -0.7833   29.7303 C.2     1  UNL1        0.2417
     10 C         -23.4507    2.1524   27.6005 C.2     1  UNL1        0.2645
     11 N         -22.2617    1.7464   28.0912 N.am    1  UNL1       -0.2013
     12 O         -23.4953    3.0279   26.6797 O.2     1  UNL1       -0.2684
     13 C         -29.9356   -1.9807   30.3446 C.3     1  UNL1        0.0887
     14 C         -28.6819   -2.5800   30.3326 C.3     1  UNL1        0.0334
     15 C         -27.6822   -1.9035   29.7855 C.3     1  UNL1        0.1201
     16 N         -26.3774   -2.2591   29.9312 N.am    1  UNL1       -0.2013
     17 C         -25.4962   -1.5591   29.8466 C.2     1  UNL1        0.2642
     18 O         -31.3772   -0.3258   29.6266 O.2     1  UNL1       -0.2733
     19 O         -24.3008   -1.9445   30.1119 O.2     1  UNL1       -0.2684
     20 C         -22.0388    0.7853   28.9845 C.3     1  UNL1        0.1201
     21 C         -23.2637    0.0146   29.3053 C.3     1  UNL1        0.0501
@<TRIPOS>BOND
     1     1     2    1
     2     1     8    1
     3     8     9   am
     4     5    10    1
     5    10    11   am
     6    10    12    2
     7     9    13    1
     8     1    15    1
     9    14    15    1
    10     3    17    1
    11    16    17   am
    12     9    18    2
    13    17    19    2
    14    11    20    1
    15     4    21    1
    16    15    16    1
    17    21    20    1
    18    14    13    1
    19     2     7   ar
    20     7     6   ar
    21     6     5   ar
    22     5     4   ar
    23     4     3   ar
    24     3     2   ar
