@<TRIPOS>MOLECULE
No_1289-gen_results/8p0m/2024-11-26-14-13-15/
 12 13 0 0 0
SMALL
GASTEIGER

@<TRIPOS>ATOM
      1 C         -28.0162   -0.8135   28.8779 C.ar    1  UNL1        0.0000
      2 C         -27.0636   -0.1190   28.6079 C.ar    1  UNL1        0.0000
      3 C         -25.7647   -0.3897   29.0360 C.ar    1  UNL1        0.0000
      4 C         -25.5296   -1.5302   29.9014 C.ar    1  UNL1        0.0000
      5 C         -26.6888   -2.2893   30.1810 C.ar    1  UNL1        0.0000
      6 C         -27.8727   -1.9508   29.7373 C.ar    1  UNL1        0.0000
      7 C         -24.4208    0.2303   28.7927 C.ar    1  UNL1        0.0000
      8 C         -24.3142    1.1690   27.8085 C.ar    1  UNL1        0.0000
      9 C         -23.0338    1.7596   27.5475 C.ar    1  UNL1        0.0000
     10 C         -21.8670    1.3216   28.2051 C.ar    1  UNL1        0.0000
     11 C         -23.2241   -0.2056   29.4136 C.ar    1  UNL1        0.0000
     12 C         -21.9672    0.3743   29.0957 C.ar    1  UNL1        0.0000
@<TRIPOS>BOND
     1     3     7    1
     2     7     8   ar
     3     8     9   ar
     4     9    10   ar
     5    10    12   ar
     6    12    11   ar
     7    11     7   ar
     8     1     2   ar
     9     2     3   ar
    10     3     4   ar
    11     4     5   ar
    12     5     6   ar
    13     6     1   ar
