@<TRIPOS>MOLECULE
No_129-gen_results/8p0m/2024-11-26-14-13-15/
 25 30 0 0 0
SMALL
GASTEIGER

@<TRIPOS>ATOM
      1 C         -28.0162   -0.8135   28.8779 C.3     1  UNL1        0.0590
      2 C         -27.0636   -0.1190   28.6079 C.ar    1  UNL1       -0.0235
      3 C         -25.7923   -0.4302   29.0761 C.ar    1  UNL1       -0.0259
      4 C         -24.5456    0.3494   28.8225 C.ar    1  UNL1       -0.0013
      5 C         -23.2409    0.0217   29.3323 C.ar    1  UNL1       -0.0001
      6 C         -27.8820   -1.8995   29.8633 C.3     1  UNL1        0.1655
      7 C         -26.6706   -2.3272   30.3212 C.3     1  UNL1        0.0403
      8 C         -25.5433   -1.5852   29.9316 C.3     1  UNL1        0.0289
      9 C         -22.1918    0.8302   29.0004 C.ar    1  UNL1        0.0031
     10 C         -22.1472    1.7783   28.0287 C.ar    1  UNL1        0.0375
     11 C         -24.6254    1.6458   28.1951 C.ar    1  UNL1        0.0343
     12 C         -23.4130    2.2586   27.6822 C.ar    1  UNL1        0.1453
     13 F         -28.9440   -2.6511   30.2002 F       1  UNL1       -0.2369
     14 O         -23.5537    3.3180   26.8526 O.3     1  UNL1       -0.4504
     15 C         -24.7365    3.9675   26.8493 C.2     1  UNL1        0.1795
     16 C         -25.8489    2.1712   27.7374 C.ar    1  UNL1        0.0057
     17 C         -25.8776    3.5079   27.2183 C.2     1  UNL1        0.0408
     18 C         -27.0809    1.3948   28.1237 C.ar    1  UNL1       -0.0043
     19 C         -28.4065    1.8264   27.6902 C.ar    1  UNL1       -0.0043
     20 C         -28.6927    2.7131   26.8618 C.ar    1  UNL1       -0.0003
     21 C         -29.9834    3.1172   26.5266 C.ar    1  UNL1       -0.0000
     22 C         -31.0169    2.3984   27.0192 C.ar    1  UNL1       -0.0003
     23 C         -30.7586    1.3278   27.9006 C.ar    1  UNL1       -0.0043
     24 C         -29.5367    1.0959   28.2558 C.ar    1  UNL1       -0.0218
     25 C         -29.2033   -0.2292   28.9876 C.3     1  UNL1        0.0334
@<TRIPOS>BOND
     1     1     2    1
     2     1     6    1
     3     6     7    1
     4     3     8    1
     5     7     8    1
     6     6    13    1
     7    12    14    1
     8    14    15    1
     9    15    17    2
    10    16    17    1
    11    18    19    1
    12     1    25    1
    13    24    25    1
    14     2     3   ar
    15     3     4   ar
    16    11    16   ar
    17    16    18   ar
    18    18     2   ar
    19    19    20   ar
    20    20    21   ar
    21    21    22   ar
    22    22    23   ar
    23    23    24   ar
    24    24    19   ar
    25     4     5   ar
    26     5     9   ar
    27     9    10   ar
    28    10    12   ar
    29    12    11   ar
    30    11     4   ar
