@<TRIPOS>MOLECULE
No_1290-gen_results/8p0m/2024-11-26-14-13-15/
 15 16 0 0 0
SMALL
GASTEIGER

@<TRIPOS>ATOM
      1 C         -28.0162   -0.8135   28.8779 C.ar    1  UNL1       -0.0042
      2 C         -27.0636   -0.1190   28.6079 C.ar    1  UNL1       -0.0218
      3 C         -26.9716    0.7139   27.5060 C.3     1  UNL1        0.0480
      4 C         -25.8205    1.4909   27.1160 C.3     1  UNL1        0.0304
      5 C         -24.8579    1.3421   27.6008 C.2     1  UNL1       -0.0471
      6 C         -23.5687    2.1107   27.3209 C.2     1  UNL1       -0.0511
      7 C         -23.7157    2.8155   26.0971 C.3     1  UNL1        0.0257
      8 C         -27.9699   -1.6354   30.0987 C.ar    1  UNL1       -0.0003
      9 C         -26.7322   -1.8371   30.7195 C.ar    1  UNL1       -0.0003
     10 C         -25.5894   -1.2265   30.2909 C.ar    1  UNL1       -0.0042
     11 C         -25.6969   -0.3526   29.2089 C.ar    1  UNL1       -0.0218
     12 C         -24.6269    0.3738   28.8299 C.3     1  UNL1        0.0474
     13 C         -22.3317    2.0036   27.9900 C.3     1  UNL1        0.0257
     14 C         -28.2296    0.8565   26.6762 C.2     1  UNL1       -0.0218
     15 C         -29.1542    1.7170   27.0271 C.2     1  UNL1       -0.0046
@<TRIPOS>BOND
     1     2     3    1
     2     3     4    1
     3     4     5    1
     4     5     6    2
     5     6     7    1
     6     5    12    1
     7    11    12    1
     8     6    13    1
     9     3    14    1
    10    14    15    2
    11     1     2   ar
    12     2    11   ar
    13    11    10   ar
    14    10     9   ar
    15     9     8   ar
    16     8     1   ar
