@<TRIPOS>MOLECULE
No_1291-gen_results/8p0m/2024-11-26-14-13-15/
 18 19 0 0 0
SMALL
GASTEIGER

@<TRIPOS>ATOM
      1 C         -28.0162   -0.8135   28.8779 C.3     1  UNL1        0.0526
      2 C         -27.0636   -0.1189   28.6079 C.ar    1  UNL1       -0.0179
      3 C         -25.7923   -0.4302   29.0761 C.ar    1  UNL1       -0.0055
      4 C         -24.5456    0.3494   28.8225 C.ar    1  UNL1        0.0142
      5 C         -24.6586    1.4196   27.8878 C.ar    1  UNL1        0.1366
      6 C         -25.9471    1.6811   27.3792 C.ar    1  UNL1        0.0290
      7 C         -27.0439    0.9739   27.6871 C.ar    1  UNL1       -0.0017
      8 C         -28.6597   -0.4600   30.2006 C.ar    1  UNL1       -0.0178
      9 C         -28.5257    0.5013   30.6968 C.ar    1  UNL1       -0.0039
     10 C         -29.2488    0.8145   32.0566 C.ar    1  UNL1       -0.0003
     11 C         -30.0032   -0.2028   32.5720 C.ar    1  UNL1       -0.0000
     12 C         -29.5021   -1.5741   30.8338 C.ar    1  UNL1       -0.0039
     13 C         -30.1236   -1.3894   31.9894 C.ar    1  UNL1       -0.0003
     14 F         -23.5845    2.0717   27.5864 F       1  UNL1       -0.2045
     15 C         -23.2501   -0.0838   29.3352 C.3     1  UNL1        0.1170
     16 C         -22.1482    0.2677   28.7775 C.2     1  UNL1        0.2652
     17 N         -20.9651   -0.2300   29.0714 N.am    1  UNL1       -0.0875
     18 O         -21.9788    1.0974   27.7044 O.2     1  UNL1       -0.2713
@<TRIPOS>BOND
     1     1     2    1
     2     1     8    1
     3     5    14    1
     4     4    15    1
     5    15    16    1
     6    16    17   am
     7    16    18    2
     8     2     3   ar
     9     3     4   ar
    10     4     5   ar
    11     5     6   ar
    12     6     7   ar
    13     7     2   ar
    14     8     9   ar
    15     9    10   ar
    16    10    11   ar
    17    11    13   ar
    18    13    12   ar
    19    12     8   ar
