@<TRIPOS>MOLECULE
No_1292-gen_results/8p0m/2024-11-26-14-13-15/
 26 28 0 0 0
SMALL
GASTEIGER

@<TRIPOS>ATOM
      1 F         -28.0727   -1.2542   28.5316 F       1  UNL1       -0.2018
      2 C         -27.3591   -0.3792   28.7224 C.ar    1  UNL1        0.1673
      3 C         -26.3323   -0.6441   29.4520 C.ar    1  UNL1        0.1704
      4 C         -25.2562    0.3203   29.7818 C.ar    1  UNL1        0.0954
      5 C         -25.4242    1.6275   29.2026 C.ar    1  UNL1        0.1980
      6 C         -26.5263    1.8254   28.4032 C.ar    1  UNL1        0.0442
      7 C         -27.4513    0.8601   28.1355 C.ar    1  UNL1        0.0330
      8 C         -28.5399    1.2022   27.2448 C.ar    1  UNL1        0.0046
      9 C         -28.4423    2.0101   26.2543 C.ar    1  UNL1        0.0002
     10 C         -29.4915    2.2231   25.3457 C.ar    1  UNL1        0.0023
     11 C         -30.6227    1.4224   25.3995 C.ar    1  UNL1        0.0296
     12 C         -30.6794    0.4779   26.4025 C.ar    1  UNL1        0.1401
     13 C         -29.6789    0.3260   27.2833 C.ar    1  UNL1        0.0297
     14 O         -24.5311    2.5612   29.4917 O.3     1  UNL1       -0.2867
     15 F         -31.7838   -0.2577   26.4581 F       1  UNL1       -0.2042
     16 F         -26.0709   -1.8337   30.0395 F       1  UNL1       -0.2019
     17 C         -24.1095    0.0592   30.6743 C.3     1  UNL1        0.2635
     18 N         -24.2349   -0.1053   31.9026 N.3     1  UNL1       -0.1784
     19 F         -22.9943    0.0975   30.1075 F       1  UNL1       -0.2125
     20 C         -24.8438   -0.7773   32.6657 C.3     1  UNL1        0.1181
     21 C         -25.8054   -0.0629   33.6628 C.ar    1  UNL1       -0.0047
     22 C         -26.6563    0.7829   32.9973 C.ar    1  UNL1       -0.0029
     23 C         -27.4665    1.4192   33.4938 C.ar    1  UNL1       -0.0003
     24 C         -27.7151    1.2849   34.9357 C.ar    1  UNL1       -0.0000
     25 C         -26.9699    0.3658   35.6371 C.ar    1  UNL1       -0.0003
     26 C         -25.9765   -0.3508   34.9901 C.ar    1  UNL1       -0.0029
@<TRIPOS>BOND
     1     1     2    1
     2     7     8    1
     3     5    14    1
     4    12    15    1
     5     3    16    1
     6     4    17    1
     7    17    18    1
     8    17    19    1
     9    18    20    1
    10    20    21    1
    11     2     3   ar
    12     3     4   ar
    13     4     5   ar
    14     5     6   ar
    15     6     7   ar
    16     7     2   ar
    17     8     9   ar
    18     9    10   ar
    19    10    11   ar
    20    11    12   ar
    21    12    13   ar
    22    13     8   ar
    23    21    22   ar
    24    22    23   ar
    25    23    24   ar
    26    24    25   ar
    27    25    26   ar
    28    26    21   ar
