@<TRIPOS>MOLECULE
No_1293-gen_results/8p0m/2024-11-26-14-13-15/
 13 13 0 0 0
SMALL
GASTEIGER

@<TRIPOS>ATOM
      1 C         -28.0162   -0.8135   28.8779 C.ar    1  UNL1       -0.0000
      2 C         -28.4690   -0.7850   29.8287 C.ar    1  UNL1       -0.0000
      3 C         -26.5455   -0.8762   28.8500 C.ar    1  UNL1       -0.0006
      4 C         -25.6825   -0.7773   27.6829 C.2     1  UNL1       -0.0082
      5 C         -27.9181   -1.0034   31.1877 C.ar    1  UNL1       -0.0000
      6 C         -26.5308   -1.0794   31.2463 C.ar    1  UNL1       -0.0000
      7 C         -25.7798   -1.0462   30.0905 C.ar    1  UNL1       -0.0000
      8 C         -25.8976    0.2387   26.7449 C.2     1  UNL1       -0.0395
      9 C         -25.0024    0.4172   25.6959 C.3     1  UNL1        0.0267
     10 C         -27.0304    1.0599   26.8181 C.3     1  UNL1        0.0476
     11 C         -27.3110    1.9122   25.7252 C.2     1  UNL1       -0.0263
     12 C         -28.1697    2.9130   26.0276 C.2     1  UNL1       -0.0300
     13 C         -28.3361    3.9209   25.0308 C.3     1  UNL1        0.0304
@<TRIPOS>BOND
     1     3     4    1
     2     4     8    2
     3     8     9    1
     4     8    10    1
     5    10    11    1
     6    11    12    2
     7    12    13    1
     8     1     2   ar
     9     2     5   ar
    10     5     6   ar
    11     6     7   ar
    12     7     3   ar
    13     3     1   ar
