@<TRIPOS>MOLECULE
No_1294-gen_results/8p0m/2024-11-26-14-13-15/
 16 17 0 0 0
SMALL
GASTEIGER

@<TRIPOS>ATOM
      1 C         -28.0162   -0.8135   28.8779 C.ar    1  UNL1        0.0103
      2 C         -27.0636   -0.1190   28.6079 C.ar    1  UNL1        0.0453
      3 C         -25.7923   -0.4302   29.0761 C.ar    1  UNL1        0.1415
      4 C         -25.5756   -1.5654   29.9363 C.ar    1  UNL1        0.0299
      5 C         -26.7354   -2.3004   30.2173 C.ar    1  UNL1        0.0089
      6 C         -27.9184   -1.9537   29.7629 C.ar    1  UNL1        0.0800
      7 C         -29.0732   -2.7835   30.1783 C.2     1  UNL1        0.3878
      8 O         -30.1487   -2.3834   30.0722 O.co2   1  UNL1       -0.2406
      9 O         -28.7926   -3.7890   30.9872 O.co2   1  UNL1       -0.2406
     10 F         -24.6670    0.3004   28.7789 F       1  UNL1       -0.2041
     11 C         -27.1047    1.0715   27.6702 C.ar    1  UNL1        0.0835
     12 N         -27.2715    2.1412   27.9257 N.ar    1  UNL1       -0.2438
     13 C         -27.4426    0.6725   26.2431 C.ar    1  UNL1        0.0192
     14 C         -27.6508    1.7239   25.4280 C.ar    1  UNL1        0.0031
     15 C         -27.4186    3.2692   27.2357 C.ar    1  UNL1        0.0988
     16 C         -27.6221    3.0697   25.8411 C.ar    1  UNL1        0.0207
@<TRIPOS>BOND
     1     6     7    1
     2     7     8   ar
     3     7     9   ar
     4     3    10    1
     5     2    11    1
     6    11    12   ar
     7    12    15   ar
     8    15    16   ar
     9    16    14   ar
    10    14    13   ar
    11    13    11   ar
    12     1     2   ar
    13     2     3   ar
    14     3     4   ar
    15     4     5   ar
    16     5     6   ar
    17     6     1   ar
