@<TRIPOS>MOLECULE
No_1295-gen_results/8p0m/2024-11-26-14-13-15/
 28 30 0 0 0
SMALL
GASTEIGER

@<TRIPOS>ATOM
      1 C         -28.0162   -0.8135   28.8779 C.ar    1  UNL1        0.1549
      2 C         -28.4690   -0.7850   29.8287 C.ar    1  UNL1        0.0310
      3 C         -26.5455   -0.8762   28.8500 C.ar    1  UNL1        0.0942
      4 C         -25.8041   -1.0324   30.0571 C.ar    1  UNL1       -0.0003
      5 C         -24.3697   -1.0998   30.0718 C.3     1  UNL1        0.0540
      6 C         -27.9902   -1.0051   31.2092 C.ar    1  UNL1        0.0021
      7 C         -26.5616   -1.1368   31.2600 C.ar    1  UNL1       -0.0025
      8 C         -23.7274    0.1713   30.0259 C.ar    1  UNL1       -0.0165
      9 C         -22.4546    0.3063   29.4122 C.ar    1  UNL1       -0.0039
     10 C         -21.8762    1.5340   29.1375 C.ar    1  UNL1        0.0010
     11 C         -24.2555    1.3416   30.6665 C.ar    1  UNL1        0.0126
     12 C         -23.7440    2.6268   30.3563 C.ar    1  UNL1        0.0702
     13 N         -24.3347    3.6995   30.9130 N.pl3   1  UNL1       -0.2115
     14 C         -22.5436    2.6715   29.6114 C.ar    1  UNL1        0.0165
     15 N         -25.7928   -0.7766   27.6946 N.pl3   1  UNL1       -0.2104
     16 C         -26.0776    0.1086   26.6488 C.2     1  UNL1        0.0736
     17 C         -25.1620    0.2276   25.6510 C.2     1  UNL1        0.0179
     18 C         -27.3255    0.7073   26.4878 C.ar    1  UNL1        0.0542
     19 C         -27.5667    1.4614   25.3781 C.ar    1  UNL1        0.0045
     20 C         -28.7635    2.1447   25.2726 C.ar    1  UNL1        0.0002
     21 C         -29.7297    1.9703   26.1829 C.ar    1  UNL1        0.0033
     22 C         -29.4603    1.2536   27.3432 C.ar    1  UNL1        0.0421
     23 C         -28.2980    0.6725   27.5605 C.ar    1  UNL1        0.1969
     24 O         -27.6153    1.6747   28.4338 O.3     1  UNL1       -0.2865
     25 F         -28.4525   -1.6343   28.1765 F       1  UNL1       -0.2028
     26 C         -25.7088    3.8677   31.0736 C.2     1  UNL1        0.0811
     27 C         -26.4593    3.4537   31.6389 C.2     1  UNL1       -0.0080
     28 C         -27.9155    3.7158   31.6242 C.3     1  UNL1        0.0321
@<TRIPOS>BOND
     1     4     5    1
     2     5     8    1
     3    12    13    1
     4     3    15    1
     5    15    16    1
     6    16    17    2
     7    16    18    1
     8    23    24    1
     9     1    25    1
    10    13    26    1
    11    26    27    2
    12    27    28    1
    13    18    19   ar
    14    19    20   ar
    15    20    21   ar
    16    21    22   ar
    17    22    23   ar
    18    23    18   ar
    19     1     2   ar
    20     2     6   ar
    21     6     7   ar
    22     7     4   ar
    23     4     3   ar
    24     3     1   ar
    25     8     9   ar
    26     9    10   ar
    27    10    14   ar
    28    14    12   ar
    29    12    11   ar
    30    11     8   ar
