@<TRIPOS>MOLECULE
No_1296-gen_results/8p0m/2024-11-26-14-13-15/
 19 20 0 0 0
SMALL
GASTEIGER

@<TRIPOS>ATOM
      1 C         -28.0162   -0.8135   28.8779 C.ar    1  UNL1        0.0293
      2 C         -28.4690   -0.7850   29.8287 C.ar    1  UNL1        0.1401
      3 C         -26.5042   -0.7777   28.8766 C.ar    1  UNL1       -0.0017
      4 C         -25.8103   -0.8531   30.1028 C.ar    1  UNL1       -0.0183
      5 C         -27.9906   -0.8916   31.2257 C.ar    1  UNL1        0.0293
      6 C         -26.6042   -0.8676   31.2652 C.ar    1  UNL1       -0.0017
      7 F         -29.9203   -0.8331   29.8239 F       1  UNL1       -0.2042
      8 C         -24.3796   -0.8022   30.1424 C.3     1  UNL1        0.0446
      9 C         -23.6323   -0.3170   29.1196 C.ar    1  UNL1       -0.0185
     10 C         -22.1884   -0.2415   29.2461 C.ar    1  UNL1       -0.0040
     11 C         -21.4465    0.3223   28.1882 C.ar    1  UNL1       -0.0004
     12 C         -22.1232    1.2260   27.3046 C.ar    1  UNL1        0.0038
     13 C         -23.5021    1.3684   27.3406 C.ar    1  UNL1        0.0711
     14 C         -24.2580    0.6956   28.2849 C.ar    1  UNL1       -0.0001
     15 C         -24.0701    2.3356   26.4087 C.3     1  UNL1        0.4186
     16 F         -24.9153    3.0541   26.9322 F       1  UNL1       -0.1659
     17 F         -23.1149    3.1630   25.8632 F       1  UNL1       -0.1659
     18 F         -24.6544    1.5717   25.4088 F       1  UNL1       -0.1659
     19 C         -23.9493   -0.2385   31.5005 C.3     1  UNL1        0.0094
@<TRIPOS>BOND
     1     2     7    1
     2     4     8    1
     3    13    15    1
     4    15    16    1
     5    15    17    1
     6    15    18    1
     7     8    19    1
     8     8     9    1
     9     9    10   ar
    10    10    11   ar
    11    11    12   ar
    12    12    13   ar
    13    13    14   ar
    14    14     9   ar
    15     1     2   ar
    16     2     5   ar
    17     5     6   ar
    18     6     4   ar
    19     4     3   ar
    20     3     1   ar
