@<TRIPOS>MOLECULE
No_1297-gen_results/8p0m/2024-11-26-14-13-15/
 35 37 0 0 0
SMALL
GASTEIGER

@<TRIPOS>ATOM
      1 C         -28.0162   -0.8135   28.8779 C.ar    1  UNL1        0.0043
      2 C         -27.0636   -0.1190   28.6079 C.ar    1  UNL1       -0.0041
      3 C         -25.7647   -0.3897   29.0360 C.ar    1  UNL1       -0.0221
      4 C         -24.5516    0.4058   28.7646 C.3     1  UNL1        0.0297
      5 C         -23.2300    0.1178   29.2575 C.3     1  UNL1        0.0052
      6 C         -22.1393    0.9427   28.9224 C.3     1  UNL1        0.0081
      7 C         -27.8294   -1.9287   29.8545 C.ar    1  UNL1        0.0555
      8 C         -26.5882   -2.3272   30.2682 C.ar    1  UNL1        0.0043
      9 C         -25.4565   -1.5432   29.9146 C.ar    1  UNL1       -0.0041
     10 C         -22.2302    1.9089   27.8723 C.3     1  UNL1        0.0645
     11 C         -24.5538    1.4700   27.7617 C.3     1  UNL1        0.0688
     12 C         -23.6227    2.1000   27.4898 C.2     1  UNL1        0.1510
     13 C         -28.9875   -2.7691   30.2552 C.2     1  UNL1        0.2716
     14 N         -30.1412   -2.2798   30.2864 N.am    1  UNL1       -0.1371
     15 O         -28.7879   -3.9521   30.6740 O.2     1  UNL1       -0.2679
     16 C         -31.3364   -3.0506   30.6709 C.2     1  UNL1        0.2716
     17 O         -23.6902    3.1049   26.4706 O.2     1  UNL1       -0.2960
     18 C         -32.3724   -2.5195   30.8204 C.ar    1  UNL1        0.0556
     19 C         -33.3312   -2.9346   31.4802 C.ar    1  UNL1        0.0091
     20 C         -34.5964   -2.2369   31.7636 C.ar    1  UNL1        0.0555
     21 C         -34.7355   -0.9986   31.1280 C.ar    1  UNL1        0.0084
     22 C         -33.7578   -0.4845   30.3520 C.ar    1  UNL1        0.0717
     23 C         -32.5613   -1.1184   30.2127 C.ar    1  UNL1        0.0084
     24 C         -33.9120    0.8973   29.7568 C.3     1  UNL1        0.4186
     25 F         -34.7736    1.5724   30.0706 F       1  UNL1       -0.1659
     26 F         -32.6884    1.5648   29.9805 F       1  UNL1       -0.1659
     27 F         -33.8273    0.6610   28.3725 F       1  UNL1       -0.1659
     28 O         -31.1513   -4.2359   30.7230 O.2     1  UNL1       -0.2679
     29 C         -35.6606   -2.8466   32.5350 C.2     1  UNL1        0.2690
     30 O         -36.5445   -3.4172   32.1854 O.2     1  UNL1       -0.2680
     31 N         -35.4300   -2.6061   33.9433 N.am    1  UNL1       -0.1741
     32 C         -36.3729   -3.1007   34.9218 C.2     1  UNL1        0.0889
     33 C         -36.0120   -2.9296   36.0459 C.2     1  UNL1        0.0179
     34 C         -36.8143   -3.3466   37.2220 C.2     1  UNL1        0.0014
     35 C         -36.4301   -3.1547   38.5648 C.2     1  UNL1        0.0000
@<TRIPOS>BOND
     1     3     4    1
     2     4     5    1
     3     6    10    1
     4     4    11    1
     5    10    12    1
     6    11    12    1
     7     7    13    1
     8    13    14   am
     9    13    15    2
    10    14    16   am
    11    12    17    2
    12    16    18    1
    13    22    24    1
    14    24    25    1
    15    24    26    1
    16    24    27    1
    17    16    28    2
    18    20    29    1
    19    29    30    2
    20    29    31   am
    21    31    32    1
    22    32    33    2
    23    33    34    1
    24    34    35    2
    25     6     5    1
    26    18    19   ar
    27    19    20   ar
    28    20    21   ar
    29    21    22   ar
    30    22    23   ar
    31    23    18   ar
    32     1     2   ar
    33     2     3   ar
    34     3     9   ar
    35     9     8   ar
    36     8     7   ar
    37     7     1   ar
