@<TRIPOS>MOLECULE
No_1298-gen_results/8p0m/2024-11-26-14-13-15/
 14 16 0 0 0
SMALL
GASTEIGER

@<TRIPOS>ATOM
      1 C         -28.0162   -0.8135   28.8779 C.ar    1  UNL1        0.0000
      2 C         -27.0636   -0.1189   28.6079 C.ar    1  UNL1        0.0000
      3 C         -25.7923   -0.4302   29.0761 C.ar    1  UNL1        0.0000
      4 C         -24.5456    0.3494   28.8225 C.ar    1  UNL1        0.0000
      5 C         -24.6586    1.4196   27.8878 C.ar    1  UNL1        0.0000
      6 C         -23.5403    2.1791   27.5500 C.ar    1  UNL1        0.0000
      7 C         -22.2925    1.7429   28.0473 C.ar    1  UNL1        0.0000
      8 C         -22.1712    0.7080   28.9284 C.ar    1  UNL1        0.0000
      9 C         -23.3345   -0.0624   29.3081 C.ar    1  UNL1        0.0000
     10 C         -29.3396   -0.2998   28.6770 C.ar    1  UNL1        0.0000
     11 C         -29.4601    0.8216   27.8607 C.ar    1  UNL1        0.0000
     12 C         -28.3791    1.4930   27.4113 C.ar    1  UNL1        0.0000
     13 C         -27.1068    1.1248   27.8121 C.ar    1  UNL1        0.0000
     14 C         -25.9491    1.8247   27.4371 C.ar    1  UNL1        0.0000
@<TRIPOS>BOND
     1     2     3   ar
     2     3     4   ar
     3     5    14   ar
     4    14    13   ar
     5     4     5   ar
     6     5     6   ar
     7     6     7   ar
     8     7     8   ar
     9     8     9   ar
    10     9     4   ar
    11     1     2   ar
    12     2    13   ar
    13    13    12   ar
    14    12    11   ar
    15    11    10   ar
    16    10     1   ar
