@<TRIPOS>MOLECULE
No_1299-gen_results/8p0m/2024-11-26-14-13-15/
 24 25 0 0 0
SMALL
GASTEIGER

@<TRIPOS>ATOM
      1 O         -28.1229   -1.3353   28.4874 O.2     1  UNL1       -0.2617
      2 C         -27.0637   -0.8242   28.8687 C.3     1  UNL1        0.4485
      3 C         -27.0246    0.1877   29.7358 C.ar    1  UNL1        0.0686
      4 C         -27.8240    0.5330   30.2854 C.ar    1  UNL1        0.0034
      5 O         -25.9174   -1.2102   28.1049 O.2     1  UNL1       -0.2617
      6 C         -25.5346    0.7158   29.9707 C.ar    1  UNL1        0.0034
      7 C         -25.1878    1.4939   30.5981 C.ar    1  UNL1        0.0044
      8 C         -27.6020    1.6800   31.3821 C.ar    1  UNL1        0.0044
      9 C         -26.2667    2.1536   31.4917 C.ar    1  UNL1        0.0536
     10 C         -25.9212    3.2485   32.4185 C.2     1  UNL1        0.2493
     11 N         -26.1552    3.2177   33.6335 N.am    1  UNL1       -0.2714
     12 O         -25.1864    4.2333   31.8861 O.2     1  UNL1       -0.2699
     13 C         -25.9019    4.3722   34.5555 C.3     1  UNL1        0.1204
     14 C         -26.7469    2.0520   34.3141 C.3     1  UNL1        0.1059
     15 C         -27.1086    5.2246   34.6845 C.ar    1  UNL1       -0.0023
     16 C         -26.8751    6.3581   34.8593 C.ar    1  UNL1       -0.0026
     17 C         -27.9971    7.3741   34.8910 C.ar    1  UNL1       -0.0003
     18 C         -29.2787    6.8265   34.8072 C.ar    1  UNL1       -0.0000
     19 C         -29.4102    5.4647   34.5952 C.ar    1  UNL1       -0.0003
     20 C         -28.3314    4.6313   34.5133 C.ar    1  UNL1       -0.0026
     21 C         -25.8603    1.2864   35.1962 C.3     1  UNL1        0.1355
     22 C         -26.0512   -0.0831   35.0530 C.2     1  UNL1        0.3666
     23 O         -25.5315   -0.9042   35.5921 O.co2   1  UNL1       -0.2456
     24 O         -26.4329   -0.4906   33.7478 O.co2   1  UNL1       -0.2456
@<TRIPOS>BOND
     1     1     2    1
     2     2     3    1
     3     2     5    1
     4     9    10    1
     5    10    11   am
     6    10    12    2
     7    11    13    1
     8    11    14    1
     9    13    15    1
    10    14    21    1
    11    21    22    1
    12    22    23   ar
    13    22    24   ar
    14    15    16   ar
    15    16    17   ar
    16    17    18   ar
    17    18    19   ar
    18    19    20   ar
    19    20    15   ar
    20     3     4   ar
    21     4     8   ar
    22     8     9   ar
    23     9     7   ar
    24     7     6   ar
    25     6     3   ar
