@<TRIPOS>MOLECULE
No_13-gen_results/8p0m/2024-11-26-14-13-15/
 14 15 0 0 0
SMALL
GASTEIGER

@<TRIPOS>ATOM
      1 C         -28.0162   -0.8135   28.8779 C.ar    1  UNL1        0.0063
      2 C         -28.4690   -0.7850   29.8287 C.ar    1  UNL1        0.0798
      3 C         -28.1960    0.3478   28.0550 C.ar    1  UNL1       -0.0034
      4 C         -29.0191    1.3501   28.3782 C.ar    1  UNL1       -0.0178
      5 C         -28.3170   -1.9812   30.8560 C.2     1  UNL1        0.3878
      6 C         -29.5950    1.2859   29.6049 C.ar    1  UNL1       -0.0037
      7 C         -29.3465    0.2093   30.3749 C.ar    1  UNL1        0.0063
      8 O         -27.6973   -1.8297   31.7371 O.co2   1  UNL1       -0.2406
      9 O         -28.8051   -3.1400   30.4048 O.co2   1  UNL1       -0.2406
     10 C         -27.4409    0.3500   26.6866 C.2     1  UNL1       -0.0003
     11 C         -28.0094    0.6893   25.5309 C.2     1  UNL1       -0.0003
     12 C         -29.3342    1.0403   25.5237 C.2     1  UNL1       -0.0042
     13 C         -29.7624    1.9798   26.0604 C.2     1  UNL1       -0.0214
     14 C         -29.7372    2.1720   27.3656 C.3     1  UNL1        0.0523
@<TRIPOS>BOND
     1     2     5    1
     2     5     8   ar
     3     5     9   ar
     4     3    10    1
     5    10    11    2
     6    11    12    1
     7    12    13    2
     8     4    14    1
     9    13    14    1
    10     1     2   ar
    11     2     7   ar
    12     7     6   ar
    13     6     4   ar
    14     4     3   ar
    15     3     1   ar
