@<TRIPOS>MOLECULE
No_130-gen_results/8p0m/2024-11-26-14-13-15/
 10 11 0 0 0
SMALL
GASTEIGER

@<TRIPOS>ATOM
      1 C         -28.0162   -0.8135   28.8779 C.ar    1  UNL1        0.0000
      2 C         -28.4690   -0.7850   29.8287 C.ar    1  UNL1        0.0000
      3 C         -27.1356    0.2359   28.5352 C.ar    1  UNL1        0.0000
      4 C         -26.8050    1.0509   29.2763 C.ar    1  UNL1        0.0000
      5 C         -28.2372    0.1503   30.9300 C.ar    1  UNL1        0.0000
      6 C         -27.3522    1.1239   30.6071 C.ar    1  UNL1        0.0000
      7 C         -26.4616    0.1962   27.1371 C.ar    1  UNL1        0.0000
      8 C         -25.0613    0.4250   27.0907 C.ar    1  UNL1        0.0000
      9 C         -24.4929    1.2633   28.0765 C.ar    1  UNL1        0.0000
     10 C         -25.3043    1.4735   29.3096 C.ar    1  UNL1        0.0000
@<TRIPOS>BOND
     1     4    10   ar
     2    10     9   ar
     3     9     8   ar
     4     8     7   ar
     5     7     3   ar
     6     1     2   ar
     7     2     5   ar
     8     5     6   ar
     9     6     4   ar
    10     4     3   ar
    11     3     1   ar
