@<TRIPOS>MOLECULE
No_1300-gen_results/8p0m/2024-11-26-14-13-15/
 21 23 0 0 0
SMALL
GASTEIGER

@<TRIPOS>ATOM
      1 C         -28.0162   -0.8135   28.8779 C.3     1  UNL1        0.0871
      2 C         -28.4690   -0.7850   29.8287 C.3     1  UNL1        0.0273
      3 C         -26.5042   -0.7777   28.8766 C.2     1  UNL1        0.2316
      4 N         -25.8552   -1.6534   29.6136 N.am    1  UNL1       -0.2250
      5 C         -28.1381   -1.8885   30.9026 C.3     1  UNL1        0.0783
      6 C         -26.5964   -2.0371   30.8532 C.3     1  UNL1        0.1170
      7 C         -24.6190   -2.1182   29.4263 C.2     1  UNL1        0.2548
      8 C         -23.5726   -1.1912   29.3366 C.ar    1  UNL1        0.0540
      9 C         -23.8359    0.1183   29.5623 C.ar    1  UNL1        0.0045
     10 C         -22.7702    1.0557   29.2939 C.ar    1  UNL1        0.0001
     11 C         -21.5886    0.6034   28.6633 C.ar    1  UNL1        0.0000
     12 C         -21.3262   -0.8016   28.6321 C.ar    1  UNL1        0.0001
     13 C         -22.3493   -1.6067   28.8441 C.ar    1  UNL1        0.0045
     14 O         -24.4077   -3.3458   29.6336 O.2     1  UNL1       -0.2695
     15 N         -28.8384   -2.5504   31.7190 N.3     1  UNL1       -0.2723
     16 C         -29.2434   -3.8143   31.4385 C.3     1  UNL1        0.0721
     17 C         -29.3408   -1.9660   32.9212 C.3     1  UNL1        0.0721
     18 C         -30.0604   -2.7126   33.7828 C.3     1  UNL1        0.0174
     19 C         -29.9653   -4.6773   32.3349 C.3     1  UNL1        0.0174
     20 C         -30.3740   -4.0796   33.5184 C.3     1  UNL1        0.0029
     21 O         -25.9135   -0.3745   27.8232 O.2     1  UNL1       -0.2745
@<TRIPOS>BOND
     1     1     2    1
     2     1     3    1
     3     3     4   am
     4     2     5    1
     5     4     6    1
     6     5     6    1
     7     4     7   am
     8     7     8    1
     9     7    14    2
    10     5    15    1
    11    15    16    1
    12    15    17    1
    13    18    20    1
    14    19    20    1
    15     3    21    2
    16    16    19    1
    17    18    17    1
    18     8     9   ar
    19     9    10   ar
    20    10    11   ar
    21    11    12   ar
    22    12    13   ar
    23    13     8   ar
