@<TRIPOS>MOLECULE
No_1301-gen_results/8p0m/2024-11-26-14-13-15/
 15 15 0 0 0
SMALL
GASTEIGER

@<TRIPOS>ATOM
      1 C         -28.0162   -0.8135   28.8779 C.3     1  UNL1        0.1692
      2 C         -27.0636   -0.1189   28.6079 C.ar    1  UNL1        0.0073
      3 C         -27.0010    0.6913   27.4910 C.ar    1  UNL1       -0.0010
      4 C         -25.7770    1.0214   26.9135 C.ar    1  UNL1        0.0111
      5 C         -24.5088    0.7364   27.5686 C.ar    1  UNL1        0.0577
      6 C         -24.5930   -0.0361   28.7390 C.ar    1  UNL1        0.0111
      7 C         -25.8114   -0.4771   29.1584 C.ar    1  UNL1       -0.0010
      8 O         -28.5413   -0.5577   29.9857 O.3     1  UNL1       -0.3405
      9 CL        -23.1591    1.5446   26.9530 Cl      1  UNL1       -0.0822
     10 C         -29.7587   -0.4600   30.3369 C.3     1  UNL1        0.2161
     11 C         -30.4711    0.4460   29.8198 C.2     1  UNL1        0.2361
     12 BR        -32.1917    0.4221   29.4828 Br      1  UNL1       -0.0054
     13 O         -29.8218    1.5268   29.3803 O.2     1  UNL1       -0.2814
     14 C         -30.3226   -1.4312   31.3076 C.3     1  UNL1        0.2200
     15 O         -30.7084   -2.5621   31.0177 O.3     1  UNL1       -0.2172
@<TRIPOS>BOND
     1     1     2    1
     2     1     8    1
     3     5     9    1
     4     8    10    1
     5    10    11    1
     6    11    12    1
     7    11    13    2
     8    10    14    1
     9    14    15    1
    10     2     3   ar
    11     3     4   ar
    12     4     5   ar
    13     5     6   ar
    14     6     7   ar
    15     7     2   ar
