@<TRIPOS>MOLECULE
No_1302-gen_results/8p0m/2024-11-26-14-13-15/
 30 33 0 0 0
SMALL
GASTEIGER

@<TRIPOS>ATOM
      1 C         -28.0162   -0.8135   28.8779 C.3     1  UNL1        0.0528
      2 C         -27.0636   -0.1189   28.6079 C.ar    1  UNL1       -0.0117
      3 C         -25.7923   -0.4302   29.0761 C.ar    1  UNL1       -0.0078
      4 C         -24.5456    0.3494   28.8225 C.ar    1  UNL1       -0.0149
      5 C         -24.6586    1.4196   27.8878 C.ar    1  UNL1        0.0514
      6 C         -25.9471    1.6811   27.3792 C.ar    1  UNL1        0.0105
      7 C         -27.0439    0.9739   27.6871 C.ar    1  UNL1        0.0763
      8 C         -28.6597   -0.4600   30.2006 C.ar    1  UNL1       -0.0178
      9 C         -28.5257    0.5013   30.6968 C.ar    1  UNL1       -0.0034
     10 C         -29.2050    0.7974   32.0557 C.ar    1  UNL1        0.0064
     11 C         -29.5423   -1.6086   30.7862 C.ar    1  UNL1       -0.0034
     12 C         -30.1893   -1.3531   31.9959 C.ar    1  UNL1        0.0064
     13 C         -29.9892   -0.1071   32.6184 C.ar    1  UNL1        0.0345
     14 C         -23.4447    2.1344   27.5523 C.2     1  UNL1        0.2645
     15 O         -23.4796    3.1101   26.8183 O.2     1  UNL1       -0.2684
     16 N         -22.1921    1.6555   27.9271 N.am    1  UNL1       -0.2013
     17 C         -28.3446    1.3543   27.0651 C.2     1  UNL1        0.3875
     18 O         -28.5236    1.7283   26.0819 O.co2   1  UNL1       -0.2406
     19 O         -29.3302    1.6128   27.9685 O.co2   1  UNL1       -0.2406
     20 C         -21.9356    0.6040   28.7863 C.3     1  UNL1        0.1215
     21 C         -23.1411   -0.1756   29.2060 C.3     1  UNL1        0.0657
     22 C         -22.9744   -1.2880   30.0496 C.3     1  UNL1        0.1183
     23 BR        -30.8343    0.1918   34.2837 Br      1  UNL1       -0.0490
     24 N         -23.2799   -1.4927   31.2589 N.pl3   1  UNL1       -0.2372
     25 C         -23.8130   -0.4946   31.9897 C.ar    1  UNL1        0.0653
     26 C         -24.7153    0.4246   31.6883 C.ar    1  UNL1        0.0161
     27 C         -25.2252    1.3377   32.6417 C.ar    1  UNL1        0.0013
     28 C         -25.6826    0.8274   33.8211 C.ar    1  UNL1        0.0001
     29 C         -24.9710   -0.3550   34.3042 C.ar    1  UNL1        0.0013
     30 C         -24.1684   -1.1295   33.4598 C.ar    1  UNL1        0.0161
@<TRIPOS>BOND
     1     1     2    1
     2     1     8    1
     3     5    14    1
     4    14    15    2
     5    14    16   am
     6     7    17    1
     7    17    18   ar
     8    17    19   ar
     9    16    20    1
    10     4    21    1
    11    20    21    1
    12    21    22    1
    13    13    23    1
    14    22    24    1
    15    24    25    1
    16     2     3   ar
    17     3     4   ar
    18     4     5   ar
    19     5     6   ar
    20     6     7   ar
    21     7     2   ar
    22     8     9   ar
    23     9    10   ar
    24    10    13   ar
    25    13    12   ar
    26    12    11   ar
    27    11     8   ar
    28    25    26   ar
    29    26    27   ar
    30    27    28   ar
    31    28    29   ar
    32    29    30   ar
    33    30    25   ar
