@<TRIPOS>MOLECULE
No_1303-gen_results/8p0m/2024-11-26-14-13-15/
 6 5 0 0 0
SMALL
GASTEIGER

@<TRIPOS>ATOM
      1 C         -28.0162   -0.8135   28.8779 C.3     1  UNL1        0.0260
      2 C         -27.0636   -0.1189   28.6079 C.2     1  UNL1       -0.0261
      3 C         -25.7923   -0.4302   29.0761 C.2     1  UNL1       -0.0046
      4 C         -25.5681   -1.2411   29.7572 C.2     1  UNL1       -0.0003
      5 C         -24.2377   -1.6686   30.3647 C.2     1  UNL1       -0.0000
      6 C         -27.8507   -1.8997   29.8141 C.3     1  UNL1        0.0050
@<TRIPOS>BOND
     1     1     2    1
     2     2     3    2
     3     3     4    1
     4     4     5    2
     5     1     6    1
