@<TRIPOS>MOLECULE
No_1304-gen_results/8p0m/2024-11-26-14-13-15/
 25 26 0 0 0
SMALL
GASTEIGER

@<TRIPOS>ATOM
      1 C         -28.0162   -0.8135   28.8779 C.ar    1  UNL1        0.0536
      2 C         -27.0636   -0.1190   28.6079 C.ar    1  UNL1        0.0045
      3 C         -27.0010    0.6913   27.4910 C.ar    1  UNL1        0.0040
      4 C         -28.1373    0.7363   26.6350 C.ar    1  UNL1        0.0714
      5 C         -28.1438    1.4322   25.4880 C.3     1  UNL1        0.4186
      6 C         -29.2801   -0.5524   28.2479 C.ar    1  UNL1        0.0045
      7 C         -29.2552    0.0950   27.0446 C.ar    1  UNL1        0.0040
      8 F         -27.2947    1.2701   24.6340 F       1  UNL1       -0.1659
      9 F         -28.0747    2.8525   25.7005 F       1  UNL1       -0.1659
     10 F         -29.4007    1.3814   24.8212 F       1  UNL1       -0.1659
     11 C         -28.0240   -1.6080   30.1960 C.2     1  UNL1        0.2490
     12 O         -27.1088   -2.4359   30.3739 O.2     1  UNL1       -0.2699
     13 N         -28.7018   -1.2763   31.2442 N.am    1  UNL1       -0.2760
     14 C         -28.6891   -2.0828   32.4734 C.3     1  UNL1        0.0937
     15 C         -29.7146   -0.2330   31.2220 C.3     1  UNL1        0.0949
     16 C         -30.2112    0.1107   32.4635 C.3     1  UNL1        0.0367
     17 C         -29.2273   -1.5265   33.6173 C.3     1  UNL1        0.0216
     18 C         -30.1241   -0.5415   33.5890 C.3     1  UNL1        0.0047
     19 C         -31.1368    1.3612   32.3163 C.3     1  UNL1        0.1030
     20 CL        -31.4796    2.2817   33.4724 Cl      1  UNL1       -0.1131
     21 C         -31.6970    1.6691   31.0216 C.3     1  UNL1        0.1284
     22 N         -32.5300    1.0105   30.4533 N.pl3   1  UNL1       -0.2353
     23 C         -33.0988    0.0118   30.7407 C.2     1  UNL1        0.0755
     24 C         -33.4385   -0.9151   30.2407 C.2     1  UNL1       -0.0084
     25 C         -34.0536   -2.1272   30.7473 C.3     1  UNL1        0.0321
@<TRIPOS>BOND
     1     4     5    1
     2     5     8    1
     3     5     9    1
     4     5    10    1
     5     1    11    1
     6    11    12    2
     7    11    13   am
     8    13    14    1
     9    13    15    1
    10    16    18    1
    11    17    18    1
    12    16    19    1
    13    19    20    1
    14    19    21    1
    15    21    22    1
    16    22    23    1
    17    23    24    2
    18    24    25    1
    19    14    17    1
    20    16    15    1
    21     1     2   ar
    22     2     3   ar
    23     3     4   ar
    24     4     7   ar
    25     7     6   ar
    26     6     1   ar
