@<TRIPOS>MOLECULE
No_1307-gen_results/8p0m/2024-11-26-14-13-15/
 21 22 0 0 0
SMALL
GASTEIGER

@<TRIPOS>ATOM
      1 C         -28.0162   -0.8135   28.8779 C.ar    1  UNL1        0.0038
      2 C         -28.4690   -0.7850   29.8287 C.ar    1  UNL1        0.0714
      3 C         -26.5455   -0.8762   28.8500 C.ar    1  UNL1       -0.0004
      4 C         -25.8041   -1.0324   30.0571 C.ar    1  UNL1       -0.0000
      5 C         -27.9437   -0.9869   31.2075 C.ar    1  UNL1        0.0039
      6 C         -26.5825   -1.0386   31.2231 C.ar    1  UNL1       -0.0001
      7 C         -30.0606   -0.7371   29.9024 C.3     1  UNL1        0.4186
      8 F         -30.4826    0.1163   30.8130 F       1  UNL1       -0.1659
      9 F         -30.5455   -1.9671   30.1272 F       1  UNL1       -0.1659
     10 F         -30.4655   -0.3682   28.7137 F       1  UNL1       -0.1659
     11 C         -25.6669   -0.7837   27.6302 C.2     1  UNL1       -0.0043
     12 C         -25.9440    0.3031   26.7326 C.2     1  UNL1       -0.0218
     13 C         -24.9983    0.5039   25.6973 C.3     1  UNL1        0.0310
     14 C         -27.0649    1.0828   26.7480 C.2     1  UNL1       -0.0043
     15 C         -27.3657    2.0111   25.7350 C.2     1  UNL1       -0.0003
     16 C         -28.4617    2.7687   25.9228 C.ar    1  UNL1       -0.0000
     17 C         -28.7210    3.7637   25.1056 C.ar    1  UNL1       -0.0000
     18 C         -29.8499    4.2199   24.9732 C.ar    1  UNL1       -0.0000
     19 C         -30.9666    3.8624   25.8664 C.ar    1  UNL1        0.0000
     20 C         -30.7038    2.8718   26.7637 C.ar    1  UNL1       -0.0000
     21 C         -29.5137    2.2470   26.7823 C.ar    1  UNL1       -0.0000
@<TRIPOS>BOND
     1     2     7    1
     2     7     8    1
     3     7     9    1
     4     7    10    1
     5     3    11    1
     6    11    12    2
     7    12    13    1
     8    12    14    1
     9    14    15    2
    10    15    16    1
    11     1     2   ar
    12     2     5   ar
    13     5     6   ar
    14     6     4   ar
    15     4     3   ar
    16     3     1   ar
    17    16    17   ar
    18    17    18   ar
    19    18    19   ar
    20    19    20   ar
    21    20    21   ar
    22    21    16   ar
