@<TRIPOS>MOLECULE
No_1308-gen_results/8p0m/2024-11-26-14-13-15/
 13 13 0 0 0
SMALL
GASTEIGER

@<TRIPOS>ATOM
      1 C         -28.0162   -0.8135   28.8779 C.3     1  UNL1        0.4186
      2 C         -27.0636   -0.1190   28.6079 C.ar    1  UNL1        0.0714
      3 C         -25.7923   -0.4302   29.0761 C.ar    1  UNL1        0.0040
      4 C         -24.5456    0.3494   28.8225 C.ar    1  UNL1        0.0046
      5 C         -24.6586    1.4196   27.8878 C.ar    1  UNL1        0.0566
      6 C         -25.9471    1.6811   27.3792 C.ar    1  UNL1        0.0046
      7 C         -27.0439    0.9739   27.6871 C.ar    1  UNL1        0.0040
      8 F         -27.9170   -2.0335   29.1421 F       1  UNL1       -0.1659
      9 F         -28.9823   -0.7243   27.9004 F       1  UNL1       -0.1659
     10 F         -28.5764   -0.4094   30.0942 F       1  UNL1       -0.1659
     11 C         -23.4610    2.1796   27.6473 C.2     1  UNL1        0.2842
     12 N         -23.4930    3.2347   27.0160 N.am    1  UNL1       -0.0837
     13 O         -22.2187    1.7022   27.8470 O.2     1  UNL1       -0.2667
@<TRIPOS>BOND
     1     1     2    1
     2     1     8    1
     3     1     9    1
     4     1    10    1
     5     5    11    1
     6    11    12   am
     7    11    13    2
     8     2     3   ar
     9     3     4   ar
    10     4     5   ar
    11     5     6   ar
    12     6     7   ar
    13     7     2   ar
