@<TRIPOS>MOLECULE
No_1309-gen_results/8p0m/2024-11-26-14-13-15/
 12 12 0 0 0
SMALL
GASTEIGER

@<TRIPOS>ATOM
      1 C         -28.0162   -0.8135   28.8779 C.ar    1  UNL1       -0.0178
      2 C         -28.4690   -0.7850   29.8287 C.3     1  UNL1        0.0523
      3 C         -28.1960    0.3478   28.0550 C.ar    1  UNL1       -0.0039
      4 C         -27.4421    0.5100   26.7946 C.ar    1  UNL1       -0.0003
      5 C         -26.1689   -0.0794   26.6787 C.ar    1  UNL1       -0.0000
      6 C         -25.7312   -0.9607   27.6875 C.ar    1  UNL1       -0.0003
      7 C         -26.5043   -1.2222   28.7582 C.ar    1  UNL1       -0.0039
      8 C         -29.6530   -0.2892   30.1660 C.2     1  UNL1       -0.0214
      9 C         -30.4383   -0.5554   31.2751 C.2     1  UNL1       -0.0046
     10 C         -31.6180    0.1852   31.5770 C.2     1  UNL1       -0.0049
     11 C         -32.0309    1.1052   30.6453 C.2     1  UNL1       -0.0258
     12 C         -31.3225    1.3709   29.5451 C.3     1  UNL1        0.0307
@<TRIPOS>BOND
     1     2     8    1
     2     8     9    2
     3     9    10    1
     4    10    11    2
     5    11    12    1
     6     2     1    1
     7     1     3   ar
     8     3     4   ar
     9     4     5   ar
    10     5     6   ar
    11     6     7   ar
    12     7     1   ar
