@<TRIPOS>MOLECULE
No_1310-gen_results/8p0m/2024-11-26-14-13-15/
 17 18 0 0 0
SMALL
GASTEIGER

@<TRIPOS>ATOM
      1 O         -28.1229   -1.3353   28.4874 O.2     1  UNL1       -0.2728
      2 C         -27.4806   -0.4044   28.7094 C.2     1  UNL1        0.2497
      3 C         -27.1904    0.2460   29.5268 C.3     1  UNL1        0.1560
      4 N         -26.6871   -0.0001   27.4423 N.am    1  UNL1       -0.2050
      5 C         -27.6511    0.1259   30.8799 C.2     1  UNL1        0.2500
      6 C         -25.7508    1.0047   27.4342 C.3     1  UNL1        0.1152
      7 C         -25.5610    1.6907   28.6120 C.3     1  UNL1        0.0244
      8 C         -26.1559    1.3682   29.6808 C.3     1  UNL1        0.0203
      9 N         -28.2298   -0.8119   31.2019 N.am    1  UNL1       -0.2002
     10 C         -29.5142   -1.0761   31.0119 C.3     1  UNL1        0.1415
     11 C         -30.0231   -2.3981   31.1920 C.ar    1  UNL1       -0.0006
     12 C         -29.7296   -3.2452   30.6526 C.ar    1  UNL1       -0.0026
     13 C         -30.0787   -4.7237   30.8632 C.ar    1  UNL1       -0.0003
     14 C         -30.9525   -4.9629   31.8605 C.ar    1  UNL1       -0.0000
     15 C         -31.3757   -3.8570   32.6096 C.ar    1  UNL1       -0.0003
     16 C         -30.9371   -2.5712   32.3488 C.ar    1  UNL1       -0.0026
     17 O         -27.5554    0.9397   31.8941 O.2     1  UNL1       -0.2728
@<TRIPOS>BOND
     1     1     2    2
     2     2     3    1
     3     2     4   am
     4     3     5    1
     5     6     7    1
     6     3     8    1
     7     5     9   am
     8     9    10    1
     9     5    17    2
    10    10    11    1
    11     8     7    1
    12     6     4    1
    13    11    12   ar
    14    12    13   ar
    15    13    14   ar
    16    14    15   ar
    17    15    16   ar
    18    16    11   ar
