@<TRIPOS>MOLECULE
No_1313-gen_results/8p0m/2024-11-26-14-13-15/
 20 22 0 0 0
SMALL
GASTEIGER

@<TRIPOS>ATOM
      1 C         -28.0162   -0.8135   28.8779 C.ar    1  UNL1        0.0257
      2 C         -28.4690   -0.7850   29.8287 C.ar    1  UNL1        0.1398
      3 C         -26.5042   -0.7777   28.8766 C.ar    1  UNL1       -0.0156
      4 C         -25.6540   -0.6597   27.7191 C.3     1  UNL1        0.0527
      5 C         -27.9180   -0.9374   31.1824 C.ar    1  UNL1        0.0296
      6 C         -26.5423   -0.9399   31.2606 C.ar    1  UNL1        0.0020
      7 C         -25.7832   -0.8935   30.1201 C.ar    1  UNL1       -0.0038
      8 C         -25.9259    0.2819   26.7445 C.ar    1  UNL1       -0.0178
      9 C         -25.0234    0.4476   25.6774 C.ar    1  UNL1       -0.0039
     10 C         -26.4789    1.4903   27.1017 C.ar    1  UNL1       -0.0039
     11 C         -26.7018    2.5037   26.1680 C.ar    1  UNL1       -0.0003
     12 C         -27.4343    3.6318   26.5320 C.ar    1  UNL1       -0.0000
     13 C         -27.4805    4.7176   25.6850 C.ar    1  UNL1       -0.0000
     14 C         -28.2646    5.8404   26.0305 C.ar    1  UNL1       -0.0000
     15 C         -29.0420    5.8548   27.2246 C.ar    1  UNL1        0.0000
     16 C         -28.9453    4.7682   28.0357 C.ar    1  UNL1       -0.0000
     17 C         -28.1644    3.6546   27.7574 C.ar    1  UNL1       -0.0000
     18 C         -26.1944    2.1646   25.2222 C.ar    1  UNL1       -0.0000
     19 C         -25.2829    1.2736   24.7244 C.ar    1  UNL1       -0.0003
     20 F         -29.9108   -0.7316   29.8397 F       1  UNL1       -0.2042
@<TRIPOS>BOND
     1     3     4    1
     2    11    12    1
     3     2    20    1
     4     4     8    1
     5    12    13   ar
     6    13    14   ar
     7    14    15   ar
     8    15    16   ar
     9    16    17   ar
    10    17    12   ar
    11     8     9   ar
    12     9    19   ar
    13    19    18   ar
    14    18    11   ar
    15    11    10   ar
    16    10     8   ar
    17     1     2   ar
    18     2     5   ar
    19     5     6   ar
    20     6     7   ar
    21     7     3   ar
    22     3     1   ar
