@<TRIPOS>MOLECULE
No_1314-gen_results/8p0m/2024-11-26-14-13-15/
 21 22 0 0 0
SMALL
GASTEIGER

@<TRIPOS>ATOM
      1 C         -28.0162   -0.8135   28.8779 C.ar    1  UNL1        0.0063
      2 C         -28.4690   -0.7850   29.8287 C.ar    1  UNL1        0.0798
      3 C         -27.1356    0.2359   28.5352 C.ar    1  UNL1       -0.0013
      4 C         -26.8745    1.2825   29.3982 C.ar    1  UNL1        0.0274
      5 C         -28.3613    0.1987   30.9244 C.ar    1  UNL1        0.0066
      6 C         -27.5277    1.2234   30.6356 C.ar    1  UNL1        0.0024
      7 C         -26.3725    0.5103   27.2588 C.ar    1  UNL1       -0.0181
      8 C         -25.1425    0.6211   27.2159 C.ar    1  UNL1        0.0049
      9 C         -24.4940    1.3731   28.2922 C.ar    1  UNL1        0.1068
     10 C         -25.3801    1.6622   29.4471 C.ar    1  UNL1        0.1464
     11 C         -23.2108    1.9419   28.1858 C.2     1  UNL1        0.3899
     12 O         -22.4867    2.0838   29.1414 O.co2   1  UNL1       -0.2405
     13 O         -22.8130    2.4424   27.0238 O.co2   1  UNL1       -0.2405
     14 C         -29.6089   -1.8917   30.2012 C.2     1  UNL1        0.3878
     15 O         -30.5833   -1.7583   29.6494 O.co2   1  UNL1       -0.2406
     16 O         -29.4659   -2.5994   31.3137 O.co2   1  UNL1       -0.2406
     17 F         -24.9202    2.4449   30.3626 F       1  UNL1       -0.2040
     18 C         -27.2121    0.4758   26.0438 C.3     1  UNL1        0.0443
     19 C         -26.6588   -0.0653   24.8848 C.3     1  UNL1        0.0094
     20 C         -28.4534    1.0974   25.9493 C.2     1  UNL1       -0.0221
     21 C         -28.9171    2.1483   26.6272 C.2     1  UNL1       -0.0046
@<TRIPOS>BOND
     1     9    11    1
     2    11    12   ar
     3    11    13   ar
     4     2    14    1
     5    14    15   ar
     6    14    16   ar
     7    10    17    1
     8     7    18    1
     9    18    19    1
    10    18    20    1
    11    20    21    2
    12     4    10   ar
    13    10     9   ar
    14     9     8   ar
    15     8     7   ar
    16     7     3   ar
    17     1     2   ar
    18     2     5   ar
    19     5     6   ar
    20     6     4   ar
    21     4     3   ar
    22     3     1   ar
