@<TRIPOS>MOLECULE
No_1317-gen_results/8p0m/2024-11-26-14-13-15/
 20 22 0 0 0
SMALL
GASTEIGER

@<TRIPOS>ATOM
      1 C         -28.0162   -0.8135   28.8779 C.ar    1  UNL1        0.0111
      2 C         -28.4690   -0.7850   29.8287 C.ar    1  UNL1        0.0577
      3 C         -26.5455   -0.8762   28.8500 C.ar    1  UNL1       -0.0031
      4 C         -25.8974   -0.8267   29.8894 C.ar    1  UNL1       -0.0177
      5 C         -27.9129   -0.8385   31.1942 C.ar    1  UNL1        0.0111
      6 C         -26.5519   -0.8324   31.1775 C.ar    1  UNL1       -0.0031
      7 CL        -30.2866   -0.7927   29.9260 Cl      1  UNL1       -0.0822
      8 C         -24.3720   -0.8622   29.9318 C.3     1  UNL1        0.0526
      9 C         -23.7033    0.0167   29.0951 C.ar    1  UNL1       -0.0178
     10 C         -22.3039   -0.0253   29.0047 C.ar    1  UNL1       -0.0039
     11 C         -21.6448    0.8829   28.1667 C.ar    1  UNL1       -0.0003
     12 C         -22.3701    1.8203   27.3546 C.ar    1  UNL1       -0.0000
     13 C         -23.7256    1.8894   27.5583 C.ar    1  UNL1       -0.0003
     14 C         -24.4037    1.0052   28.3913 C.ar    1  UNL1       -0.0039
     15 C         -24.4030    2.9627   26.8036 C.ar    1  UNL1       -0.0000
     16 C         -25.6979    2.7103   26.4143 C.ar    1  UNL1       -0.0000
     17 C         -26.7852    3.4304   26.5105 C.ar    1  UNL1       -0.0000
     18 C         -26.7171    4.6441   27.3015 C.ar    1  UNL1        0.0000
     19 C         -25.4291    5.1975   27.5366 C.ar    1  UNL1       -0.0000
     20 C         -24.2777    4.2934   27.4618 C.ar    1  UNL1       -0.0000
@<TRIPOS>BOND
     1     2     7    1
     2     4     8    1
     3     8     9    1
     4    13    15    1
     5     9    10   ar
     6    10    11   ar
     7    11    12   ar
     8    12    13   ar
     9    13    14   ar
    10    14     9   ar
    11    15    16   ar
    12    16    17   ar
    13    17    18   ar
    14    18    19   ar
    15    19    20   ar
    16    20    15   ar
    17     1     2   ar
    18     2     5   ar
    19     5     6   ar
    20     6     4   ar
    21     4     3   ar
    22     3     1   ar
