@<TRIPOS>MOLECULE
No_1319-gen_results/8p0m/2024-11-26-14-13-15/
 35 38 0 0 0
SMALL
GASTEIGER

@<TRIPOS>ATOM
      1 C         -28.0162   -0.8135   28.8779 C.ar    1  UNL1        0.0336
      2 C         -27.0636   -0.1189   28.6079 C.ar    1  UNL1       -0.0149
      3 C         -26.8756    1.1325   28.9134 C.ar    1  UNL1        0.0027
      4 C         -27.9014    1.8066   29.6436 C.ar    1  UNL1        0.0784
      5 C         -29.0458   -0.2316   29.7181 C.ar    1  UNL1        0.1452
      6 C         -28.9402    1.0517   30.0597 C.ar    1  UNL1        0.0439
      7 C         -25.8732   -0.7125   27.8045 C.3     1  UNL1        0.0492
      8 C         -24.7599   -1.1987   28.6570 C.2     1  UNL1       -0.0255
      9 C         -24.7496   -2.3847   29.1063 C.2     1  UNL1       -0.0076
     10 C         -23.5894   -2.8335   29.8419 C.2     1  UNL1       -0.0043
     11 C         -22.7913   -1.8035   30.2794 C.2     1  UNL1       -0.0112
     12 C         -23.7233   -0.4336   29.2770 C.3     1  UNL1        0.1439
     13 C         -23.1635    0.8351   29.2766 C.2     1  UNL1        0.3721
     14 O         -22.2033    1.0816   28.5278 O.co2   1  UNL1       -0.2449
     15 O         -23.3834    1.6000   30.3666 O.co2   1  UNL1       -0.2449
     16 O         -30.0818   -1.0304   30.1087 O.3     1  UNL1       -0.4535
     17 C         -30.9250   -0.6897   31.0233 C.ar    1  UNL1        0.1449
     18 C         -32.1567   -0.1918   30.6028 C.ar    1  UNL1        0.0375
     19 C         -32.9614    0.3475   31.4768 C.ar    1  UNL1        0.0031
     20 C         -32.6950    0.2391   32.8853 C.ar    1  UNL1        0.0002
     21 C         -31.5426   -0.3155   33.3263 C.ar    1  UNL1        0.0026
     22 C         -30.5615   -0.7588   32.3793 C.ar    1  UNL1        0.0306
     23 C         -29.3168   -1.3326   32.8040 C.ar    1  UNL1       -0.0189
     24 C         -29.1220   -1.9631   33.8979 C.ar    1  UNL1       -0.0042
     25 C         -28.3872   -1.9888   32.0169 C.3     1  UNL1        0.0311
     26 C         -29.8129   -1.4433   35.1162 C.ar    1  UNL1       -0.0003
     27 C         -31.1241   -0.7502   34.7617 C.ar    1  UNL1        0.0001
     28 C         -27.7446    3.2493   30.0559 C.2     1  UNL1        0.3418
     29 O         -28.1649    3.7507   30.9653 O.2     1  UNL1       -0.2449
     30 O         -26.6365    3.8089   29.4790 O.3     1  UNL1       -0.4352
     31 C         -26.4123    5.1453   29.7376 C.3     1  UNL1        0.2945
     32 C         -27.1870    6.1070   29.1862 C.2     1  UNL1        0.2861
     33 O         -27.9291    5.8349   28.5037 O.2     1  UNL1       -0.2693
     34 N         -26.6674    7.4371   29.2423 N.am    1  UNL1       -0.2004
     35 C         -25.5263    7.8947   30.0217 C.3     1  UNL1        0.1386
@<TRIPOS>BOND
     1     2     7    1
     2     7     8    1
     3     8     9    2
     4     9    10    1
     5    10    11    2
     6     8    12    1
     7    11    12    1
     8    12    13    1
     9    13    14   ar
    10    13    15   ar
    11     5    16    1
    12    16    17    1
    13    23    25    1
    14     4    28    1
    15    28    29    2
    16    28    30    1
    17    30    31    1
    18    31    32    1
    19    32    33    2
    20    32    34   am
    21    34    35    1
    22    17    18   ar
    23    18    19   ar
    24    19    20   ar
    25    20    21   ar
    26    22    17   ar
    27     1     2   ar
    28     2     3   ar
    29     3     4   ar
    30     4     6   ar
    31     6     5   ar
    32     5     1   ar
    33    21    22   ar
    34    22    23   ar
    35    23    24   ar
    36    24    26   ar
    37    26    27   ar
    38    27    21   ar
