@<TRIPOS>MOLECULE
No_1320-gen_results/8p0m/2024-11-26-14-13-15/
 31 35 0 0 0
SMALL
GASTEIGER

@<TRIPOS>ATOM
      1 C         -28.0162   -0.8135   28.8779 C.ar    1  UNL1        0.0026
      2 C         -28.4690   -0.7850   29.8287 C.ar    1  UNL1        0.0795
      3 C         -26.5042   -0.7777   28.8766 C.ar    1  UNL1       -0.0176
      4 C         -25.8103   -0.8531   30.1028 C.ar    1  UNL1       -0.0039
      5 C         -27.9906   -0.8916   31.2257 C.ar    1  UNL1        0.0066
      6 C         -26.6042   -0.8676   31.2652 C.ar    1  UNL1       -0.0001
      7 C         -30.0739   -0.8360   29.8615 C.2     1  UNL1        0.3877
      8 O         -30.6825   -0.0696   30.6918 O.co2   1  UNL1       -0.2406
      9 O         -30.6226   -1.5289   29.0126 O.co2   1  UNL1       -0.2406
     10 C         -25.6461   -0.7243   27.6859 C.3     1  UNL1        0.0526
     11 C         -25.8831    0.3620   26.7812 C.ar    1  UNL1       -0.0181
     12 C         -25.5416    1.3420   26.6846 C.ar    1  UNL1       -0.0040
     13 C         -25.8197    2.2975   25.6330 C.ar    1  UNL1       -0.0006
     14 C         -26.6219   -0.0738   25.4549 C.ar    1  UNL1       -0.0079
     15 C         -27.2325    0.7571   24.9079 C.ar    1  UNL1       -0.0181
     16 C         -28.1524    0.3442   23.7618 C.3     1  UNL1        0.0526
     17 C         -26.7831    2.0790   24.7673 C.ar    1  UNL1       -0.0040
     18 C         -29.5426    0.2528   24.3042 C.ar    1  UNL1       -0.0178
     19 C         -30.3735   -0.7239   23.9721 C.ar    1  UNL1       -0.0039
     20 C         -31.6885   -0.9106   24.4931 C.ar    1  UNL1       -0.0003
     21 C         -32.0869   -0.0926   25.5618 C.ar    1  UNL1       -0.0000
     22 C         -31.2204    0.9371   25.9913 C.ar    1  UNL1       -0.0003
     23 C         -29.9435    1.1033   25.4373 C.ar    1  UNL1       -0.0036
     24 C         -31.6635    1.7984   27.1279 C.ar    1  UNL1       -0.0000
     25 C         -30.7792    2.6511   27.6580 C.ar    1  UNL1       -0.0000
     26 C         -31.1177    3.5613   28.7210 C.ar    1  UNL1       -0.0000
     27 C         -30.1768    4.4749   29.2696 C.ar    1  UNL1        0.0000
     28 C         -28.8673    4.4448   28.7345 C.ar    1  UNL1       -0.0000
     29 C         -28.4971    3.5808   27.7285 C.ar    1  UNL1       -0.0000
     30 C         -29.4141    2.7066   27.2582 C.ar    1  UNL1       -0.0000
     31 C         -29.0262    1.9676   26.0564 C.ar    1  UNL1       -0.0003
@<TRIPOS>BOND
     1     2     7    1
     2     7     8   ar
     3     7     9   ar
     4     3    10    1
     5    10    11    1
     6    15    16    1
     7    16    18    1
     8    18    19   ar
     9    19    20   ar
    10    20    21   ar
    11    21    22   ar
    12    23    18   ar
    13    11    12   ar
    14    12    13   ar
    15    13    17   ar
    16    17    15   ar
    17    15    14   ar
    18    14    11   ar
    19    25    26   ar
    20    26    27   ar
    21    27    28   ar
    22    28    29   ar
    23    29    30   ar
    24    22    23   ar
    25    23    31   ar
    26    31    30   ar
    27    30    25   ar
    28    25    24   ar
    29    24    22   ar
    30     1     2   ar
    31     2     5   ar
    32     5     6   ar
    33     6     4   ar
    34     4     3   ar
    35     3     1   ar
