@<TRIPOS>MOLECULE
No_1321-gen_results/8p0m/2024-11-26-14-13-15/
 11 11 0 0 0
SMALL
GASTEIGER

@<TRIPOS>ATOM
      1 C         -28.0162   -0.8135   28.8779 C.ar    1  UNL1        0.0296
      2 C         -28.4690   -0.7850   29.8287 C.ar    1  UNL1        0.0062
      3 C         -27.1356    0.2359   28.5352 C.ar    1  UNL1        0.1401
      4 C         -26.8745    1.2825   29.3982 C.ar    1  UNL1        0.0296
      5 C         -28.3613    0.1987   30.9244 C.ar    1  UNL1        0.0716
      6 C         -27.5277    1.2234   30.6356 C.ar    1  UNL1        0.0062
      7 F         -26.4877    0.2566   27.3533 F       1  UNL1       -0.2042
      8 C         -29.0652    0.1000   32.2285 C.3     1  UNL1        0.4186
      9 F         -28.4764    0.5193   33.1595 F       1  UNL1       -0.1659
     10 F         -29.3276   -1.2409   32.5189 F       1  UNL1       -0.1659
     11 F         -30.2584    0.7183   32.0764 F       1  UNL1       -0.1659
@<TRIPOS>BOND
     1     3     7    1
     2     5     8    1
     3     8     9    1
     4     8    10    1
     5     8    11    1
     6     1     2   ar
     7     2     5   ar
     8     5     6   ar
     9     6     4   ar
    10     4     3   ar
    11     3     1   ar
