@<TRIPOS>MOLECULE
No_1322-gen_results/8p0m/2024-11-26-14-13-15/
 17 18 0 0 0
SMALL
GASTEIGER

@<TRIPOS>ATOM
      1 C         -28.0162   -0.8135   28.8779 C.ar    1  UNL1        0.0002
      2 C         -27.0636   -0.1190   28.6079 C.ar    1  UNL1        0.0064
      3 C         -26.9716    0.7139   27.5060 C.ar    1  UNL1        0.0797
      4 C         -25.8205    1.4909   27.1160 C.ar    1  UNL1        0.0104
      5 C         -24.8579    1.3421   27.6008 C.ar    1  UNL1        0.0716
      6 C         -24.6224    0.5295   28.8144 C.ar    1  UNL1        0.0039
      7 C         -25.7344   -0.1811   29.1908 C.ar    1  UNL1        0.0002
      8 C         -27.9596   -1.4412   30.2523 C.ar    1  UNL1        0.0000
      9 C         -26.7274   -1.7699   30.8429 C.ar    1  UNL1       -0.0000
     10 C         -25.6289   -1.0329   30.4200 C.ar    1  UNL1       -0.0000
     11 C         -23.5441    2.1652   27.2447 C.3     1  UNL1        0.4186
     12 F         -23.5954    2.7553   26.1887 F       1  UNL1       -0.1659
     13 F         -23.2088    3.0804   28.2739 F       1  UNL1       -0.1659
     14 F         -22.3628    1.4033   27.2204 F       1  UNL1       -0.1659
     15 C         -28.2450    0.8997   26.6876 C.2     1  UNL1        0.3877
     16 O         -28.3710    0.3748   25.5893 O.co2   1  UNL1       -0.2406
     17 O         -29.2908    1.3778   27.2660 O.co2   1  UNL1       -0.2406
@<TRIPOS>BOND
     1     5    11    1
     2    11    12    1
     3    11    13    1
     4    11    14    1
     5     3    15    1
     6    15    16   ar
     7    15    17   ar
     8     2     3   ar
     9     3     4   ar
    10     4     5   ar
    11     5     6   ar
    12     6     7   ar
    13     1     2   ar
    14     2     7   ar
    15     7    10   ar
    16    10     9   ar
    17     9     8   ar
    18     8     1   ar
