@<TRIPOS>MOLECULE
No_1324-gen_results/8p0m/2024-11-26-14-13-15/
 12 13 0 0 0
SMALL
GASTEIGER

@<TRIPOS>ATOM
      1 C         -28.0162   -0.8135   28.8779 C.ar    1  UNL1        0.0000
      2 C         -27.0636   -0.1189   28.6079 C.ar    1  UNL1        0.0000
      3 C         -25.7647   -0.3897   29.0360 C.ar    1  UNL1        0.0000
      4 C         -25.5296   -1.5302   29.9014 C.ar    1  UNL1        0.0000
      5 C         -26.6888   -2.2893   30.1810 C.ar    1  UNL1        0.0000
      6 C         -27.8727   -1.9508   29.7373 C.ar    1  UNL1        0.0000
      7 C         -24.5491    0.4100   28.7341 C.ar    1  UNL1        0.0000
      8 C         -24.4789    1.1871   27.6843 C.ar    1  UNL1        0.0000
      9 C         -23.2716    1.8973   27.3731 C.ar    1  UNL1        0.0000
     10 C         -22.1063    1.7032   28.0412 C.ar    1  UNL1        0.0000
     11 C         -23.3188    0.1792   29.4669 C.ar    1  UNL1        0.0000
     12 C         -22.1165    0.8402   29.1011 C.ar    1  UNL1        0.0000
@<TRIPOS>BOND
     1     3     7    1
     2     7     8   ar
     3     8     9   ar
     4     9    10   ar
     5    10    12   ar
     6    12    11   ar
     7    11     7   ar
     8     1     2   ar
     9     2     3   ar
    10     3     4   ar
    11     4     5   ar
    12     5     6   ar
    13     6     1   ar
