@<TRIPOS>MOLECULE
No_1325-gen_results/8p0m/2024-11-26-14-13-15/
 14 15 0 0 0
SMALL
GASTEIGER

@<TRIPOS>ATOM
      1 O         -28.1229   -1.3353   28.4874 O.2     1  UNL1       -0.2684
      2 C         -27.0637   -0.8242   28.8687 C.2     1  UNL1        0.2645
      3 C         -26.4017   -0.0623   28.6224 C.ar    1  UNL1        0.0513
      4 N         -26.3805   -1.7991   29.9619 N.am    1  UNL1       -0.2013
      5 C         -25.0334    0.3743   29.0484 C.ar    1  UNL1       -0.0096
      6 C         -24.5519   -0.5089   30.0932 C.3     1  UNL1        0.0501
      7 C         -25.2414   -1.5775   30.4661 C.3     1  UNL1        0.1201
      8 C         -26.8373    0.9914   27.5322 C.ar    1  UNL1        0.0043
      9 C         -26.0187    1.6075   26.7266 C.ar    1  UNL1        0.0003
     10 C         -24.6758    1.9872   27.2770 C.ar    1  UNL1        0.0063
     11 C         -24.1337    1.2140   28.3146 C.ar    1  UNL1        0.0760
     12 C         -22.7665    1.4642   28.7217 C.2     1  UNL1        0.3874
     13 O         -21.9256    1.9138   27.8017 O.co2   1  UNL1       -0.2406
     14 O         -22.4197    1.4223   29.9609 O.co2   1  UNL1       -0.2406
@<TRIPOS>BOND
     1     1     2    2
     2     2     3    1
     3     2     4   am
     4     5     6    1
     5     6     7    1
     6    11    12    1
     7    12    13   ar
     8    12    14   ar
     9     7     4    1
    10     3     8   ar
    11     8     9   ar
    12     9    10   ar
    13    10    11   ar
    14    11     5   ar
    15     5     3   ar
