@<TRIPOS>MOLECULE
No_1326-gen_results/8p0m/2024-11-26-14-13-15/
 30 32 0 0 0
SMALL
GASTEIGER

@<TRIPOS>ATOM
      1 C         -28.0162   -0.8135   28.8779 C.ar    1  UNL1        0.0414
      2 C         -27.0636   -0.1190   28.6079 C.ar    1  UNL1        0.1398
      3 N         -26.9515    1.1286   28.9566 N.ar    1  UNL1       -0.2138
      4 C         -29.1088   -0.2102   29.6318 C.ar    1  UNL1        0.0854
      5 C         -29.0881    1.0629   29.9416 C.ar    1  UNL1        0.0428
      6 C         -27.9547    1.7679   29.5913 C.ar    1  UNL1        0.1534
      7 N         -25.9103   -0.6251   27.9767 N.am    1  UNL1       -0.2341
      8 C         -24.8720   -1.2704   28.7104 C.2     1  UNL1        0.2542
      9 C         -24.2557   -0.5545   29.7847 C.ar    1  UNL1        0.0540
     10 C         -23.6086    0.3893   29.6322 C.ar    1  UNL1        0.0045
     11 C         -23.0314    1.1494   30.7914 C.ar    1  UNL1        0.0001
     12 C         -24.6273   -0.9919   31.1531 C.ar    1  UNL1        0.0045
     13 C         -24.3023   -0.2776   32.2382 C.ar    1  UNL1        0.0001
     14 C         -23.4540    0.8523   32.0386 C.ar    1  UNL1        0.0000
     15 C         -25.6961   -0.2906   26.6332 C.3     1  UNL1        0.1259
     16 C         -24.9236    0.7717   26.1820 C.2     1  UNL1       -0.0018
     17 C         -30.3078   -1.0887   29.9663 C.2     1  UNL1        0.3879
     18 O         -30.1684   -2.0873   30.6095 O.co2   1  UNL1       -0.2405
     19 O         -31.4486   -0.7482   29.5833 O.co2   1  UNL1       -0.2405
     20 C         -24.9916    1.3309   25.0083 C.2     1  UNL1       -0.0029
     21 C         -25.7595    0.4967   24.1243 C.2     1  UNL1       -0.0029
     22 C         -26.4697   -0.5768   25.4737 C.2     1  UNL1       -0.0018
     23 O         -24.6273   -2.4527   28.4659 O.2     1  UNL1       -0.2695
     24 N         -27.8513    3.1259   29.9450 N.pl3   1  UNL1       -0.1928
     25 C         -28.1296    4.1543   29.8841 C.2     1  UNL1        0.0873
     26 C         -29.1537    4.5575   29.1432 C.2     1  UNL1        0.0179
     27 C         -29.8754    3.7167   28.5365 C.2     1  UNL1        0.0014
     28 C         -30.6649    3.9835   27.5991 C.2     1  UNL1        0.0000
     29 C         -30.9500    5.3876   27.3224 C.2     1  UNL1        0.0000
     30 C         -30.2062    6.3829   27.9025 C.2     1  UNL1        0.0000
@<TRIPOS>BOND
     1     2     7    1
     2     7     8   am
     3     8     9    1
     4     7    15    1
     5    15    16    1
     6     4    17    1
     7    17    18   ar
     8    17    19   ar
     9    16    20    2
    10    20    21    1
    11    15    22    1
    12    21    22    2
    13     8    23    2
    14     6    24    1
    15    24    25    1
    16    25    26    2
    17    26    27    1
    18    27    28    2
    19    28    29    1
    20    29    30    2
    21     9    10   ar
    22    10    11   ar
    23    11    14   ar
    24    14    13   ar
    25    13    12   ar
    26    12     9   ar
    27     1     2   ar
    28     2     3   ar
    29     3     6   ar
    30     6     5   ar
    31     5     4   ar
    32     4     1   ar
