@<TRIPOS>MOLECULE
No_1327-gen_results/8p0m/2024-11-26-14-13-15/
 14 14 0 0 0
SMALL
GASTEIGER

@<TRIPOS>ATOM
      1 C         -28.0162   -0.8135   28.8779 C.ar    1  UNL1        0.0045
      2 C         -28.4690   -0.7850   29.8287 C.ar    1  UNL1        0.0550
      3 C         -26.5455   -0.8762   28.8500 C.ar    1  UNL1        0.0040
      4 C         -25.8041   -1.0324   30.0571 C.ar    1  UNL1        0.0714
      5 C         -27.9437   -0.9869   31.2075 C.ar    1  UNL1        0.0045
      6 C         -26.5825   -1.0386   31.2231 C.ar    1  UNL1        0.0040
      7 C         -30.0606   -0.7371   29.9024 C.2     1  UNL1        0.2648
      8 O         -30.5524   -0.2769   29.0111 O.2     1  UNL1       -0.2684
      9 N         -30.7429   -1.2890   30.9939 N.am    1  UNL1       -0.1998
     10 C         -32.1712   -1.2600   30.9749 C.3     1  UNL1        0.1388
     11 C         -24.3688   -1.0881   30.0880 C.3     1  UNL1        0.4186
     12 F         -23.8338   -1.5886   29.1456 F       1  UNL1       -0.1659
     13 F         -23.9455   -1.7892   31.2658 F       1  UNL1       -0.1659
     14 F         -23.8664    0.1924   30.2775 F       1  UNL1       -0.1659
@<TRIPOS>BOND
     1     2     7    1
     2     7     8    2
     3     7     9   am
     4     9    10    1
     5     4    11    1
     6    11    12    1
     7    11    13    1
     8    11    14    1
     9     1     2   ar
    10     2     5   ar
    11     5     6   ar
    12     6     4   ar
    13     4     3   ar
    14     3     1   ar
