@<TRIPOS>MOLECULE
No_1328-gen_results/8p0m/2024-11-26-14-13-15/
 28 31 0 0 0
SMALL
GASTEIGER

@<TRIPOS>ATOM
      1 C         -28.0162   -0.8135   28.8779 C.ar    1  UNL1        0.0336
      2 C         -28.4690   -0.7850   29.8287 C.ar    1  UNL1        0.0494
      3 C         -26.5042   -0.7777   28.8766 C.ar    1  UNL1        0.0825
      4 C         -25.8103   -0.8531   30.1028 C.ar    1  UNL1        0.0178
      5 C         -27.9906   -0.8916   31.2257 C.ar    1  UNL1        0.0146
      6 C         -26.6042   -0.8676   31.2652 C.ar    1  UNL1        0.0028
      7 N         -29.9538   -0.7893   29.6417 N.pl3   1  UNL1       -0.3070
      8 C         -30.5157   -0.0312   28.8183 C.3     1  UNL1        0.0999
      9 C         -31.7837   -0.4577   28.4284 C.3     1  UNL1        0.0983
     10 C         -30.7427   -1.7344   30.4415 C.3     1  UNL1        0.0908
     11 C         -31.9850   -2.0587   29.9802 C.3     1  UNL1        0.0220
     12 C         -32.3843    0.3374   27.3150 C.2     1  UNL1        0.2468
     13 C         -32.4916   -1.4149   29.0118 C.3     1  UNL1        0.0126
     14 N         -32.6244    1.5287   27.5491 N.am    1  UNL1       -0.1779
     15 C         -33.0565    2.3915   26.7538 C.2     1  UNL1        0.0883
     16 O         -32.5997   -0.2628   26.2411 O.2     1  UNL1       -0.2729
     17 C         -24.3717   -0.8421   30.1390 C.ar    1  UNL1        0.0030
     18 C         -23.6195   -0.4566   29.0784 C.ar    1  UNL1        0.0174
     19 C         -22.5586    0.2161   29.0644 C.ar    1  UNL1        0.0015
     20 C         -22.0244    0.7803   27.8751 C.ar    1  UNL1       -0.0002
     21 C         -22.9313    1.0905   26.8267 C.ar    1  UNL1       -0.0028
     22 C         -24.2204    0.6002   26.8824 C.ar    1  UNL1       -0.0042
     23 C         -24.6329   -0.1188   27.9778 C.ar    1  UNL1        0.0773
     24 N         -25.8141   -0.3758   27.8382 N.ar    1  UNL1       -0.2456
     25 C         -25.0237    0.8609   25.7625 C.3     1  UNL1        0.0326
     26 C         -33.1712    3.5953   27.0545 C.2     1  UNL1        0.0134
     27 C         -32.8513    4.1311   28.3266 C.2     1  UNL1       -0.0244
     28 C         -32.3260    3.1481   29.2260 C.3     1  UNL1        0.0307
@<TRIPOS>BOND
     1     2     7    1
     2     7     8    1
     3     8     9    1
     4     7    10    1
     5     9    12    1
     6     9    13    1
     7    11    13    1
     8    12    14    1
     9    14    15    2
    10    12    16    2
    11    22    25    1
    12    15    26    1
    13    26    27    2
    14    27    28    1
    15    11    10    1
    16    18    19   ar
    17    19    20   ar
    18    20    21   ar
    19    21    22   ar
    20    22    23   ar
    21     1     2   ar
    22     2     5   ar
    23     5     6   ar
    24     6     4   ar
    25     3     1   ar
    26     3     4   ar
    27     4    17   ar
    28    17    18   ar
    29    18    23   ar
    30    23    24   ar
    31    24     3   ar
