@<TRIPOS>MOLECULE
No_133-gen_results/8p0m/2024-11-26-14-13-15/
 9 9 0 0 0
SMALL
GASTEIGER

@<TRIPOS>ATOM
      1 F         -28.0727   -1.2542   28.5316 F       1  UNL1       -0.2042
      2 C         -27.3591   -0.3792   28.7224 C.ar    1  UNL1        0.1402
      3 C         -26.8100    0.1885   27.6513 C.ar    1  UNL1        0.0312
      4 C         -25.6015    0.9529   27.6828 C.ar    1  UNL1        0.0214
      5 C         -25.0371    1.2332   29.0000 C.ar    1  UNL1        0.0816
      6 C         -25.6162    0.5855   30.0870 C.ar    1  UNL1        0.0214
      7 C         -26.6061   -0.2296   29.9624 C.ar    1  UNL1        0.0312
      8 N         -23.9754    2.0624   29.0720 N.2     1  UNL1       -0.2422
      9 C         -22.9007    1.7931   29.4977 C.2     1  UNL1        0.1194
@<TRIPOS>BOND
     1     1     2    1
     2     5     8    1
     3     8     9    2
     4     2     3   ar
     5     3     4   ar
     6     4     5   ar
     7     5     6   ar
     8     6     7   ar
     9     7     2   ar
