@<TRIPOS>MOLECULE
No_1330-gen_results/8p0m/2024-11-26-14-13-15/
 20 20 0 0 0
SMALL
GASTEIGER

@<TRIPOS>ATOM
      1 O         -28.1229   -1.3353   28.4874 O.2     1  UNL1       -0.2695
      2 C         -27.4806   -0.4044   28.7094 C.2     1  UNL1        0.2543
      3 C         -26.3804   -0.0867   27.9394 C.ar    1  UNL1        0.0540
      4 N         -27.6664    0.4468   29.8988 N.am    1  UNL1       -0.2305
      5 C         -25.1773   -0.4388   28.3946 C.ar    1  UNL1        0.0045
      6 C         -26.5259    0.6036   26.6867 C.ar    1  UNL1        0.0045
      7 C         -23.9372    0.0372   27.6524 C.ar    1  UNL1        0.0001
      8 C         -25.3818    0.9698   25.9434 C.ar    1  UNL1        0.0001
      9 C         -24.1031    0.7250   26.4412 C.ar    1  UNL1        0.0000
     10 C         -28.7588    0.1102   30.7851 C.3     1  UNL1        0.1225
     11 C         -26.8485    1.5208   30.1933 C.2     1  UNL1        0.1980
     12 C         -26.2991    1.6305   31.0738 C.2     1  UNL1        0.0452
     13 C         -25.3458    2.7816   31.2419 C.2     1  UNL1       -0.0006
     14 C         -25.1125    3.6073   30.1674 C.2     1  UNL1       -0.0213
     15 C         -24.7161    4.6708   30.0805 C.3     1  UNL1        0.0517
     16 F         -26.5561    2.3191   29.0017 F       1  UNL1       -0.1875
     17 C         -25.2839    5.5601   31.0146 C.2     1  UNL1       -0.0234
     18 C         -25.1341    5.1072   32.3968 C.2     1  UNL1        0.0048
     19 C         -25.5784    3.6461   32.4877 C.3     1  UNL1        0.2080
     20 O         -25.8267    3.1449   33.6632 O.3     1  UNL1       -0.2152
@<TRIPOS>BOND
     1     1     2    2
     2     2     3    1
     3     2     4   am
     4     4    10    1
     5     4    11    1
     6    11    12    2
     7    12    13    1
     8    13    14    2
     9    14    15    1
    10    11    16    1
    11    15    17    1
    12    17    18    2
    13    18    19    1
    14    19    20    1
    15     3     5   ar
    16     5     7   ar
    17     7     9   ar
    18     9     8   ar
    19     8     6   ar
    20     6     3   ar
