@<TRIPOS>MOLECULE
No_1331-gen_results/8p0m/2024-11-26-14-13-15/
 18 20 0 0 0
SMALL
GASTEIGER

@<TRIPOS>ATOM
      1 O         -28.1229   -1.3353   28.4874 O.2     1  UNL1       -0.2696
      2 C         -27.0637   -0.8242   28.8687 C.2     1  UNL1        0.2524
      3 C         -26.4017   -0.0623   28.6224 C.ar    1  UNL1        0.0500
      4 N         -26.2652   -1.8674   29.7609 N.am    1  UNL1       -0.2540
      5 C         -26.8442    1.1343   27.8798 C.ar    1  UNL1        0.0042
      6 C         -26.6915   -3.0657   30.1340 C.ar    1  UNL1        0.0646
      7 C         -25.1977    0.4601   29.4503 C.ar    1  UNL1       -0.0161
      8 C         -24.4614    1.5974   29.1797 C.ar    1  UNL1       -0.0041
      9 C         -24.9363    2.5924   28.3484 C.ar    1  UNL1       -0.0003
     10 C         -26.1103    2.3166   27.5990 C.ar    1  UNL1        0.0001
     11 C         -25.0150   -1.5677   30.3148 C.3     1  UNL1        0.1032
     12 C         -24.4739   -0.4799   30.2060 C.3     1  UNL1        0.0484
     13 C         -26.2787   -4.2042   29.3774 C.ar    1  UNL1        0.0713
     14 C         -27.9908   -3.1596   30.8027 C.ar    1  UNL1        0.0158
     15 C         -28.6099   -4.3990   31.0139 C.ar    1  UNL1        0.0013
     16 C         -26.8416   -5.4843   29.7951 C.ar    1  UNL1        0.0127
     17 C         -28.0030   -5.4686   30.5569 C.ar    1  UNL1        0.0009
     18 CL        -24.7941   -4.0977   28.6746 Cl      1  UNL1       -0.0809
@<TRIPOS>BOND
     1     1     2    2
     2     2     3    1
     3     2     4   am
     4     4     6    1
     5     4    11    1
     6     7    12    1
     7    13    18    1
     8    12    11    1
     9     3     5   ar
    10     5    10   ar
    11    10     9   ar
    12     9     8   ar
    13     8     7   ar
    14     7     3   ar
    15     6    13   ar
    16    13    16   ar
    17    16    17   ar
    18    17    15   ar
    19    15    14   ar
    20    14     6   ar
