@<TRIPOS>MOLECULE
No_1332-gen_results/8p0m/2024-11-26-14-13-15/
 19 21 0 0 0
SMALL
GASTEIGER

@<TRIPOS>ATOM
      1 F         -28.0727   -1.2542   28.5316 F       1  UNL1       -0.2010
      2 C         -27.0607   -0.6291   28.8721 C.ar    1  UNL1        0.1738
      3 C         -26.3579   -0.0711   28.0115 C.ar    1  UNL1        0.1653
      4 C         -25.0715    0.5530   28.2555 C.ar    1  UNL1        0.0353
      5 C         -24.4859    0.3819   29.0792 C.ar    1  UNL1        0.0219
      6 C         -25.0240   -0.3869   30.2515 C.ar    1  UNL1        0.0040
      7 C         -26.2645   -0.9008   30.0299 C.ar    1  UNL1        0.0328
      8 C         -23.1106    0.9958   29.4665 C.ar    1  UNL1        0.0989
      9 N         -22.4230    1.5368   28.4386 N.ar    1  UNL1       -0.2426
     10 C         -23.1325    1.9855   27.3109 C.ar    1  UNL1        0.0947
     11 C         -24.3554    1.3184   27.0301 C.ar    1  UNL1        0.0001
     12 C         -24.9857    1.6687   25.7809 C.3     1  UNL1        0.0317
     13 O         -27.0915    0.1132   26.8651 O.3     1  UNL1       -0.4765
     14 C         -27.7480    1.2009   26.6839 C.3     1  UNL1        0.1736
     15 C         -26.7269    2.0823   25.7934 C.3     1  UNL1        0.0487
     16 C         -28.9151    1.0198   25.8090 C.3     1  UNL1        0.1048
     17 C         -28.9054    0.8971   24.5769 C.3     1  UNL1        0.0120
     18 C         -30.1650    0.9511   26.5464 C.2     1  UNL1        0.2106
     19 O         -31.1469    0.3071   26.1625 O.2     1  UNL1       -0.2882
@<TRIPOS>BOND
     1     1     2    1
     2    11    12    1
     3     3    13    1
     4    13    14    1
     5    12    15    1
     6    14    15    1
     7    14    16    1
     8    16    17    1
     9    16    18    1
    10    18    19    2
    11     2     3   ar
    12     3     4   ar
    13     5     6   ar
    14     6     7   ar
    15     7     2   ar
    16     4     5   ar
    17     5     8   ar
    18     8     9   ar
    19     9    10   ar
    20    10    11   ar
    21    11     4   ar
