@<TRIPOS>MOLECULE
No_1333-gen_results/8p0m/2024-11-26-14-13-15/
 17 19 0 0 0
SMALL
GASTEIGER

@<TRIPOS>ATOM
      1 C         -28.0162   -0.8135   28.8779 C.ar    1  UNL1        0.0002
      2 C         -27.0636   -0.1189   28.6079 C.ar    1  UNL1        0.0000
      3 C         -26.9716    0.7139   27.5060 C.ar    1  UNL1        0.0003
      4 C         -28.1053    0.7744   26.6421 C.ar    1  UNL1        0.0066
      5 C         -29.2041    0.1179   27.0477 C.ar    1  UNL1        0.0798
      6 C         -29.2127   -0.6088   28.1281 C.ar    1  UNL1        0.0066
      7 C         -30.3709    0.2326   26.1381 C.2     1  UNL1        0.3878
      8 O         -30.3086    0.1051   24.9412 O.co2   1  UNL1       -0.2406
      9 O         -31.5786    0.2663   26.6747 O.co2   1  UNL1       -0.2406
     10 C         -25.6671    1.4055   27.1237 C.ar    1  UNL1        0.0015
     11 C         -24.5337    1.0352   27.7283 C.ar    1  UNL1        0.0192
     12 C         -24.2986    0.1217   28.7151 C.ar    1  UNL1        0.0030
     13 C         -25.5993   -0.4857   29.1694 C.ar    1  UNL1        0.0001
     14 C         -23.2272    1.7891   27.3817 C.ar    1  UNL1        0.0988
     15 N         -22.0447    1.3650   27.8245 N.ar    1  UNL1       -0.2423
     16 C         -21.9862    0.4222   28.8323 C.ar    1  UNL1        0.0989
     17 C         -23.1167   -0.2302   29.2701 C.ar    1  UNL1        0.0207
@<TRIPOS>BOND
     1     5     7    1
     2     7     8   ar
     3     7     9   ar
     4     3    10   ar
     5    10    11   ar
     6    12    13   ar
     7    13     2   ar
     8     1     2   ar
     9     2     3   ar
    10     3     4   ar
    11     4     5   ar
    12     5     6   ar
    13     6     1   ar
    14    11    12   ar
    15    12    17   ar
    16    17    16   ar
    17    16    15   ar
    18    15    14   ar
    19    14    11   ar
