@<TRIPOS>MOLECULE
No_1335-gen_results/8p0m/2024-11-26-14-13-15/
 14 15 0 0 0
SMALL
GASTEIGER

@<TRIPOS>ATOM
      1 C         -28.0162   -0.8135   28.8779 C.ar    1  UNL1        0.0161
      2 C         -27.0636   -0.1190   28.6079 C.ar    1  UNL1       -0.0231
      3 C         -26.8756    1.1325   28.9134 C.ar    1  UNL1       -0.0067
      4 C         -25.6883    1.9515   28.5672 C.3     1  UNL1        0.0361
      5 C         -24.6394    1.2834   27.8753 C.3     1  UNL1        0.0999
      6 C         -24.8068   -0.0513   27.6040 C.3     1  UNL1        0.0135
      7 C         -25.9019   -0.7670   27.9511 C.3     1  UNL1        0.0264
      8 C         -29.2158   -0.1185   29.1813 C.ar    1  UNL1        0.0985
      9 N         -29.1934    1.0924   29.4403 N.ar    1  UNL1       -0.2427
     10 C         -28.0225    1.8637   29.3445 C.ar    1  UNL1        0.0943
     11 C         -23.3702    1.9044   27.5510 C.3     1  UNL1        0.3978
     12 F         -22.3912    1.3602   27.7205 F       1  UNL1       -0.1700
     13 F         -23.4177    2.4354   26.2561 F       1  UNL1       -0.1700
     14 F         -23.2957    3.1801   28.2417 F       1  UNL1       -0.1700
@<TRIPOS>BOND
     1     3     4    1
     2     4     5    1
     3     5     6    1
     4     2     7    1
     5     6     7    1
     6     5    11    1
     7    11    12    1
     8    11    13    1
     9    11    14    1
    10     1     2   ar
    11     2     3   ar
    12     3    10   ar
    13    10     9   ar
    14     9     8   ar
    15     8     1   ar
