@<TRIPOS>MOLECULE
No_1336-gen_results/8p0m/2024-11-26-14-13-15/
 9 9 0 0 0
SMALL
GASTEIGER

@<TRIPOS>ATOM
      1 C         -28.0162   -0.8135   28.8779 C.ar    1  UNL1       -0.0000
      2 C         -28.4690   -0.7850   29.8287 C.ar    1  UNL1       -0.0000
      3 C         -27.1356    0.2359   28.5352 C.ar    1  UNL1       -0.0003
      4 C         -26.8050    1.0509   29.2763 C.ar    1  UNL1       -0.0000
      5 C         -28.2372    0.1503   30.9300 C.ar    1  UNL1       -0.0000
      6 C         -27.3522    1.1239   30.6071 C.ar    1  UNL1       -0.0000
      7 C         -26.3892    0.3858   27.1677 C.2     1  UNL1       -0.0046
      8 C         -26.1183    1.3289   26.6256 C.2     1  UNL1       -0.0258
      9 C         -25.6875    2.4865   27.5453 C.3     1  UNL1        0.0307
@<TRIPOS>BOND
     1     3     7    1
     2     7     8    2
     3     8     9    1
     4     1     2   ar
     5     2     5   ar
     6     5     6   ar
     7     6     4   ar
     8     4     3   ar
     9     3     1   ar
