@<TRIPOS>MOLECULE
No_1339-gen_results/8p0m/2024-11-26-14-13-15/
 11 11 0 0 0
SMALL
GASTEIGER

@<TRIPOS>ATOM
      1 F         -28.0727   -1.2542   28.5316 F       1  UNL1       -0.2044
      2 C         -27.0607   -0.6291   28.8721 C.ar    1  UNL1        0.1380
      3 C         -27.1759    0.6153   29.3693 C.ar    1  UNL1        0.0295
      4 C         -25.7305   -1.2692   28.7241 C.ar    1  UNL1        0.0294
      5 C         -24.5526   -0.5078   29.0132 C.ar    1  UNL1        0.0023
      6 C         -28.4133    1.2382   29.5200 C.3     1  UNL1        0.1537
      7 C         -24.6661    0.8105   29.4951 C.ar    1  UNL1       -0.0001
      8 C         -25.9131    1.3241   29.6722 C.ar    1  UNL1       -0.0001
      9 N         -28.5210    2.4802   29.8055 N.2     1  UNL1       -0.2686
     10 C         -29.6095    3.0871   29.9399 C.2     1  UNL1        0.0675
     11 C         -29.6701    4.5230   30.2847 C.3     1  UNL1        0.0529
@<TRIPOS>BOND
     1     1     2    1
     2     3     6    1
     3     6     9    1
     4     9    10    2
     5    10    11    1
     6     2     3   ar
     7     3     8   ar
     8     8     7   ar
     9     7     5   ar
    10     5     4   ar
    11     4     2   ar
