@<TRIPOS>MOLECULE
No_134-gen_results/8p0m/2024-11-26-14-13-15/
 17 18 0 0 0
SMALL
GASTEIGER

@<TRIPOS>ATOM
      1 C         -28.0162   -0.8135   28.8779 C.ar    1  UNL1       -0.0036
      2 C         -28.4690   -0.7850   29.8287 C.ar    1  UNL1       -0.0003
      3 C         -28.1816    0.4277   28.1134 C.ar    1  UNL1       -0.0127
      4 C         -28.9841    1.4155   28.5154 C.ar    1  UNL1       -0.0036
      5 C         -29.3802    0.1384   30.4612 C.ar    1  UNL1       -0.0000
      6 C         -29.5415    1.2736   29.7242 C.ar    1  UNL1       -0.0003
      7 C         -27.4452    0.4872   26.7726 C.3     1  UNL1        0.0877
      8 C         -26.0008    0.3969   26.7906 C.ar    1  UNL1       -0.0125
      9 C         -25.2463    1.0863   25.9144 C.ar    1  UNL1       -0.0005
     10 C         -23.8497    1.1473   26.0086 C.ar    1  UNL1        0.0366
     11 C         -23.2046    0.7648   27.2227 C.ar    1  UNL1        0.1387
     12 C         -24.0377    0.1404   28.2128 C.ar    1  UNL1        0.0366
     13 C         -25.3608    0.0271   28.0419 C.ar    1  UNL1       -0.0005
     14 O         -21.9252    1.0382   27.4798 O.3     1  UNL1       -0.4714
     15 C         -21.5414    1.4450   28.8064 C.3     1  UNL1        0.2525
     16 C         -28.1788    0.4341   25.5964 C.2     1  UNL1        0.1041
     17 N         -28.4828    1.4715   25.0900 N.2     1  UNL1       -0.1507
@<TRIPOS>BOND
     1     3     7    1
     2     7     8    1
     3    11    14    1
     4    14    15    1
     5     7    16    1
     6    16    17    2
     7     8     9   ar
     8     9    10   ar
     9    10    11   ar
    10    11    12   ar
    11    12    13   ar
    12    13     8   ar
    13     1     2   ar
    14     2     5   ar
    15     5     6   ar
    16     6     4   ar
    17     4     3   ar
    18     3     1   ar
