@<TRIPOS>MOLECULE
No_1340-gen_results/8p0m/2024-11-26-14-13-15/
 21 22 0 0 0
SMALL
GASTEIGER

@<TRIPOS>ATOM
      1 C         -28.0162   -0.8135   28.8779 C.ar    1  UNL1        0.0369
      2 C         -27.0636   -0.1190   28.6079 C.ar    1  UNL1        0.0031
      3 C         -25.7923   -0.4302   29.0761 C.ar    1  UNL1        0.0002
      4 C         -25.5756   -1.5654   29.9363 C.ar    1  UNL1        0.0031
      5 C         -26.7354   -2.3004   30.2173 C.ar    1  UNL1        0.0369
      6 C         -27.9184   -1.9537   29.7629 C.ar    1  UNL1        0.1398
      7 O         -29.0001   -2.7012   30.1151 O.3     1  UNL1       -0.4596
      8 C         -24.5290    0.3490   28.7998 C.ar    1  UNL1        0.0000
      9 C         -24.4808    1.2113   27.7998 C.ar    1  UNL1        0.0000
     10 C         -23.2760    1.8178   27.4206 C.ar    1  UNL1        0.0000
     11 C         -22.0486    1.5250   28.1131 C.ar    1  UNL1        0.0000
     12 C         -23.2966   -0.0161   29.4358 C.ar    1  UNL1        0.0000
     13 C         -22.0768    0.6512   29.1041 C.ar    1  UNL1        0.0000
     14 C         -30.1214   -2.1301   30.5815 C.3     1  UNL1        0.3452
     15 C         -30.5819   -2.8293   31.6756 C.2     1  UNL1        0.2933
     16 O         -31.5683   -2.5177   32.1216 O.2     1  UNL1       -0.2688
     17 N         -29.7161   -3.5615   32.4424 N.am    1  UNL1       -0.2000
     18 C         -30.1476   -4.3292   33.6354 C.3     1  UNL1        0.1386
     19 C         -31.0935   -2.1744   29.4499 C.2     1  UNL1        0.4134
     20 O         -31.4101   -3.1214   28.9110 O.co2   1  UNL1       -0.2411
     21 O         -31.5328   -1.0055   28.9999 O.co2   1  UNL1       -0.2411
@<TRIPOS>BOND
     1     6     7    1
     2     3     8    1
     3     7    14    1
     4    14    15    1
     5    15    16    2
     6    15    17   am
     7    17    18    1
     8    14    19    1
     9    19    20   ar
    10    19    21   ar
    11     1     2   ar
    12     2     3   ar
    13     3     4   ar
    14     4     5   ar
    15     5     6   ar
    16     6     1   ar
    17     8     9   ar
    18     9    10   ar
    19    10    11   ar
    20    11    13   ar
    21    13    12   ar
    22    12     8   ar
