@<TRIPOS>MOLECULE
No_1341-gen_results/8p0m/2024-11-26-14-13-15/
 20 20 0 0 0
SMALL
GASTEIGER

@<TRIPOS>ATOM
      1 C         -28.0162   -0.8135   28.8779 C.2     1  UNL1        0.2491
      2 C         -27.0636   -0.1189   28.6079 C.ar    1  UNL1        0.0536
      3 C         -26.9287    1.1713   29.0083 C.ar    1  UNL1        0.0045
      4 C         -25.7702    2.0341   28.6884 C.ar    1  UNL1        0.0040
      5 C         -24.7141    1.4431   27.9188 C.ar    1  UNL1        0.0714
      6 C         -24.8590    0.0783   27.5836 C.ar    1  UNL1        0.0040
      7 C         -25.9647   -0.6606   27.9164 C.ar    1  UNL1        0.0045
      8 N         -27.9821   -1.6367   30.0748 N.am    1  UNL1       -0.2739
      9 O         -29.2163   -0.4132   28.6627 O.2     1  UNL1       -0.2699
     10 C         -29.0156   -2.4825   30.5856 C.3     1  UNL1        0.1015
     11 C         -23.5339    2.1607   27.5674 C.3     1  UNL1        0.4186
     12 F         -22.6620    1.7036   27.2238 F       1  UNL1       -0.1659
     13 F         -23.2121    3.0001   28.6625 F       1  UNL1       -0.1659
     14 F         -23.9504    3.1650   26.6664 F       1  UNL1       -0.1659
     15 C         -26.6625   -2.0575   30.6196 C.3     1  UNL1        0.1152
     16 C         -28.9437   -3.8355   30.2829 C.3     1  UNL1        0.0804
     17 P         -30.2479   -4.8380   30.6680 P.3     1  UNL1        0.1189
     18 O         -31.3160   -3.9147   31.0226 O.3     1  UNL1       -0.3571
     19 O         -29.8324   -5.6074   31.8770 O.3     1  UNL1       -0.3571
     20 O         -30.4719   -5.4466   29.3609 O.2     1  UNL1       -0.4600
@<TRIPOS>BOND
     1     1     2    1
     2     1     8   am
     3     1     9    2
     4     8    10    1
     5     5    11    1
     6    11    12    1
     7    11    13    1
     8    11    14    1
     9     8    15    1
    10    10    16    1
    11    16    17    1
    12    17    18    1
    13    17    19    1
    14    17    20    2
    15     2     3   ar
    16     3     4   ar
    17     4     5   ar
    18     5     6   ar
    19     6     7   ar
    20     7     2   ar
