@<TRIPOS>MOLECULE
No_1343-gen_results/8p0m/2024-11-26-14-13-15/
 35 37 0 0 0
SMALL
GASTEIGER

@<TRIPOS>ATOM
      1 C         -28.0162   -0.8135   28.8779 C.ar    1  UNL1        0.0347
      2 C         -27.0636   -0.1190   28.6079 C.ar    1  UNL1        0.0062
      3 C         -26.9716    0.7139   27.5060 C.ar    1  UNL1        0.0006
      4 C         -28.1053    0.7744   26.6421 C.ar    1  UNL1        0.0046
      5 C         -29.2008    0.1044   27.0527 C.ar    1  UNL1        0.0555
      6 C         -29.2096   -0.6029   28.1853 C.ar    1  UNL1        0.0113
      7 C         -30.3702    0.2264   26.1604 C.2     1  UNL1        0.2648
      8 O         -30.3387    0.2161   24.9661 O.2     1  UNL1       -0.2684
      9 N         -31.6346    0.1197   26.7803 N.am    1  UNL1       -0.1998
     10 C         -32.7984    0.0964   25.9807 C.3     1  UNL1        0.1388
     11 BR        -28.0424   -1.8879   30.4704 Br      1  UNL1       -0.0490
     12 C         -25.7104   -0.2029   29.4442 C.ar    1  UNL1        0.0007
     13 C         -24.5790   -0.0218   28.8726 C.ar    1  UNL1        0.0077
     14 C         -23.3269   -0.0621   29.6334 C.ar    1  UNL1        0.0907
     15 C         -23.4307   -0.6016   30.9070 C.ar    1  UNL1        0.0077
     16 C         -24.6388   -0.8395   31.5112 C.ar    1  UNL1        0.0002
     17 C         -25.7831   -0.6484   30.7872 C.ar    1  UNL1        0.0000
     18 C         -22.0698    0.2509   28.9787 C.2     1  UNL1        0.4153
     19 N         -20.9742   -0.3711   29.0920 N.pl3   1  UNL1        0.2163
     20 N         -22.1218    1.2277   27.9488 N.2     1  UNL1       -0.0326
     21 C         -23.1733    2.0168   27.6491 C.ar    1  UNL1        0.1937
     22 C         -23.3330    2.3225   26.2369 C.ar    1  UNL1        0.0466
     23 C         -24.4443    3.0443   25.8042 C.ar    1  UNL1        0.0040
     24 C         -25.1646    3.8142   26.8095 C.ar    1  UNL1        0.0067
     25 C         -24.8945    3.6506   28.1652 C.ar    1  UNL1        0.0793
     26 C         -23.9153    2.7920   28.5961 C.ar    1  UNL1        0.0530
     27 C         -25.7597    4.3817   29.1447 C.2     1  UNL1        0.3413
     28 O         -25.3903    5.1926   29.7154 O.2     1  UNL1       -0.2449
     29 O         -27.0255    3.8946   29.1561 O.3     1  UNL1       -0.4451
     30 C         -27.6617    3.7124   30.3692 C.3     1  UNL1        0.2134
     31 C         -28.8900    2.9833   30.2349 C.3     1  UNL1        0.0734
     32 C         -29.8732    3.4049   29.4292 C.2     1  UNL1       -0.0223
     33 C         -29.8325    4.4650   28.8297 C.2     1  UNL1       -0.0045
     34 C         -30.5980    5.0309   28.0528 C.2     1  UNL1       -0.0003
     35 C         -31.8664    4.3375   27.8432 C.2     1  UNL1       -0.0000
@<TRIPOS>BOND
     1     5     7    1
     2     7     8    2
     3     7     9   am
     4     9    10    1
     5     1    11    1
     6     2    12    1
     7    14    18    1
     8    18    19    1
     9    18    20    2
    10    20    21    1
    11    25    27    1
    12    27    28    2
    13    27    29    1
    14    29    30    1
    15    30    31    1
    16    31    32    1
    17    32    33    2
    18    33    34    1
    19    34    35    2
    20    12    13   ar
    21    13    14   ar
    22    14    15   ar
    23    15    16   ar
    24    16    17   ar
    25    17    12   ar
    26     1     2   ar
    27     2     3   ar
    28     3     4   ar
    29     4     5   ar
    30     5     6   ar
    31     6     1   ar
    32    21    22   ar
    33    22    23   ar
    34    23    24   ar
    35    24    25   ar
    36    25    26   ar
    37    26    21   ar
