@<TRIPOS>MOLECULE
No_1345-gen_results/8p0m/2024-11-26-14-13-15/
 11 11 0 0 0
SMALL
GASTEIGER

@<TRIPOS>ATOM
      1 F         -28.0727   -1.2542   28.5316 F       1  UNL1       -0.1657
      2 C         -27.3591   -0.3792   28.7224 C.3     1  UNL1        0.4215
      3 C         -26.3323   -0.6441   29.4520 C.ar    1  UNL1        0.1102
      4 F         -28.0071    0.6981   29.3340 F       1  UNL1       -0.1657
      5 C         -25.2035    0.2178   29.5553 C.ar    1  UNL1        0.0071
      6 C         -23.9810   -0.0040   30.2538 C.ar    1  UNL1        0.0001
      7 F         -27.0636    0.1235   27.4711 F       1  UNL1       -0.1657
      8 C         -23.8009   -1.2307   30.7765 C.ar    1  UNL1        0.0033
      9 C         -25.7763   -1.9283   29.9438 C.ar    1  UNL1        0.1996
     10 C         -24.6731   -2.1995   30.6428 C.ar    1  UNL1        0.0420
     11 O         -26.7015   -2.9976   29.8533 O.3     1  UNL1       -0.2866
@<TRIPOS>BOND
     1     1     2    1
     2     2     3    1
     3     2     4    1
     4     2     7    1
     5     9    11    1
     6     3     5   ar
     7     5     6   ar
     8     6     8   ar
     9     8    10   ar
    10    10     9   ar
    11     9     3   ar
