@<TRIPOS>MOLECULE
No_1346-gen_results/8p0m/2024-11-26-14-13-15/
 10 11 0 0 0
SMALL
GASTEIGER

@<TRIPOS>ATOM
      1 C         -28.0162   -0.8135   28.8779 C.ar    1  UNL1        0.0000
      2 C         -28.4690   -0.7850   29.8287 C.ar    1  UNL1        0.0000
      3 C         -27.1356    0.2359   28.5352 C.ar    1  UNL1        0.0000
      4 C         -26.8745    1.2825   29.3982 C.ar    1  UNL1        0.0000
      5 C         -27.5070    1.2380   30.6295 C.ar    1  UNL1        0.0000
      6 C         -28.3293    0.1745   30.9350 C.ar    1  UNL1        0.0000
      7 C         -26.3848    0.5209   27.2533 C.ar    1  UNL1        0.0000
      8 C         -25.1527    0.6094   27.2133 C.ar    1  UNL1        0.0000
      9 C         -24.4684    1.3588   28.2443 C.ar    1  UNL1        0.0000
     10 C         -25.3625    1.6009   29.4450 C.ar    1  UNL1        0.0000
@<TRIPOS>BOND
     1     4    10   ar
     2    10     9   ar
     3     9     8   ar
     4     8     7   ar
     5     7     3   ar
     6     1     2   ar
     7     2     6   ar
     8     6     5   ar
     9     5     4   ar
    10     4     3   ar
    11     3     1   ar
