@<TRIPOS>MOLECULE
No_1347-gen_results/8p0m/2024-11-26-14-13-15/
 11 11 0 0 0
SMALL
GASTEIGER

@<TRIPOS>ATOM
      1 C         -28.0162   -0.8135   28.8779 C.ar    1  UNL1        0.0369
      2 C         -28.4690   -0.7850   29.8287 C.ar    1  UNL1        0.1387
      3 C         -26.5042   -0.7777   28.8766 C.ar    1  UNL1        0.0031
      4 C         -25.9500    0.1157   29.4052 C.ar    1  UNL1       -0.0001
      5 C         -27.9964    0.1190   30.9527 C.ar    1  UNL1        0.0369
      6 C         -26.6037    0.4647   30.8030 C.ar    1  UNL1        0.0031
      7 O         -29.8458   -1.0110   30.0484 O.3     1  UNL1       -0.4714
      8 C         -30.1198   -2.2283   30.5721 C.3     1  UNL1        0.2525
      9 C         -24.5054    0.3914   29.4338 C.2     1  UNL1       -0.0046
     10 C         -23.5247   -0.4048   29.7794 C.2     1  UNL1       -0.0258
     11 C         -22.1342   -0.1276   29.5655 C.3     1  UNL1        0.0307
@<TRIPOS>BOND
     1     2     7    1
     2     7     8    1
     3     4     9    1
     4     9    10    2
     5    10    11    1
     6     1     2   ar
     7     2     5   ar
     8     5     6   ar
     9     6     4   ar
    10     4     3   ar
    11     3     1   ar
