@<TRIPOS>MOLECULE
No_1348-gen_results/8p0m/2024-11-26-14-13-15/
 21 22 0 0 0
SMALL
GASTEIGER

@<TRIPOS>ATOM
      1 C         -28.0162   -0.8135   28.8779 C.ar    1  UNL1        0.0001
      2 C         -27.0636   -0.1189   28.6079 C.ar    1  UNL1        0.0000
      3 C         -25.7923   -0.4302   29.0761 C.ar    1  UNL1        0.0003
      4 C         -24.5456    0.3494   28.8225 C.ar    1  UNL1        0.0080
      5 C         -24.6586    1.4196   27.8878 C.ar    1  UNL1        0.0975
      6 C         -25.9471    1.6811   27.3792 C.ar    1  UNL1        0.0080
      7 C         -27.0439    0.9739   27.6871 C.ar    1  UNL1        0.0004
      8 C         -29.2364   -0.0611   29.2668 C.ar    1  UNL1        0.0046
      9 C         -29.4997    0.9915   28.3427 C.ar    1  UNL1        0.0554
     10 C         -28.3797    1.6784   27.7428 C.ar    1  UNL1        0.0046
     11 C         -23.4303    2.0858   27.4977 C.2     1  UNL1        0.4766
     12 N         -23.4869    3.0477   26.6420 N.pl3   1  UNL1        0.2047
     13 N         -22.2248    1.8102   27.9823 N.pl3   1  UNL1        0.2047
     14 C         -30.8326    1.6210   28.2343 C.2     1  UNL1        0.2690
     15 N         -31.5831    1.4105   27.4764 N.am    1  UNL1       -0.1741
     16 C         -32.8063    1.9511   27.3086 C.2     1  UNL1        0.0889
     17 O         -31.0106    2.4753   29.2275 O.2     1  UNL1       -0.2680
     18 C         -33.5179    1.7122   26.2524 C.2     1  UNL1        0.0179
     19 C         -34.7662    2.2503   25.9818 C.2     1  UNL1        0.0014
     20 C         -35.3098    3.1838   26.9679 C.2     1  UNL1        0.0000
     21 C         -34.5809    3.4563   28.0779 C.2     1  UNL1        0.0000
@<TRIPOS>BOND
     1     5    11    1
     2    11    12    1
     3    11    13    2
     4     9    14    1
     5    14    15    1
     6    15    16    2
     7    14    17    2
     8    16    18    1
     9    18    19    2
    10    19    20    1
    11    20    21    2
    12     2     3   ar
    13     3     4   ar
    14     4     5   ar
    15     5     6   ar
    16     6     7   ar
    17     1     2   ar
    18     2     7   ar
    19     7    10   ar
    20    10     9   ar
    21     9     8   ar
    22     8     1   ar
