@<TRIPOS>MOLECULE
No_1349-gen_results/8p0m/2024-11-26-14-13-15/
 13 14 0 0 0
SMALL
GASTEIGER

@<TRIPOS>ATOM
      1 O         -28.1229   -1.3353   28.4874 O.2     1  UNL1       -0.2733
      2 C         -27.4806   -0.4044   28.7094 C.2     1  UNL1        0.2417
      3 C         -26.3804   -0.0867   27.9394 C.3     1  UNL1        0.0912
      4 N         -27.4232    0.1749   30.0549 N.am    1  UNL1       -0.2054
      5 C         -25.4065    0.7421   28.2860 C.3     1  UNL1        0.0332
      6 C         -25.5698    1.4353   29.5751 C.3     1  UNL1        0.0283
      7 C         -26.5341    1.0730   30.4232 C.3     1  UNL1        0.1155
      8 C         -24.3030    1.2271   27.4407 C.ar    1  UNL1       -0.0220
      9 C         -24.3916    2.2164   26.5546 C.ar    1  UNL1       -0.0043
     10 C         -23.2625    2.5959   25.7571 C.ar    1  UNL1       -0.0003
     11 C         -22.9404    0.8900   27.8273 C.ar    1  UNL1       -0.0043
     12 C         -21.8327    1.3827   27.2013 C.ar    1  UNL1       -0.0003
     13 C         -22.0230    2.3063   26.1935 C.ar    1  UNL1       -0.0000
@<TRIPOS>BOND
     1     1     2    2
     2     2     3    1
     3     2     4   am
     4     5     6    1
     5     4     7    1
     6     6     7    1
     7     5     8    1
     8     3     5    1
     9     8     9   ar
    10     9    10   ar
    11    10    13   ar
    12    13    12   ar
    13    12    11   ar
    14    11     8   ar
