@<TRIPOS>MOLECULE
No_135-gen_results/8p0m/2024-11-26-14-13-15/
 15 16 0 0 0
SMALL
GASTEIGER

@<TRIPOS>ATOM
      1 C         -28.0162   -0.8135   28.8779 C.ar    1  UNL1        0.0046
      2 C         -28.4690   -0.7850   29.8287 C.ar    1  UNL1        0.0554
      3 C         -26.5042   -0.7777   28.8766 C.ar    1  UNL1        0.0001
      4 C         -25.8103   -0.8531   30.1028 C.ar    1  UNL1        0.0000
      5 C         -27.9906   -0.8916   31.2257 C.ar    1  UNL1        0.0046
      6 C         -26.6042   -0.8676   31.2652 C.ar    1  UNL1        0.0001
      7 C         -30.0417   -0.7687   29.6526 C.2     1  UNL1        0.2690
      8 N         -30.5239   -0.1500   28.7686 N.am    1  UNL1       -0.1754
      9 O         -30.7114   -1.7251   30.3179 O.2     1  UNL1       -0.2680
     10 C         -31.9391   -0.2206   28.4040 C.ar    1  UNL1        0.0737
     11 C         -32.3814    0.8705   27.9679 C.ar    1  UNL1        0.0166
     12 C         -33.5890    1.2174   28.0536 C.ar    1  UNL1        0.0013
     13 C         -34.5543    0.1588   28.4224 C.ar    1  UNL1        0.0001
     14 C         -34.0621   -1.0418   28.8135 C.ar    1  UNL1        0.0013
     15 C         -32.6935   -1.2159   28.9286 C.ar    1  UNL1        0.0166
@<TRIPOS>BOND
     1     2     7    1
     2     7     8   am
     3     7     9    2
     4     8    10    1
     5     1     2   ar
     6     2     5   ar
     7     5     6   ar
     8     6     4   ar
     9     4     3   ar
    10     3     1   ar
    11    10    11   ar
    12    11    12   ar
    13    12    13   ar
    14    13    14   ar
    15    14    15   ar
    16    15    10   ar
