@<TRIPOS>MOLECULE
No_1351-gen_results/8p0m/2024-11-26-14-13-15/
 14 15 0 0 0
SMALL
GASTEIGER

@<TRIPOS>ATOM
      1 BR        -28.1146   -0.6256   29.0813 Br      1  UNL1       -0.0493
      2 C         -26.9268    0.4545   28.6846 C.ar    1  UNL1        0.0309
      3 C         -26.3163    0.3925   27.4205 C.ar    1  UNL1       -0.0116
      4 C         -26.8783    0.0210   26.4631 C.3     1  UNL1        0.0531
      5 C         -27.2589    0.7414   25.4408 C.ar    1  UNL1       -0.0178
      6 C         -28.1559    0.2471   24.4956 C.ar    1  UNL1       -0.0039
      7 C         -29.2480    0.7535   24.0441 C.ar    1  UNL1       -0.0003
      8 C         -29.2928    2.2575   24.3147 C.ar    1  UNL1       -0.0000
      9 C         -28.3445    2.9080   25.0907 C.ar    1  UNL1       -0.0003
     10 C         -27.4547    2.1670   25.6709 C.ar    1  UNL1       -0.0039
     11 C         -26.5254    1.5380   29.6675 C.ar    1  UNL1        0.0064
     12 C         -25.3143    2.0826   29.5380 C.ar    1  UNL1        0.0005
     13 C         -24.5531    1.9985   28.2830 C.ar    1  UNL1       -0.0003
     14 C         -25.0798    1.1945   27.2611 C.ar    1  UNL1       -0.0034
@<TRIPOS>BOND
     1     1     2    1
     2     4     5    1
     3     4     3    1
     4     2     3   ar
     5     3    14   ar
     6    14    13   ar
     7    13    12   ar
     8    12    11   ar
     9    11     2   ar
    10     5     6   ar
    11     6     7   ar
    12     7     8   ar
    13     8     9   ar
    14     9    10   ar
    15    10     5   ar
