@<TRIPOS>MOLECULE
No_1352-gen_results/8p0m/2024-11-26-14-13-15/
 27 30 0 0 0
SMALL
GASTEIGER

@<TRIPOS>ATOM
      1 O         -28.1229   -1.3353   28.4874 O.2     1  UNL1       -0.2253
      2 C         -28.5208   -0.4363   29.0779 C.2     1  UNL1        0.4153
      3 O         -29.6218   -0.0586   29.1075 O.3     1  UNL1       -0.3771
      4 N         -27.4876    0.2764   29.8718 N.am    1  UNL1       -0.2235
      5 C         -26.1481   -0.0440   29.9616 C.ar    1  UNL1        0.0571
      6 C         -25.2357    1.0335   29.9797 C.ar    1  UNL1        0.0159
      7 C         -23.8685    0.7953   29.7956 C.ar    1  UNL1        0.0127
      8 C         -23.4144   -0.5692   29.6885 C.ar    1  UNL1        0.0578
      9 C         -24.3533   -1.5730   29.6661 C.ar    1  UNL1        0.0127
     10 C         -25.7134   -1.3195   29.7245 C.ar    1  UNL1        0.0159
     11 CL        -21.7282   -0.7991   29.5868 Cl      1  UNL1       -0.0822
     12 C         -27.9321    1.4992   30.6550 C.3     1  UNL1        0.1202
     13 C         -29.2245    1.6241   30.9030 C.3     1  UNL1        0.1463
     14 C         -30.1253    1.2377   29.7889 C.2     1  UNL1        0.3329
     15 C         -29.7048    0.7642   32.0980 C.ar    1  UNL1       -0.0042
     16 C         -28.8782    0.9814   33.1270 C.ar    1  UNL1        0.0173
     17 C         -28.9926    0.0771   34.3088 C.ar    1  UNL1        0.0986
     18 C         -29.5300    3.1057   31.1280 C.ar    1  UNL1       -0.0073
     19 N         -29.6024   -0.7875   34.3546 N.ar    1  UNL1       -0.2423
     20 C         -30.5312   -1.1507   33.3576 C.ar    1  UNL1        0.0986
     21 C         -30.4784   -0.3564   32.1797 C.ar    1  UNL1        0.0173
     22 C         -28.6511    3.9943   31.1143 C.ar    1  UNL1       -0.0034
     23 C         -30.9201    3.4750   31.4992 C.ar    1  UNL1       -0.0034
     24 C         -28.7737    5.1051   31.2868 C.ar    1  UNL1       -0.0003
     25 C         -31.1082    4.8345   31.7520 C.ar    1  UNL1       -0.0003
     26 C         -30.0634    5.7044   31.6561 C.ar    1  UNL1       -0.0000
     27 O         -31.1110    1.7438   29.2698 O.2     1  UNL1       -0.2488
@<TRIPOS>BOND
     1     1     2    2
     2     2     3    1
     3     2     4   am
     4     4     5    1
     5     8    11    1
     6     4    12    1
     7    12    13    1
     8     3    14    1
     9    13    14    1
    10    13    15    1
    11    13    18    1
    12    14    27    2
    13    18    22   ar
    14    22    24   ar
    15    24    26   ar
    16    26    25   ar
    17    25    23   ar
    18    23    18   ar
    19     5     6   ar
    20     6     7   ar
    21     7     8   ar
    22     8     9   ar
    23     9    10   ar
    24    10     5   ar
    25    15    16   ar
    26    16    17   ar
    27    17    19   ar
    28    19    20   ar
    29    20    21   ar
    30    21    15   ar
