@<TRIPOS>MOLECULE
No_1353-gen_results/8p0m/2024-11-26-14-13-15/
 13 13 0 0 0
SMALL
GASTEIGER

@<TRIPOS>ATOM
      1 C         -28.0162   -0.8135   28.8779 C.2     1  UNL1        0.0950
      2 C         -27.0636   -0.1189   28.6079 C.2     1  UNL1       -0.0243
      3 C         -26.9716    0.7139   27.5060 C.3     1  UNL1        0.0279
      4 C         -25.8205    1.4909   27.1160 C.3     1  UNL1        0.0261
      5 C         -24.6562    1.4242   27.9180 C.2     1  UNL1       -0.0478
      6 C         -23.4598    2.1165   27.6160 C.2     1  UNL1       -0.0342
      7 C         -23.5068    2.7076   26.2939 C.3     1  UNL1        0.0300
      8 C         -25.7733   -0.1954   29.4398 C.3     1  UNL1        0.0279
      9 C         -24.6392    0.5412   29.1339 C.3     1  UNL1        0.0261
     10 N         -28.6497   -0.4978   30.1192 N.2     1  UNL1       -0.1919
     11 C         -29.6215   -1.2393   30.6882 C.2     1  UNL1        0.3658
     12 F         -30.1351   -2.1752   30.0617 F       1  UNL1       -0.1503
     13 F         -29.2359   -1.7263   31.9114 F       1  UNL1       -0.1503
@<TRIPOS>BOND
     1     1     2    2
     2     2     3    1
     3     3     4    1
     4     4     5    1
     5     5     6    2
     6     6     7    1
     7     2     8    1
     8     5     9    1
     9     8     9    1
    10     1    10    1
    11    10    11    2
    12    11    12    1
    13    11    13    1
