@<TRIPOS>MOLECULE
No_1354-gen_results/8p0m/2024-11-26-14-13-15/
 11 11 0 0 0
SMALL
GASTEIGER

@<TRIPOS>ATOM
      1 C         -28.0162   -0.8135   28.8779 C.3     1  UNL1        0.1427
      2 C         -27.0636   -0.1189   28.6079 C.ar    1  UNL1       -0.0005
      3 C         -27.0010    0.6913   27.4910 C.ar    1  UNL1       -0.0026
      4 C         -25.8548    1.4825   27.0830 C.ar    1  UNL1       -0.0003
      5 C         -24.6901    1.4526   27.8807 C.ar    1  UNL1       -0.0000
      6 C         -24.7379    0.6010   29.0416 C.ar    1  UNL1       -0.0003
      7 C         -25.8234   -0.1688   29.3887 C.ar    1  UNL1       -0.0026
      8 N         -29.2150   -0.1726   29.0132 N.am    1  UNL1       -0.1868
      9 C         -29.7200    0.5474   28.3236 C.2     1  UNL1        0.3262
     10 CL        -31.2773    1.1496   28.5879 Cl      1  UNL1       -0.0208
     11 O         -29.1628    1.1581   27.3014 O.2     1  UNL1       -0.2551
@<TRIPOS>BOND
     1     1     2    1
     2     1     8    1
     3     8     9   am
     4     9    10    1
     5     9    11    2
     6     2     3   ar
     7     3     4   ar
     8     4     5   ar
     9     5     6   ar
    10     6     7   ar
    11     7     2   ar
