@<TRIPOS>MOLECULE
No_1355-gen_results/8p0m/2024-11-26-14-13-15/
 14 15 0 0 0
SMALL
GASTEIGER

@<TRIPOS>ATOM
      1 C         -28.0162   -0.8135   28.8779 C.3     1  UNL1        0.0645
      2 C         -28.4690   -0.7850   29.8287 C.3     1  UNL1        0.0078
      3 C         -26.5455   -0.8762   28.8500 C.2     1  UNL1        0.1506
      4 C         -25.8041   -1.0324   30.0571 C.3     1  UNL1        0.0620
      5 C         -26.5373   -1.0386   31.2171 C.3     1  UNL1        0.0077
      6 C         -27.8843   -0.9532   31.1862 C.3     1  UNL1        0.0009
      7 C         -24.3555   -1.1121   30.0346 C.3     1  UNL1        0.0337
      8 C         -23.6610    0.1027   29.8448 C.ar    1  UNL1       -0.0218
      9 C         -22.4205    0.1575   29.1928 C.ar    1  UNL1       -0.0043
     10 C         -21.8312    1.3420   28.8564 C.ar    1  UNL1       -0.0003
     11 C         -24.1357    1.3453   30.3719 C.ar    1  UNL1       -0.0043
     12 C         -23.6601    2.5799   29.9545 C.ar    1  UNL1       -0.0003
     13 C         -22.4267    2.5972   29.1994 C.ar    1  UNL1       -0.0000
     14 O         -25.7969   -0.8278   27.7107 O.2     1  UNL1       -0.2961
@<TRIPOS>BOND
     1     1     3    1
     2     3     4    1
     3     4     5    1
     4     2     6    1
     5     5     6    1
     6     4     7    1
     7     7     8    1
     8     3    14    2
     9     1     2    1
    10     8     9   ar
    11     9    10   ar
    12    10    13   ar
    13    13    12   ar
    14    12    11   ar
    15    11     8   ar
