@<TRIPOS>MOLECULE
No_1357-gen_results/8p0m/2024-11-26-14-13-15/
 15 16 0 0 0
SMALL
GASTEIGER

@<TRIPOS>ATOM
      1 F         -28.0727   -1.2542   28.5316 F       1  UNL1       -0.2042
      2 C         -27.3591   -0.3792   28.7224 C.ar    1  UNL1        0.1402
      3 C         -26.3323   -0.6441   29.4520 C.ar    1  UNL1        0.0313
      4 C         -25.2562    0.3203   29.7818 C.ar    1  UNL1        0.0248
      5 C         -25.4242    1.6275   29.2026 C.ar    1  UNL1        0.1243
      6 C         -26.5263    1.8254   28.4032 C.ar    1  UNL1        0.0248
      7 C         -27.4513    0.8601   28.1355 C.ar    1  UNL1        0.0291
      8 C         -28.5399    1.2022   27.2448 C.ar    1  UNL1        0.0022
      9 C         -29.4852    0.8770   27.0868 C.ar    1  UNL1        0.0001
     10 C         -30.4923    1.2139   26.0511 C.ar    1  UNL1        0.0000
     11 C         -30.0041    2.1667   25.1365 C.ar    1  UNL1        0.0000
     12 C         -28.7203    2.6729   25.1781 C.ar    1  UNL1        0.0000
     13 C         -27.8962    2.2733   26.2088 C.ar    1  UNL1        0.0001
     14 N         -24.4988    2.5705   29.5118 N.2     1  UNL1       -0.0294
     15 O         -23.4682    2.8850   29.4445 O.2     1  UNL1       -0.1432
@<TRIPOS>BOND
     1     1     2    1
     2     7     8    1
     3     5    14    1
     4    14    15    2
     5     2     3   ar
     6     3     4   ar
     7     4     5   ar
     8     5     6   ar
     9     6     7   ar
    10     7     2   ar
    11     8     9   ar
    12     9    10   ar
    13    10    11   ar
    14    11    12   ar
    15    12    13   ar
    16    13     8   ar
