@<TRIPOS>MOLECULE
No_1358-gen_results/8p0m/2024-11-26-14-13-15/
 12 12 0 0 0
SMALL
GASTEIGER

@<TRIPOS>ATOM
      1 O         -28.1229   -1.3353   28.4874 O.2     1  UNL1       -0.2718
      2 C         -27.4806   -0.4044   28.7094 C.2     1  UNL1        0.2590
      3 C         -27.1904    0.2460   29.5268 C.3     1  UNL1        0.1694
      4 N         -26.6021   -0.1576   27.5515 N.am    1  UNL1       -0.2015
      5 C         -25.6421    0.9031   27.5822 C.3     1  UNL1        0.1170
      6 C         -24.6412    1.0988   26.6164 C.2     1  UNL1       -0.0095
      7 C         -25.4744    1.6186   28.8246 C.3     1  UNL1        0.0282
      8 N         -27.9937   -0.0221   30.8360 N.3     1  UNL1       -0.1231
      9 C         -26.2775    1.3309   29.8879 C.3     1  UNL1        0.0305
     10 C         -23.7376    1.5580   26.6121 C.2     1  UNL1       -0.0290
     11 C         -23.3291    2.3812   27.8859 C.3     1  UNL1        0.0258
     12 C         -24.2381    2.3870   28.8966 C.3     1  UNL1        0.0050
@<TRIPOS>BOND
     1     1     2    2
     2     2     3    1
     3     2     4   am
     4     4     5    1
     5     5     6    1
     6     5     7    1
     7     3     8    1
     8     3     9    1
     9     6    10    2
    10    10    11    1
    11    11    12    1
    12     9     7    1
