@<TRIPOS>MOLECULE
No_1359-gen_results/8p0m/2024-11-26-14-13-15/
 35 38 0 0 0
SMALL
GASTEIGER

@<TRIPOS>ATOM
      1 C         -28.0162   -0.8135   28.8779 C.3     1  UNL1        0.1418
      2 C         -27.0636   -0.1189   28.6079 C.ar    1  UNL1       -0.0005
      3 C         -26.9287    1.1713   29.0083 C.ar    1  UNL1       -0.0024
      4 C         -25.7702    2.0341   28.6884 C.ar    1  UNL1        0.0046
      5 C         -24.7141    1.4431   27.9188 C.ar    1  UNL1        0.0593
      6 C         -24.8590    0.0783   27.5836 C.ar    1  UNL1        0.0046
      7 C         -25.9647   -0.6606   27.9164 C.ar    1  UNL1       -0.0024
      8 N         -28.6995   -0.6441   30.0766 N.am    1  UNL1       -0.1968
      9 C         -29.8035   -1.3645   30.5061 C.2     1  UNL1        0.2651
     10 C         -30.3770   -1.0468   31.7411 C.ar    1  UNL1        0.0551
     11 O         -30.2963   -2.2974   29.9143 O.2     1  UNL1       -0.2684
     12 C         -23.5408    2.1798   27.5646 C.2     1  UNL1        0.2968
     13 N         -22.4446    1.6886   27.1490 N.2     1  UNL1       -0.1025
     14 O         -23.4972    3.4283   27.8871 O.2     1  UNL1       -0.2636
     15 C         -31.3428   -1.5956   32.1403 C.ar    1  UNL1        0.0046
     16 C         -32.1207   -1.4757   33.2834 C.ar    1  UNL1        0.0001
     17 C         -31.5660   -0.3999   34.1381 C.ar    1  UNL1        0.0000
     18 C         -30.4362    0.2840   33.7851 C.ar    1  UNL1        0.0001
     19 C         -29.8212    0.0091   32.6397 C.ar    1  UNL1        0.0046
     20 C         -32.2730   -0.0978   35.4380 C.ar    1  UNL1        0.0000
     21 C         -32.3534    0.8780   35.8626 C.ar    1  UNL1       -0.0000
     22 C         -33.0958    1.2353   37.0935 C.ar    1  UNL1       -0.0000
     23 C         -33.7815    0.1428   37.6762 C.ar    1  UNL1       -0.0003
     24 C         -33.6713   -1.0779   37.1181 C.ar    1  UNL1       -0.0000
     25 C         -32.9223   -1.3190   35.9394 C.ar    1  UNL1       -0.0000
     26 C         -34.5584    0.3708   38.9060 C.ar    1  UNL1       -0.0039
     27 C         -35.5437    0.2677   39.2834 C.ar    1  UNL1       -0.0216
     28 C         -36.1186    0.5433   40.5766 C.ar    1  UNL1        0.0023
     29 C         -35.2758    1.0761   41.5343 C.ar    1  UNL1        0.0795
     30 C         -33.9668    1.2843   41.2030 C.ar    1  UNL1        0.0066
     31 C         -33.4831    1.0168   39.9387 C.ar    1  UNL1       -0.0001
     32 C         -35.7896    1.3808   42.8759 C.2     1  UNL1        0.3877
     33 O         -36.6584    1.1975   43.3746 O.co2   1  UNL1       -0.2406
     34 O         -34.9019    2.3103   43.4284 O.co2   1  UNL1       -0.2406
     35 C         -36.7034   -0.2782   38.4096 C.3     1  UNL1        0.0310
@<TRIPOS>BOND
     1     1     2    1
     2     1     8    1
     3     8     9   am
     4     9    10    1
     5     9    11    2
     6     5    12    1
     7    12    13    2
     8    12    14    1
     9    17    20    1
    10    23    26    1
    11    29    32    1
    12    32    33   ar
    13    32    34   ar
    14    27    35    1
    15    26    27   ar
    16    27    28   ar
    17    28    29   ar
    18    29    30   ar
    19    30    31   ar
    20    31    26   ar
    21     2     3   ar
    22     3     4   ar
    23     4     5   ar
    24     5     6   ar
    25     6     7   ar
    26     7     2   ar
    27    10    15   ar
    28    15    16   ar
    29    16    17   ar
    30    17    18   ar
    31    18    19   ar
    32    19    10   ar
    33    20    21   ar
    34    21    22   ar
    35    22    23   ar
    36    23    24   ar
    37    24    25   ar
    38    25    20   ar
