@<TRIPOS>MOLECULE
No_136-gen_results/8p0m/2024-11-26-14-13-15/
 23 26 0 0 0
SMALL
GASTEIGER

@<TRIPOS>ATOM
      1 C         -28.0162   -0.8135   28.8779 C.ar    1  UNL1        0.0046
      2 C         -28.4690   -0.7850   29.8287 C.ar    1  UNL1        0.0002
      3 C         -27.0871    0.2903   28.6377 C.ar    1  UNL1        0.0548
      4 C         -26.8317    1.2487   29.5869 C.ar    1  UNL1        0.0629
      5 C         -28.3914    0.0801   31.0065 C.ar    1  UNL1        0.0015
      6 C         -27.4940    1.1521   30.7841 C.ar    1  UNL1        0.0173
      7 C         -26.3172    0.3994   27.3653 C.ar    1  UNL1        0.1983
      8 C         -25.4320    1.4866   27.2802 C.ar    1  UNL1        0.0548
      9 C         -24.5070    1.5431   26.2743 C.ar    1  UNL1        0.0046
     10 C         -23.4985    2.6837   26.2861 C.ar    1  UNL1        0.0002
     11 C         -23.6668    3.5873   27.3249 C.ar    1  UNL1        0.0015
     12 C         -25.3030    2.5340   28.2891 C.ar    1  UNL1        0.0629
     13 C         -24.4393    3.5828   28.1637 C.ar    1  UNL1        0.0173
     14 N         -26.1411    2.3129   29.4520 N.ar    1  UNL1       -0.3289
     15 C         -26.0111    3.3595   30.5024 C.3     1  UNL1        0.0859
     16 C         -26.1948    4.3886   30.2851 C.3     1  UNL1        0.0308
     17 C         -26.0859    5.1469   31.5372 C.3     1  UNL1        0.0705
     18 C         -25.6784    2.9312   31.8042 C.3     1  UNL1        0.0230
     19 C         -26.3248    6.6024   31.7397 C.2     1  UNL1        0.2063
     20 C         -25.6733    4.2325   32.5891 C.3     1  UNL1        0.0102
     21 BR        -26.6850    7.3099   30.8869 Br      1  UNL1       -0.0081
     22 O         -26.0611    6.8313   33.0940 O.2     1  UNL1       -0.2841
     23 O         -26.1785   -0.5627   26.6502 O.2     1  UNL1       -0.2865
@<TRIPOS>BOND
     1     3     7   ar
     2     7     8   ar
     3     4    14   ar
     4    12    14   ar
     5    14    15    1
     6    15    16    1
     7    16    17    1
     8    15    18    1
     9    17    19    1
    10    17    20    1
    11    18    20    1
    12    19    21    1
    13    19    22    2
    14     7    23    2
    15     1     2   ar
    16     2     5   ar
    17     5     6   ar
    18     6     4   ar
    19     4     3   ar
    20     3     1   ar
    21     8     9   ar
    22     9    10   ar
    23    10    11   ar
    24    11    13   ar
    25    13    12   ar
    26    12     8   ar
