@<TRIPOS>MOLECULE
No_1360-gen_results/8p0m/2024-11-26-14-13-15/
 12 12 0 0 0
SMALL
GASTEIGER

@<TRIPOS>ATOM
      1 C         -28.0162   -0.8135   28.8779 C.ar    1  UNL1        0.0800
      2 C         -27.0636   -0.1189   28.6079 C.ar    1  UNL1        0.0066
      3 C         -27.0010    0.6913   27.4910 C.ar    1  UNL1        0.0004
      4 C         -28.1373    0.7363   26.6350 C.ar    1  UNL1        0.0066
      5 C         -29.2360    0.0765   27.0690 C.ar    1  UNL1        0.0800
      6 C         -29.2177   -0.6429   28.1747 C.ar    1  UNL1        0.0132
      7 C         -28.0030   -1.6604   30.1266 C.2     1  UNL1        0.3878
      8 O         -27.1218   -2.5017   30.2445 O.co2   1  UNL1       -0.2406
      9 O         -28.9642   -1.6139   30.9865 O.co2   1  UNL1       -0.2406
     10 C         -30.4224    0.1621   26.1854 C.2     1  UNL1        0.3878
     11 O         -30.4759    0.2574   24.9954 O.co2   1  UNL1       -0.2406
     12 O         -31.5914   -0.0781   26.7875 O.co2   1  UNL1       -0.2406
@<TRIPOS>BOND
     1     1     7    1
     2     7     8   ar
     3     7     9   ar
     4     5    10    1
     5    10    11   ar
     6    10    12   ar
     7     1     2   ar
     8     2     3   ar
     9     3     4   ar
    10     4     5   ar
    11     5     6   ar
    12     6     1   ar
