@<TRIPOS>MOLECULE
No_1361-gen_results/8p0m/2024-11-26-14-13-15/
 13 13 0 0 0
SMALL
GASTEIGER

@<TRIPOS>ATOM
      1 C         -28.0162   -0.8135   28.8779 C.3     1  UNL1        0.0050
      2 C         -28.4690   -0.7850   29.8287 C.3     1  UNL1        0.0257
      3 C         -28.1816    0.4277   28.1134 C.3     1  UNL1        0.0050
      4 C         -29.3519    0.6041   27.4037 C.3     1  UNL1        0.0260
      5 C         -30.4853    0.3937   28.3041 C.3     1  UNL1        0.0300
      6 C         -29.9642   -1.0433   30.1728 C.2     1  UNL1       -0.0307
      7 C         -30.8033   -0.6516   29.0762 C.2     1  UNL1       -0.0304
      8 C         -29.3643    0.9634   26.1150 C.2     1  UNL1       -0.0304
      9 C         -28.7933    1.6136   25.4571 C.2     1  UNL1       -0.0260
     10 C         -28.1618    1.8647   24.7077 C.3     1  UNL1        0.0513
     11 C         -26.7358    1.9539   24.8583 C.2     1  UNL1       -0.0260
     12 C         -26.1701    2.6237   25.9325 C.2     1  UNL1       -0.0300
     13 C         -27.1119    3.2423   26.7794 C.3     1  UNL1        0.0304
@<TRIPOS>BOND
     1     1     2    1
     2     1     3    1
     3     3     4    1
     4     4     5    1
     5     2     6    1
     6     5     7    1
     7     6     7    2
     8     4     8    1
     9     8     9    2
    10     9    10    1
    11    10    11    1
    12    11    12    2
    13    12    13    1
