@<TRIPOS>MOLECULE
No_1362-gen_results/8p0m/2024-11-26-14-13-15/
 22 23 0 0 0
SMALL
GASTEIGER

@<TRIPOS>ATOM
      1 C         -28.0162   -0.8135   28.8779 C.3     1  UNL1        0.0619
      2 C         -27.0636   -0.1190   28.6079 C.3     1  UNL1        0.1696
      3 F         -27.0788    0.9846   29.1738 F       1  UNL1       -0.2366
      4 C         -25.9956   -0.3885   27.6940 C.3     1  UNL1        0.0619
      5 C         -24.6945    0.2058   28.0100 C.ar    1  UNL1       -0.0194
      6 C         -28.7535   -1.0740   30.0380 C.ar    1  UNL1       -0.0193
      7 C         -28.3552   -0.8456   30.9276 C.ar    1  UNL1       -0.0042
      8 C         -23.8118   -0.4906   28.8008 C.ar    1  UNL1       -0.0042
      9 C         -22.5445    0.1301   29.1509 C.ar    1  UNL1       -0.0003
     10 C         -22.2264    1.3317   28.5117 C.ar    1  UNL1       -0.0000
     11 C         -24.1335    1.3965   27.4386 C.ar    1  UNL1       -0.0042
     12 C         -22.9667    1.9596   27.6535 C.ar    1  UNL1       -0.0003
     13 C         -29.1213   -1.0696   32.3199 C.ar    1  UNL1       -0.0002
     14 C         -30.3071   -1.7046   32.1801 C.ar    1  UNL1        0.0045
     15 C         -30.7693   -2.0578   30.9330 C.ar    1  UNL1        0.0547
     16 C         -30.0042   -1.7991   29.8690 C.ar    1  UNL1        0.0004
     17 C         -32.0550   -2.7625   30.8163 C.2     1  UNL1        0.2651
     18 O         -32.3610   -3.4820   30.1360 O.2     1  UNL1       -0.2684
     19 N         -33.1628   -2.0537   31.4932 N.am    1  UNL1       -0.1968
     20 C         -34.4595   -2.5290   31.3838 C.3     1  UNL1        0.1415
     21 C         -35.2210   -1.7395   30.5440 C.2     1  UNL1       -0.0029
     22 C         -36.2783   -2.1161   30.0496 C.2     1  UNL1       -0.0031
@<TRIPOS>BOND
     1     1     2    1
     2     2     3    1
     3     2     4    1
     4     4     5    1
     5     1     6    1
     6    15    17    1
     7    17    18    2
     8    17    19   am
     9    19    20    1
    10    20    21    1
    11    21    22    2
    12     5     8   ar
    13     8     9   ar
    14     9    10   ar
    15    10    12   ar
    16    12    11   ar
    17    11     5   ar
    18     6     7   ar
    19     7    13   ar
    20    13    14   ar
    21    14    15   ar
    22    15    16   ar
    23    16     6   ar
