@<TRIPOS>MOLECULE
No_1363-gen_results/8p0m/2024-11-26-14-13-15/
 35 38 0 0 0
SMALL
GASTEIGER

@<TRIPOS>ATOM
      1 C         -28.0162   -0.8135   28.8779 C.ar    1  UNL1        0.0046
      2 C         -27.0636   -0.1189   28.6079 C.ar    1  UNL1        0.0001
      3 C         -25.7647   -0.3897   29.0360 C.ar    1  UNL1        0.0000
      4 C         -25.5296   -1.5302   29.9014 C.ar    1  UNL1        0.0001
      5 C         -26.6577   -2.2915   30.2035 C.ar    1  UNL1        0.0046
      6 C         -27.8548   -1.9555   29.7630 C.ar    1  UNL1        0.0555
      7 C         -24.4274    0.2189   28.7748 C.ar    1  UNL1        0.0000
      8 C         -24.3113    1.1727   27.7997 C.ar    1  UNL1        0.0000
      9 C         -23.0308    1.7517   27.5284 C.ar    1  UNL1        0.0000
     10 C         -21.8775    1.3529   28.1863 C.ar    1  UNL1        0.0000
     11 C         -23.0692   -0.1822   29.2099 C.ar    1  UNL1        0.0000
     12 C         -21.9017    0.3367   28.9612 C.ar    1  UNL1        0.0000
     13 C         -29.1164   -2.6081   30.1756 C.2     1  UNL1        0.2716
     14 O         -29.1244   -3.7905   30.3951 O.2     1  UNL1       -0.2679
     15 N         -30.2439   -1.9422   30.3125 N.am    1  UNL1       -0.1371
     16 C         -31.4781   -2.5709   30.6963 C.2     1  UNL1        0.2716
     17 C         -32.4968   -2.1583   29.9841 C.ar    1  UNL1        0.0556
     18 C         -32.3749   -1.0802   29.4084 C.ar    1  UNL1        0.0058
     19 C         -33.4863   -0.5710   28.5123 C.ar    1  UNL1        0.0147
     20 C         -34.5870   -1.3841   28.3788 C.ar    1  UNL1        0.0478
     21 C         -34.6691   -2.5782   28.9932 C.ar    1  UNL1        0.0147
     22 C         -33.6410   -2.9545   29.8041 C.ar    1  UNL1        0.0058
     23 O         -31.4347   -3.3090   31.6582 O.2     1  UNL1       -0.2679
     24 N         -35.6522   -0.9221   27.5695 N.pl3   1  UNL1       -0.3075
     25 C         -36.4957   -1.5026   27.0310 C.3     1  UNL1        0.0913
     26 C         -37.5278   -0.8958   26.2428 C.3     1  UNL1        0.0306
     27 C         -36.0235    0.4752   27.5646 C.3     1  UNL1        0.0913
     28 C         -36.8757    1.0994   26.9073 C.3     1  UNL1        0.0306
     29 C         -37.7320    0.3739   26.2064 C.3     1  UNL1        0.0819
     30 C         -38.8321    0.9362   25.4132 C.2     1  UNL1        0.2452
     31 O         -39.6244    0.4294   24.7003 O.2     1  UNL1       -0.2730
     32 N         -38.9423    2.3864   25.5284 N.am    1  UNL1       -0.1782
     33 C         -39.7566    3.0844   24.9627 C.2     1  UNL1        0.0841
     34 C         -40.6957    3.1222   24.4492 C.2     1  UNL1       -0.0079
     35 C         -41.5054    4.1347   23.8529 C.3     1  UNL1        0.0321
@<TRIPOS>BOND
     1     3     7    1
     2     6    13    1
     3    13    14    2
     4    13    15   am
     5    15    16   am
     6    16    17    1
     7    16    23    2
     8    20    24    1
     9    24    25    1
    10    24    27    1
    11    26    29    1
    12    28    29    1
    13    29    30    1
    14    30    31    2
    15    30    32   am
    16    32    33    1
    17    33    34    2
    18    34    35    1
    19    25    26    1
    20    28    27    1
    21     7     8   ar
    22     8     9   ar
    23     9    10   ar
    24    10    12   ar
    25    12    11   ar
    26    11     7   ar
    27     1     2   ar
    28     2     3   ar
    29     3     4   ar
    30     4     5   ar
    31     5     6   ar
    32     6     1   ar
    33    17    18   ar
    34    18    19   ar
    35    19    20   ar
    36    20    21   ar
    37    21    22   ar
    38    22    17   ar
