@<TRIPOS>MOLECULE
No_1365-gen_results/8p0m/2024-11-26-14-13-15/
 14 15 0 0 0
SMALL
GASTEIGER

@<TRIPOS>ATOM
      1 C         -28.0162   -0.8135   28.8779 C.ar    1  UNL1        0.0009
      2 C         -27.0636   -0.1190   28.6079 C.ar    1  UNL1        0.0001
      3 C         -26.9716    0.7139   27.5060 C.ar    1  UNL1        0.0009
      4 C         -28.1053    0.7744   26.6421 C.ar    1  UNL1        0.0114
      5 C         -29.2041    0.1179   27.0477 C.ar    1  UNL1        0.0577
      6 C         -29.2127   -0.6088   28.1281 C.ar    1  UNL1        0.0114
      7 C         -25.7106    1.4518   27.1380 C.ar    1  UNL1        0.0009
      8 C         -25.3772    2.0455   26.1738 C.ar    1  UNL1        0.0001
      9 C         -24.0750    2.7193   25.9782 C.ar    1  UNL1        0.0009
     10 C         -23.0770    2.4988   26.9483 C.ar    1  UNL1        0.0114
     11 C         -23.3638    1.6220   28.0103 C.ar    1  UNL1        0.0577
     12 C         -24.7304    1.0903   28.2376 C.ar    1  UNL1        0.0114
     13 CL        -22.0958    1.3759   29.1461 Cl      1  UNL1       -0.0822
     14 CL        -30.6023    0.2792   26.0541 Cl      1  UNL1       -0.0822
@<TRIPOS>BOND
     1     3     7    1
     2    11    13    1
     3     5    14    1
     4     1     2   ar
     5     2     3   ar
     6     3     4   ar
     7     4     5   ar
     8     5     6   ar
     9     6     1   ar
    10     7     8   ar
    11     8     9   ar
    12     9    10   ar
    13    10    11   ar
    14    11    12   ar
    15    12     7   ar
