@<TRIPOS>MOLECULE
No_1366-gen_results/8p0m/2024-11-26-14-13-15/
 8 8 0 0 0
SMALL
GASTEIGER

@<TRIPOS>ATOM
      1 C         -28.0162   -0.8135   28.8779 C.ar    1  UNL1       -0.0000
      2 C         -27.0636   -0.1189   28.6079 C.ar    1  UNL1       -0.0003
      3 C         -25.7923   -0.4302   29.0761 C.ar    1  UNL1       -0.0043
      4 C         -25.5681   -1.2411   29.7572 C.ar    1  UNL1       -0.0222
      5 C         -24.2377   -1.6686   30.3647 C.3     1  UNL1        0.0264
      6 C         -27.8484   -1.8924   29.8409 C.ar    1  UNL1       -0.0003
      7 C         -26.5620   -2.1768   30.2392 C.ar    1  UNL1       -0.0043
      8 C         -23.6204   -0.6758   31.2369 C.3     1  UNL1        0.0050
@<TRIPOS>BOND
     1     4     5    1
     2     5     8    1
     3     1     2   ar
     4     2     3   ar
     5     3     4   ar
     6     4     7   ar
     7     7     6   ar
     8     6     1   ar
