@<TRIPOS>MOLECULE
No_1368-gen_results/8p0m/2024-11-26-14-13-15/
 35 39 0 0 0
SMALL
GASTEIGER

@<TRIPOS>ATOM
      1 C         -28.0162   -0.8135   28.8779 C.ar    1  UNL1        0.0112
      2 C         -28.4690   -0.7850   29.8287 C.ar    1  UNL1        0.0553
      3 C         -26.5042   -0.7777   28.8766 C.ar    1  UNL1       -0.0165
      4 C         -25.8103   -0.8531   30.1028 C.ar    1  UNL1       -0.0039
      5 C         -27.9906   -0.8916   31.2257 C.ar    1  UNL1        0.0151
      6 C         -26.6042   -0.8676   31.2652 C.ar    1  UNL1        0.0010
      7 N         -29.9808   -0.8491   30.0372 N.pl3   1  UNL1       -0.2656
      8 C         -30.7032   -0.0242   29.3095 C.ar    1  UNL1        0.0556
      9 C         -30.3328    0.9349   28.7702 C.ar    1  UNL1        0.0149
     10 C         -31.2226    1.7766   27.8574 C.ar    1  UNL1       -0.0013
     11 C         -32.5162    1.3193   27.7464 C.ar    1  UNL1       -0.0006
     12 C         -32.0792   -0.4710   29.1143 C.ar    1  UNL1        0.0149
     13 C         -32.9216    0.2060   28.3751 C.ar    1  UNL1       -0.0013
     14 C         -30.5203   -1.9113   30.8734 C.ar    1  UNL1        0.0555
     15 C         -30.8796   -1.4105   32.0775 C.ar    1  UNL1        0.0139
     16 C         -30.5799   -3.1580   30.3846 C.ar    1  UNL1        0.0151
     17 C         -31.5161   -2.3567   32.9516 C.ar    1  UNL1        0.0012
     18 C         -31.0759   -4.1135   31.2616 C.ar    1  UNL1        0.0013
     19 C         -31.5309   -3.7170   32.5509 C.ar    1  UNL1        0.0001
     20 C         -31.1640   -0.0867   32.5599 C.ar    1  UNL1        0.0012
     21 C         -31.1471    0.3477   33.5987 C.ar    1  UNL1        0.0000
     22 C         -31.6353   -0.7275   34.5918 C.ar    1  UNL1        0.0000
     23 C         -31.7600   -2.0447   34.2958 C.ar    1  UNL1        0.0000
     24 C         -25.7868   -0.5121   27.6584 C.3     1  UNL1        0.0527
     25 C         -26.0395    0.4693   26.7221 C.ar    1  UNL1       -0.0178
     26 C         -25.1999    0.6061   25.6209 C.ar    1  UNL1       -0.0039
     27 C         -24.1538    1.2514   25.2872 C.ar    1  UNL1       -0.0003
     28 C         -23.8313    2.3930   26.1935 C.ar    1  UNL1       -0.0000
     29 C         -24.8301    2.7798   27.1643 C.ar    1  UNL1       -0.0003
     30 C         -26.2625    1.8061   27.1476 C.ar    1  UNL1       -0.0039
     31 C         -33.4488    2.1589   26.9052 C.3     1  UNL1        0.1386
     32 N         -34.1942    2.9274   27.4674 N.pl3   1  UNL1       -0.2319
     33 C         -34.1586    3.3112   28.6170 C.2     1  UNL1        0.0759
     34 C         -33.2802    3.2703   29.4660 C.2     1  UNL1       -0.0084
     35 C         -33.3822    3.8210   30.8928 C.3     1  UNL1        0.0321
@<TRIPOS>BOND
     1     2     7    1
     2     7     8    1
     3     7    14    1
     4     3    24    1
     5    24    25    1
     6    11    31    1
     7    31    32    1
     8    32    33    1
     9    33    34    2
    10    34    35    1
    11    25    26   ar
    12    26    27   ar
    13    27    28   ar
    14    28    29   ar
    15    29    30   ar
    16    30    25   ar
    17    17    23   ar
    18    23    22   ar
    19    22    21   ar
    20    21    20   ar
    21    20    15   ar
    22    14    15   ar
    23    15    17   ar
    24    17    19   ar
    25    19    18   ar
    26    18    16   ar
    27    16    14   ar
    28     1     2   ar
    29     2     5   ar
    30     5     6   ar
    31     6     4   ar
    32     4     3   ar
    33     3     1   ar
    34     8     9   ar
    35     9    10   ar
    36    10    11   ar
    37    11    13   ar
    38    13    12   ar
    39    12     8   ar
