@<TRIPOS>MOLECULE
No_1369-gen_results/8p0m/2024-11-26-14-13-15/
 18 19 0 0 0
SMALL
GASTEIGER

@<TRIPOS>ATOM
      1 C         -28.0162   -0.8135   28.8779 C.ar    1  UNL1       -0.0036
      2 C         -28.4690   -0.7850   29.8287 C.ar    1  UNL1       -0.0003
      3 C         -28.1960    0.3478   28.0550 C.ar    1  UNL1       -0.0144
      4 C         -29.0191    1.3501   28.3782 C.ar    1  UNL1       -0.0036
      5 C         -29.6249    1.2683   29.6012 C.ar    1  UNL1       -0.0003
      6 C         -29.3821    0.1816   30.4004 C.ar    1  UNL1       -0.0000
      7 C         -27.4591    0.3787   26.7048 C.3     1  UNL1        0.0658
      8 C         -26.1348    0.3565   26.8183 C.2     1  UNL1       -0.0177
      9 C         -25.3867    0.0255   27.9208 C.2     1  UNL1       -0.0039
     10 C         -23.9776    0.0232   27.9125 C.ar    1  UNL1       -0.0003
     11 C         -23.3085    0.8404   27.0012 C.ar    1  UNL1       -0.0000
     12 C         -21.9048    1.1476   27.1696 C.ar    1  UNL1       -0.0000
     13 C         -21.2386    0.6056   28.3240 C.ar    1  UNL1       -0.0000
     14 C         -21.9333   -0.3279   29.1500 C.ar    1  UNL1       -0.0000
     15 C         -23.3014   -0.5493   29.0060 C.ar    1  UNL1       -0.0000
     16 C         -28.2432    0.3499   25.5804 C.2     1  UNL1       -0.0222
     17 C         -27.8061    0.6314   24.4360 C.2     1  UNL1       -0.0297
     18 C         -28.6614    0.7752   23.3849 C.3     1  UNL1        0.0304
@<TRIPOS>BOND
     1     3     7    1
     2     7     8    1
     3     8     9    2
     4     9    10    1
     5     7    16    1
     6    16    17    2
     7    17    18    1
     8     1     2   ar
     9     2     6   ar
    10     6     5   ar
    11     5     4   ar
    12     4     3   ar
    13     3     1   ar
    14    10    11   ar
    15    11    12   ar
    16    12    13   ar
    17    13    14   ar
    18    14    15   ar
    19    15    10   ar
