@<TRIPOS>MOLECULE
No_137-gen_results/8p0m/2024-11-26-14-13-15/
 13 14 0 0 0
SMALL
GASTEIGER

@<TRIPOS>ATOM
      1 C         -28.0162   -0.8135   28.8779 C.ar    1  UNL1        0.0000
      2 C         -28.4690   -0.7850   29.8287 C.ar    1  UNL1        0.0000
      3 C         -27.1356    0.2359   28.5352 C.ar    1  UNL1        0.0008
      4 C         -26.8745    1.2825   29.3982 C.ar    1  UNL1        0.0000
      5 C         -28.3613    0.1987   30.9244 C.ar    1  UNL1        0.0000
      6 C         -27.5277    1.2234   30.6356 C.ar    1  UNL1        0.0000
      7 C         -26.3879    0.2914   27.2334 C.ar    1  UNL1        0.0106
      8 C         -26.4936    0.9729   26.2859 C.ar    1  UNL1        0.0008
      9 C         -25.6939    0.8744   25.0769 C.ar    1  UNL1        0.0001
     10 C         -25.1869   -0.6177   27.2113 C.ar    1  UNL1        0.0576
     11 C         -24.2863   -0.6177   26.2078 C.ar    1  UNL1        0.0114
     12 C         -24.5912    0.0809   25.0753 C.ar    1  UNL1        0.0009
     13 CL        -24.7811   -1.6188   28.6160 Cl      1  UNL1       -0.0822
@<TRIPOS>BOND
     1     3     7    1
     2    10    13    1
     3     1     2   ar
     4     2     5   ar
     5     5     6   ar
     6     6     4   ar
     7     4     3   ar
     8     3     1   ar
     9     7     8   ar
    10     8     9   ar
    11     9    12   ar
    12    12    11   ar
    13    11    10   ar
    14    10     7   ar
