@<TRIPOS>MOLECULE
No_1370-gen_results/8p0m/2024-11-26-14-13-15/
 35 39 0 0 0
SMALL
GASTEIGER

@<TRIPOS>ATOM
      1 C         -28.0162   -0.8135   28.8779 C.ar    1  UNL1        0.0067
      2 C         -27.0636   -0.1190   28.6079 C.ar    1  UNL1        0.0005
      3 C         -25.7923   -0.4302   29.0761 C.ar    1  UNL1       -0.0002
      4 C         -24.5456    0.3494   28.8225 C.ar    1  UNL1       -0.0026
      5 C         -23.2409    0.0217   29.3323 C.ar    1  UNL1       -0.0032
      6 C         -27.8820   -1.8995   29.8633 C.ar    1  UNL1        0.0346
      7 C         -26.6526   -2.3142   30.3138 C.ar    1  UNL1        0.0067
      8 C         -25.5153   -1.5607   29.9787 C.ar    1  UNL1        0.0005
      9 C         -23.2160   -1.2277   30.0505 C.ar    1  UNL1       -0.0028
     10 C         -24.2438   -1.9369   30.3995 C.ar    1  UNL1       -0.0003
     11 C         -24.5721    1.5640   27.9603 C.ar    1  UNL1       -0.0003
     12 C         -24.9387    1.4539   26.6967 C.ar    1  UNL1       -0.0000
     13 C         -24.9156    2.6352   25.9062 C.ar    1  UNL1       -0.0000
     14 C         -24.7208    3.9392   26.4603 C.ar    1  UNL1       -0.0000
     15 C         -24.4308    3.9927   27.8394 C.ar    1  UNL1       -0.0000
     16 C         -24.3574    2.8222   28.5952 C.ar    1  UNL1       -0.0000
     17 BR        -29.4637   -2.8639   30.2972 Br      1  UNL1       -0.0490
     18 C         -22.0664    0.7198   28.9657 C.3     1  UNL1        0.1356
     19 N         -21.3433    0.4934   27.8782 N.3     1  UNL1       -0.1262
     20 C         -25.1323    0.2475   25.9792 C.2     1  UNL1       -0.0000
     21 C         -25.5750    0.2694   24.6363 C.2     1  UNL1        0.0000
     22 C         -26.9326    0.3284   24.5438 C.ar    1  UNL1        0.0001
     23 C         -27.7705    1.1882   24.5913 C.ar    1  UNL1        0.0008
     24 C         -29.1953    1.0925   24.4481 C.ar    1  UNL1        0.0103
     25 C         -30.1603    2.0821   24.6052 C.ar    1  UNL1       -0.0020
     26 C         -29.6203    3.3989   24.9596 C.ar    1  UNL1       -0.0048
     27 C         -28.2765    3.5965   25.1587 C.ar    1  UNL1       -0.0029
     28 C         -27.4076    2.6226   25.0584 C.ar    1  UNL1       -0.0003
     29 C         -27.5021   -0.6644   23.5659 C.ar    1  UNL1        0.0009
     30 C         -28.8562   -1.0356   23.5185 C.ar    1  UNL1        0.0114
     31 C         -29.7118   -0.1070   23.8861 C.ar    1  UNL1        0.0576
     32 CL        -31.3814   -0.3407   23.6558 Cl      1  UNL1       -0.0822
     33 C         -30.6046    4.5156   25.1612 C.3     1  UNL1        0.1150
     34 N         -31.8463    4.3899   24.7548 N.3     1  UNL1       -0.2118
     35 C         -32.9120    4.1301   25.5951 C.3     1  UNL1        0.1079
@<TRIPOS>BOND
     1     4    11    1
     2     6    17    1
     3     5    18    1
     4    18    19    1
     5    12    20    1
     6    20    21    2
     7    21    22    1
     8    31    32    1
     9    26    33    1
    10    33    34    1
    11    34    35    1
    12    24    25   ar
    13    25    26   ar
    14    26    27   ar
    15    27    28   ar
    16    28    23   ar
    17     3     4   ar
    18     4     5   ar
    19     5     9   ar
    20     9    10   ar
    21    10     8   ar
    22     1     2   ar
    23     2     3   ar
    24     3     8   ar
    25     8     7   ar
    26     7     6   ar
    27     6     1   ar
    28    11    12   ar
    29    12    13   ar
    30    13    14   ar
    31    14    15   ar
    32    15    16   ar
    33    16    11   ar
    34    22    23   ar
    35    23    24   ar
    36    24    31   ar
    37    31    30   ar
    38    30    29   ar
    39    29    22   ar
