@<TRIPOS>MOLECULE
No_1371-gen_results/8p0m/2024-11-26-14-13-15/
 27 29 0 0 0
SMALL
GASTEIGER

@<TRIPOS>ATOM
      1 CL        -28.1493   -0.8198   28.9079 Cl      1  UNL1       -0.1128
      2 C         -28.5324   -0.0471   29.7727 C.3     1  UNL1        0.1063
      3 C         -29.7006    0.0350   30.2420 C.3     1  UNL1        0.1316
      4 C         -27.5805    1.1366   30.1199 C.3     1  UNL1        0.0519
      5 C         -26.2775    1.2440   29.6271 C.ar    1  UNL1       -0.0205
      6 C         -26.0612    1.7985   28.5388 C.ar    1  UNL1       -0.0043
      7 C         -25.3134    1.8583   27.8492 C.ar    1  UNL1        0.0035
      8 C         -23.9361    1.1871   28.2171 C.ar    1  UNL1        0.0714
      9 C         -24.0073    0.5914   29.4815 C.ar    1  UNL1        0.0035
     10 C         -25.1886    0.5407   30.2193 C.ar    1  UNL1       -0.0043
     11 N         -30.0237    0.9541   31.2087 N.am    1  UNL1       -0.2038
     12 C         -28.2333    1.9600   31.1794 C.3     1  UNL1        0.1056
     13 C         -29.3545    1.9043   31.6767 C.2     1  UNL1        0.2454
     14 C         -22.7153    1.3130   27.4576 C.3     1  UNL1        0.4186
     15 F         -21.7525    0.7286   27.9992 F       1  UNL1       -0.1659
     16 F         -22.3159    2.7271   27.4335 F       1  UNL1       -0.1659
     17 F         -22.9699    1.0461   26.1783 F       1  UNL1       -0.1659
     18 C         -27.2084    3.0702   31.6280 C.ar    1  UNL1       -0.0135
     19 C         -27.7435    4.1839   31.9810 C.ar    1  UNL1       -0.0036
     20 C         -26.8970    5.2199   32.3693 C.ar    1  UNL1        0.0063
     21 C         -25.4710    5.1372   32.3225 C.ar    1  UNL1        0.0798
     22 C         -24.9360    3.8841   31.9384 C.ar    1  UNL1        0.0063
     23 C         -25.7854    2.8759   31.5832 C.ar    1  UNL1       -0.0036
     24 C         -24.5591    6.2033   32.7977 C.2     1  UNL1        0.3878
     25 O         -24.9130    7.0343   33.3022 O.co2   1  UNL1       -0.2406
     26 O         -23.2830    5.7994   32.9115 O.co2   1  UNL1       -0.2406
     27 O         -29.8539    2.6734   32.5281 O.2     1  UNL1       -0.2730
@<TRIPOS>BOND
     1     1     2    1
     2     2     4    1
     3     4     5    1
     4     4    12    1
     5    11    13   am
     6    12    13    1
     7     8    14    1
     8    14    15    1
     9    14    16    1
    10    14    17    1
    11    12    18    1
    12    21    24    1
    13    24    25   ar
    14    24    26   ar
    15    13    27    2
    16    11     3    1
    17     3     2    1
    18    18    19   ar
    19    19    20   ar
    20    20    21   ar
    21    21    22   ar
    22    22    23   ar
    23    23    18   ar
    24     5     6   ar
    25     6     7   ar
    26     7     8   ar
    27     8     9   ar
    28     9    10   ar
    29    10     5   ar
