@<TRIPOS>MOLECULE
No_1372-gen_results/8p0m/2024-11-26-14-13-15/
 20 22 0 0 0
SMALL
GASTEIGER

@<TRIPOS>ATOM
      1 O         -28.1229   -1.3353   28.4874 O.2     1  UNL1       -0.2677
      2 C         -27.4806   -0.4044   28.7094 C.2     1  UNL1        0.2726
      3 C         -26.3804   -0.0867   27.9394 C.2     1  UNL1        0.0405
      4 N         -27.6664    0.4468   29.8988 N.am    1  UNL1       -0.1322
      5 C         -25.1773   -0.4388   28.3946 C.2     1  UNL1        0.0103
      6 C         -24.8702   -0.1050   29.8315 C.2     1  UNL1        0.0587
      7 C         -26.1926    0.2176   30.5619 C.1     1  UNL1       -0.0116
      8 C         -26.5239    0.4387   26.6042 C.3     1  UNL1        0.0743
      9 C         -26.4823    1.8096   26.4128 C.3     1  UNL1        0.0121
     10 C         -25.5521   -0.1144   25.5603 C.3     1  UNL1        0.0121
     11 C         -27.9540    0.0501   26.0548 C.2     1  UNL1        0.1258
     12 C         -28.5687    0.8420   25.1143 C.2     1  UNL1        0.0330
     13 C         -29.8708    0.4710   24.7761 C.2     1  UNL1        0.0019
     14 C         -30.5153   -0.4068   25.5852 C.2     1  UNL1        0.0168
     15 C         -31.7743   -0.8819   25.1398 C.3     1  UNL1        0.0554
     16 C         -32.4961   -1.8987   25.8725 C.2     1  UNL1       -0.0212
     17 C         -32.0860   -2.1941   27.1469 C.2     1  UNL1       -0.0011
     18 C         -30.9843   -1.4765   27.6849 C.2     1  UNL1        0.0368
     19 C         -30.2307   -0.6716   26.9807 C.2     1  UNL1        0.1411
     20 O         -28.6817   -0.6896   26.8555 O.2     1  UNL1       -0.4578
@<TRIPOS>BOND
     1     1     2    2
     2     2     3    1
     3     2     4    1
     4     3     5    2
     5     5     6    1
     6     4     7    2
     7     6     7    2
     8     3     8    1
     9     8     9    1
    10     8    10    1
    11     8    11    1
    12    11    12    2
    13    12    13    1
    14    13    14    2
    15    14    15    1
    16    15    16    1
    17    16    17    2
    18    17    18    1
    19    14    19    1
    20    18    19    2
    21    11    20    1
    22    19    20    1
