@<TRIPOS>MOLECULE
No_1374-gen_results/8p0m/2024-11-26-14-13-15/
 35 37 0 0 0
SMALL
GASTEIGER

@<TRIPOS>ATOM
      1 C         -28.0162   -0.8135   28.8779 C.ar    1  UNL1        0.0794
      2 C         -27.0636   -0.1189   28.6079 C.ar    1  UNL1        0.0026
      3 C         -26.9716    0.7139   27.5060 C.ar    1  UNL1       -0.0179
      4 C         -28.1053    0.7744   26.6421 C.ar    1  UNL1       -0.0017
      5 C         -29.2008    0.1044   27.0527 C.ar    1  UNL1        0.0531
      6 C         -29.2096   -0.6029   28.1853 C.ar    1  UNL1        0.0088
      7 C         -30.3702    0.2264   26.1604 C.3     1  UNL1        0.3500
      8 CL        -30.9994    1.2520   25.7597 Cl      1  UNL1       -0.0423
      9 F         -31.2811   -0.7180   26.6449 F       1  UNL1       -0.1825
     10 F         -29.9255   -0.5121   24.9922 F       1  UNL1       -0.1825
     11 C         -28.0129   -1.6701   30.1449 C.2     1  UNL1        0.3877
     12 O         -28.4869   -1.5360   31.1055 O.co2   1  UNL1       -0.2406
     13 O         -27.0559   -2.6305   30.0075 O.co2   1  UNL1       -0.2406
     14 C         -25.7154    1.4286   27.1104 C.3     1  UNL1        0.0508
     15 C         -24.5640    0.8456   27.3429 C.ar    1  UNL1        0.0093
     16 C         -24.0479   -0.0845   28.1369 C.ar    1  UNL1       -0.0017
     17 C         -22.8060   -0.1859   28.7106 C.ar    1  UNL1       -0.0002
     18 C         -21.8780    0.7569   28.2357 C.ar    1  UNL1        0.0023
     19 C         -23.4593    1.9909   27.4512 C.ar    1  UNL1        0.1364
     20 C         -22.1900    1.8833   27.6841 C.ar    1  UNL1        0.0293
     21 C         -25.8756    2.8378   27.0613 C.3     1  UNL1        0.0305
     22 F         -23.9753    3.2671   27.0058 F       1  UNL1       -0.2045
     23 C         -26.4705    3.6244   27.9570 C.ar    1  UNL1       -0.0217
     24 C         -25.7628    3.3346   25.6728 C.3     1  UNL1        0.0054
     25 C         -27.4355    4.5869   27.7012 C.ar    1  UNL1       -0.0043
     26 C         -27.8742    5.4777   28.6987 C.ar    1  UNL1       -0.0002
     27 C         -27.4382    5.2820   30.0072 C.ar    1  UNL1        0.0045
     28 C         -25.9340    3.5395   29.3402 C.ar    1  UNL1        0.0003
     29 C         -26.4205    4.4154   30.3282 C.ar    1  UNL1        0.0547
     30 C         -25.8648    4.3085   31.7102 C.2     1  UNL1        0.2648
     31 O         -24.9497    3.6631   31.8950 O.2     1  UNL1       -0.2684
     32 N         -26.4926    5.0278   32.6989 N.am    1  UNL1       -0.2017
     33 C         -26.0056    4.9649   34.1036 C.3     1  UNL1        0.1155
     34 C         -25.4105    6.1210   34.2521 C.3     1  UNL1        0.0234
     35 C         -24.5134    6.5113   33.5294 C.3     1  UNL1        0.0019
@<TRIPOS>BOND
     1     5     7    1
     2     7     8    1
     3     7     9    1
     4     7    10    1
     5     1    11    1
     6    11    12   ar
     7    11    13   ar
     8     3    14    1
     9    14    15    1
    10    14    21    1
    11    19    22    1
    12    21    23    1
    13    21    24    1
    14    29    30    1
    15    30    31    2
    16    30    32   am
    17    32    33    1
    18    33    34    1
    19    34    35    1
    20    15    16   ar
    21    16    17   ar
    22    17    18   ar
    23    18    20   ar
    24    20    19   ar
    25    19    15   ar
    26     1     2   ar
    27     2     3   ar
    28     3     4   ar
    29     4     5   ar
    30     5     6   ar
    31     6     1   ar
    32    23    25   ar
    33    25    26   ar
    34    26    27   ar
    35    27    29   ar
    36    29    28   ar
    37    28    23   ar
