@<TRIPOS>MOLECULE
No_1376-gen_results/8p0m/2024-11-26-14-13-15/
 22 22 0 0 0
SMALL
GASTEIGER

@<TRIPOS>ATOM
      1 C         -28.0162   -0.8135   28.8779 C.ar    1  UNL1        0.0758
      2 C         -27.0636   -0.1189   28.6079 C.ar    1  UNL1        0.0103
      3 C         -27.0010    0.6913   27.4910 C.ar    1  UNL1        0.0718
      4 C         -28.1373    0.7363   26.6350 C.ar    1  UNL1        0.0104
      5 C         -29.2360    0.0765   27.0690 C.ar    1  UNL1        0.0799
      6 C         -29.2177   -0.6429   28.1747 C.ar    1  UNL1        0.0130
      7 C         -27.7867   -1.6669   30.1199 C.2     1  UNL1        0.3413
      8 O         -28.6535   -2.0924   30.6952 O.2     1  UNL1       -0.2449
      9 O         -26.5637   -2.1459   30.3331 O.3     1  UNL1       -0.4427
     10 C         -30.4381    0.1591   26.2183 C.2     1  UNL1        0.3877
     11 O         -31.0853    0.9234   26.1506 O.co2   1  UNL1       -0.2406
     12 O         -30.6648   -1.0379   25.5598 O.co2   1  UNL1       -0.2406
     13 C         -25.7562    1.4480   27.0583 C.3     1  UNL1        0.4186
     14 F         -25.6525    1.7195   25.8837 F       1  UNL1       -0.1659
     15 F         -24.6309    0.7107   27.3991 F       1  UNL1       -0.1659
     16 F         -25.7089    2.6142   27.7543 F       1  UNL1       -0.1659
     17 C         -26.2038   -3.3967   29.7896 C.3     1  UNL1        0.2407
     18 C         -24.8893   -3.4302   29.1408 C.3     1  UNL1        0.1900
     19 O         -24.3295   -2.3052   28.9899 O.3     1  UNL1       -0.3415
     20 C         -22.9430   -2.1306   29.4396 C.3     1  UNL1        0.2140
     21 C         -22.5733   -0.5724   29.5375 C.2     1  UNL1        0.2396
     22 O         -23.2153    0.0551   30.4114 O.2     1  UNL1       -0.2855
@<TRIPOS>BOND
     1     1     7    1
     2     7     8    2
     3     7     9    1
     4     5    10    1
     5    10    11   ar
     6    10    12   ar
     7     3    13    1
     8    13    14    1
     9    13    15    1
    10    13    16    1
    11     9    17    1
    12    17    18    1
    13    18    19    1
    14    19    20    1
    15    20    21    1
    16    21    22    2
    17     1     2   ar
    18     2     3   ar
    19     3     4   ar
    20     4     5   ar
    21     5     6   ar
    22     6     1   ar
