@<TRIPOS>MOLECULE
No_1377-gen_results/8p0m/2024-11-26-14-13-15/
 20 22 0 0 0
SMALL
GASTEIGER

@<TRIPOS>ATOM
      1 C         -28.0162   -0.8135   28.8779 C.ar    1  UNL1       -0.0000
      2 C         -27.0636   -0.1189   28.6079 C.ar    1  UNL1       -0.0000
      3 C         -25.7923   -0.4302   29.0761 C.ar    1  UNL1       -0.0000
      4 C         -25.5756   -1.5654   29.9363 C.ar    1  UNL1       -0.0000
      5 C         -26.7354   -2.3004   30.2173 C.ar    1  UNL1        0.0000
      6 C         -27.9184   -1.9537   29.7629 C.ar    1  UNL1       -0.0000
      7 C         -27.1057    1.1023   27.7593 C.ar    1  UNL1       -0.0003
      8 C         -26.7157    2.2350   27.9945 C.ar    1  UNL1       -0.0000
      9 C         -26.6929    3.3459   27.0337 C.ar    1  UNL1       -0.0003
     10 C         -27.1962    3.0779   25.7437 C.ar    1  UNL1       -0.0043
     11 C         -27.5814    0.8882   26.3714 C.ar    1  UNL1       -0.0043
     12 C         -27.5996    1.7720   25.6240 C.ar    1  UNL1       -0.0218
     13 C         -28.1715    1.5285   24.1689 C.3     1  UNL1        0.0310
     14 C         -29.5510    1.2576   24.2118 C.3     1  UNL1        0.0310
     15 C         -30.5467    1.7295   23.7706 C.ar    1  UNL1       -0.0218
     16 C         -31.9196    1.3753   23.7602 C.ar    1  UNL1       -0.0043
     17 C         -32.9532    2.1252   23.2302 C.ar    1  UNL1       -0.0003
     18 C         -32.6351    3.4062   22.6726 C.ar    1  UNL1       -0.0000
     19 C         -31.3670    3.8519   22.6233 C.ar    1  UNL1       -0.0003
     20 C         -30.3255    3.1412   23.1448 C.ar    1  UNL1       -0.0043
@<TRIPOS>BOND
     1     2     7    1
     2    12    13    1
     3    13    14    1
     4    14    15    1
     5     7     8   ar
     6     8     9   ar
     7     9    10   ar
     8    10    12   ar
     9    12    11   ar
    10    11     7   ar
    11     1     2   ar
    12     2     3   ar
    13     3     4   ar
    14     4     5   ar
    15     5     6   ar
    16     6     1   ar
    17    15    16   ar
    18    16    17   ar
    19    17    18   ar
    20    18    19   ar
    21    19    20   ar
    22    20    15   ar
