@<TRIPOS>MOLECULE
No_1378-gen_results/8p0m/2024-11-26-14-13-15/
 24 27 0 0 0
SMALL
GASTEIGER

@<TRIPOS>ATOM
      1 C         -28.0162   -0.8135   28.8779 C.ar    1  UNL1        0.0111
      2 C         -28.4690   -0.7850   29.8287 C.ar    1  UNL1        0.0008
      3 C         -27.1356    0.2359   28.5352 C.ar    1  UNL1        0.0558
      4 C         -26.8745    1.2825   29.3982 C.ar    1  UNL1        0.0122
      5 C         -28.3613    0.1987   30.9244 C.ar    1  UNL1       -0.0002
      6 C         -27.5277    1.2234   30.6356 C.ar    1  UNL1       -0.0013
      7 CL        -26.3387    0.0638   27.0297 Cl      1  UNL1       -0.0825
      8 C         -25.9673    2.3687   29.0678 C.3     1  UNL1        0.1155
      9 N         -25.2236    2.8353   29.9333 N.pl3   1  UNL1       -0.2963
     10 C         -26.7063    3.5821   28.4920 C.ar    1  UNL1        0.0016
     11 C         -24.8378    1.9664   27.9876 C.2     1  UNL1       -0.0031
     12 C         -23.6385    1.6535   28.6104 C.2     1  UNL1       -0.0071
     13 C         -23.8022    2.2776   30.0123 C.3     1  UNL1        0.1178
     14 C         -25.5813    3.4676   31.2628 C.ar    1  UNL1        0.0487
     15 C         -25.3682    2.9952   32.4776 C.ar    1  UNL1        0.0145
     16 C         -26.2080    4.8006   31.1127 C.ar    1  UNL1        0.0145
     17 C         -25.7718    3.6989   33.6549 C.ar    1  UNL1        0.0013
     18 C         -26.5828    5.4875   32.2331 C.ar    1  UNL1        0.0013
     19 C         -26.3707    4.9465   33.5207 C.ar    1  UNL1        0.0001
     20 C         -27.2417    3.6205   27.1966 C.ar    1  UNL1       -0.0021
     21 C         -28.1544    4.0130   27.0260 C.ar    1  UNL1       -0.0003
     22 C         -28.8851    5.0256   27.8433 C.ar    1  UNL1       -0.0000
     23 C         -28.3142    5.1924   29.0884 C.ar    1  UNL1       -0.0003
     24 C         -27.2983    4.4115   29.4768 C.ar    1  UNL1       -0.0021
@<TRIPOS>BOND
     1     3     7    1
     2     4     8    1
     3     8     9    1
     4     8    10    1
     5     8    11    1
     6    11    12    2
     7     9    13    1
     8    12    13    1
     9     9    14    1
    10    14    15   ar
    11    15    17   ar
    12    17    19   ar
    13    19    18   ar
    14    18    16   ar
    15    16    14   ar
    16    10    20   ar
    17    20    21   ar
    18    21    22   ar
    19    22    23   ar
    20    23    24   ar
    21    24    10   ar
    22     1     2   ar
    23     2     5   ar
    24     5     6   ar
    25     6     4   ar
    26     4     3   ar
    27     3     1   ar
