@<TRIPOS>MOLECULE
No_1379-gen_results/8p0m/2024-11-26-14-13-15/
 7 7 0 0 0
SMALL
GASTEIGER

@<TRIPOS>ATOM
      1 C         -28.0162   -0.8135   28.8779 C.ar    1  UNL1        0.0009
      2 C         -27.0636   -0.1190   28.6079 C.ar    1  UNL1        0.0114
      3 C         -25.7647   -0.3897   29.0360 C.ar    1  UNL1        0.0577
      4 C         -25.5296   -1.5303   29.9014 C.ar    1  UNL1        0.0114
      5 C         -26.6577   -2.2915   30.2035 C.ar    1  UNL1        0.0009
      6 C         -27.8548   -1.9555   29.7630 C.ar    1  UNL1        0.0001
      7 CL        -24.3799    0.5589   28.6862 Cl      1  UNL1       -0.0822
@<TRIPOS>BOND
     1     3     7    1
     2     1     2   ar
     3     2     3   ar
     4     3     4   ar
     5     4     5   ar
     6     5     6   ar
     7     6     1   ar
