@<TRIPOS>MOLECULE
No_1380-gen_results/8p0m/2024-11-26-14-13-15/
 35 37 0 0 0
SMALL
GASTEIGER

@<TRIPOS>ATOM
      1 C         -28.0162   -0.8135   28.8779 C.ar    1  UNL1        0.0367
      2 C         -27.0636   -0.1190   28.6079 C.ar    1  UNL1       -0.0009
      3 C         -25.7647   -0.3897   29.0360 C.ar    1  UNL1       -0.0214
      4 C         -25.5296   -1.5302   29.9014 C.ar    1  UNL1       -0.0011
      5 C         -26.6888   -2.2893   30.1810 C.ar    1  UNL1        0.0367
      6 C         -27.8727   -1.9508   29.7373 C.ar    1  UNL1        0.1413
      7 C         -24.5491    0.4100   28.7341 C.3     1  UNL1        0.0392
      8 C         -24.0931    1.3779   29.5761 C.3     1  UNL1        0.1251
      9 P         -22.7272    2.2872   29.2471 P.3     1  UNL1        0.4000
     10 O         -21.6133    1.6527   28.8323 O.2     1  UNL1       -0.2530
     11 O         -22.4987    3.0647   30.2288 O.3     1  UNL1       -0.1377
     12 O         -23.4488    3.1173   28.0167 O.3     1  UNL1       -0.1040
     13 F         -24.0160    4.0996   28.2380 F       1  UNL1       -0.0389
     14 O         -28.9709   -2.7250   30.0961 O.3     1  UNL1       -0.4525
     15 C         -28.8461   -3.9518   30.6947 C.3     1  UNL1        0.2965
     16 C         -28.9739   -4.9964   29.8159 C.3     1  UNL1        0.1017
     17 C         -30.3733   -5.1007   29.4560 C.2     1  UNL1       -0.0196
     18 C         -31.1498   -5.5325   29.9618 C.2     1  UNL1       -0.0031
     19 C         -31.0085   -6.0221   31.3313 C.2     1  UNL1        0.0173
     20 C         -30.3246   -5.2233   32.3348 C.2     1  UNL1        0.0975
     21 C         -29.8538   -4.0412   31.9071 C.3     1  UNL1        0.2664
     22 F         -29.9846   -2.9822   32.5501 F       1  UNL1       -0.2241
     23 C         -27.1930    1.0894   27.6774 C.ar    1  UNL1       -0.0002
     24 C         -27.9149    1.0207   26.5809 C.ar    1  UNL1       -0.0000
     25 C         -28.0066    2.1265   25.7531 C.ar    1  UNL1       -0.0000
     26 C         -27.6150    3.0452   26.0147 C.ar    1  UNL1       -0.0000
     27 C         -26.7596    3.4035   27.1770 C.ar    1  UNL1       -0.0000
     28 C         -26.5840    2.3583   28.0073 C.ar    1  UNL1       -0.0000
     29 O         -27.6769   -4.1324   31.4657 O.3     1  UNL1       -0.1774
     30 N         -29.4407   -5.9583   33.1445 N.2     1  UNL1       -0.2452
     31 C         -29.9268   -7.1633   33.7220 C.2     1  UNL1        0.0985
     32 C         -28.8211   -7.8608   34.3213 C.2     1  UNL1        0.0206
     33 C         -28.6278   -9.1539   33.9933 C.2     1  UNL1        0.0016
     34 C         -29.5175   -9.7404   33.0965 C.2     1  UNL1        0.0000
     35 C         -30.5844   -9.0559   32.5344 C.2     1  UNL1        0.0000
@<TRIPOS>BOND
     1     3     7    1
     2     7     8    1
     3     8     9    1
     4     9    10    2
     5     9    11    1
     6     9    12    1
     7    12    13    1
     8     6    14    1
     9    14    15    1
    10    15    16    1
    11    16    17    1
    12    17    18    2
    13    18    19    1
    14    19    20    2
    15    15    21    1
    16    20    21    1
    17    21    22    1
    18     2    23    1
    19    15    29    1
    20    20    30    1
    21    30    31    2
    22    31    32    1
    23    32    33    2
    24    33    34    1
    25    34    35    2
    26     1     2   ar
    27     2     3   ar
    28     3     4   ar
    29     4     5   ar
    30     5     6   ar
    31     6     1   ar
    32    23    24   ar
    33    24    25   ar
    34    25    26   ar
    35    26    27   ar
    36    27    28   ar
    37    28    23   ar
