@<TRIPOS>MOLECULE
No_1382-gen_results/8p0m/2024-11-26-14-13-15/
 23 25 0 0 0
SMALL
GASTEIGER

@<TRIPOS>ATOM
      1 C         -28.0162   -0.8135   28.8779 C.ar    1  UNL1        0.0006
      2 C         -28.4690   -0.7850   29.8287 C.ar    1  UNL1        0.0551
      3 C         -26.5042   -0.7777   28.8766 C.ar    1  UNL1       -0.0176
      4 C         -25.8103   -0.8531   30.1028 C.ar    1  UNL1       -0.0036
      5 C         -27.9906   -0.8916   31.2257 C.ar    1  UNL1        0.0046
      6 C         -24.3976   -0.8364   30.1775 C.ar    1  UNL1       -0.0003
      7 C         -26.5754   -0.8899   31.2661 C.ar    1  UNL1       -0.0001
      8 C         -23.7708   -0.9176   31.0960 C.ar    1  UNL1       -0.0000
      9 C         -24.4514   -0.9719   32.4391 C.ar    1  UNL1       -0.0000
     10 C         -25.8238   -0.8806   32.4918 C.ar    1  UNL1       -0.0000
     11 C         -25.7119   -0.7135   27.6230 C.3     1  UNL1        0.0526
     12 C         -25.6147    0.6344   27.1022 C.ar    1  UNL1       -0.0178
     13 C         -24.5255    1.0393   26.5398 C.ar    1  UNL1       -0.0039
     14 C         -24.3963    2.4306   26.0337 C.ar    1  UNL1       -0.0003
     15 C         -25.4910    3.2117   26.0953 C.ar    1  UNL1       -0.0000
     16 C         -26.6959    1.5998   27.1416 C.ar    1  UNL1       -0.0039
     17 C         -26.6071    2.8199   26.6420 C.ar    1  UNL1       -0.0003
     18 C         -30.1079   -0.8116   29.8641 C.2     1  UNL1        0.2690
     19 O         -30.6360   -0.1294   29.1117 O.2     1  UNL1       -0.2680
     20 N         -30.7537   -1.6527   30.6885 N.am    1  UNL1       -0.1745
     21 C         -32.1737   -1.7707   30.6360 C.2     1  UNL1        0.0844
     22 C         -32.9763   -1.1695   30.2858 C.2     1  UNL1       -0.0079
     23 C         -32.7066    0.1727   29.9419 C.3     1  UNL1        0.0321
@<TRIPOS>BOND
     1     3    11    1
     2    11    12    1
     3     2    18    1
     4    18    19    2
     5    18    20   am
     6    20    21    1
     7    21    22    2
     8    22    23    1
     9    12    13   ar
    10    13    14   ar
    11    14    15   ar
    12    15    17   ar
    13    17    16   ar
    14    16    12   ar
    15     4     6   ar
    16     6     8   ar
    17     8     9   ar
    18     9    10   ar
    19    10     7   ar
    20     1     2   ar
    21     2     5   ar
    22     5     7   ar
    23     7     4   ar
    24     4     3   ar
    25     3     1   ar
