@<TRIPOS>MOLECULE
No_1384-gen_results/8p0m/2024-11-26-14-13-15/
 14 14 0 0 0
SMALL
GASTEIGER

@<TRIPOS>ATOM
      1 C         -28.0162   -0.8135   28.8779 C.ar    1  UNL1        0.0177
      2 C         -28.4690   -0.7850   29.8287 C.ar    1  UNL1        0.0806
      3 C         -27.0871    0.2903   28.6377 C.ar    1  UNL1        0.0544
      4 C         -26.8317    1.2487   29.5869 C.ar    1  UNL1       -0.0024
      5 C         -28.3914    0.0801   31.0065 C.ar    1  UNL1        0.0063
      6 C         -27.4940    1.1521   30.7841 C.ar    1  UNL1       -0.0027
      7 CL        -26.2087    0.3944   27.1645 Cl      1  UNL1       -0.0826
      8 C         -29.4742   -1.9977   30.2381 C.2     1  UNL1        0.3878
      9 O         -29.1508   -3.2186   30.3050 O.co2   1  UNL1       -0.2406
     10 O         -30.7402   -1.7555   30.4816 O.co2   1  UNL1       -0.2406
     11 C         -25.8142    2.2157   29.1596 C.3     1  UNL1        0.1156
     12 C         -24.4491    2.0032   29.2328 C.2     1  UNL1        0.2652
     13 N         -23.6133    2.4213   28.2620 N.am    1  UNL1       -0.0875
     14 O         -23.9176    1.3666   30.2550 O.2     1  UNL1       -0.2713
@<TRIPOS>BOND
     1     3     7    1
     2     2     8    1
     3     8     9   ar
     4     8    10   ar
     5     4    11    1
     6    11    12    1
     7    12    13   am
     8    12    14    2
     9     1     2   ar
    10     2     5   ar
    11     5     6   ar
    12     6     4   ar
    13     4     3   ar
    14     3     1   ar
