@<TRIPOS>MOLECULE
No_1385-gen_results/8p0m/2024-11-26-14-13-15/
 12 13 0 0 0
SMALL
GASTEIGER

@<TRIPOS>ATOM
      1 O         -28.1229   -1.3353   28.4874 O.2     1  UNL1       -0.2733
      2 C         -27.0637   -0.8242   28.8687 C.2     1  UNL1        0.2414
      3 C         -25.9464   -1.0396   28.8492 C.3     1  UNL1        0.0869
      4 C         -24.7602   -0.1562   29.1644 C.3     1  UNL1        0.0108
      5 C         -23.3890   -0.4551   29.0162 C.3     1  UNL1        0.0005
      6 N         -27.1818    0.7101   29.2928 N.am    1  UNL1       -0.2054
      7 C         -26.3236    1.5579   29.6078 C.3     1  UNL1        0.1151
      8 C         -25.0029    1.2234   29.5206 C.3     1  UNL1        0.0222
      9 C         -22.7860   -1.6007   29.4548 C.3     1  UNL1        0.0000
     10 C         -22.5095    0.5652   28.4557 C.3     1  UNL1        0.0000
     11 C         -22.9297    1.7764   27.9108 C.3     1  UNL1        0.0001
     12 C         -24.2229    2.2807   28.5175 C.3     1  UNL1        0.0018
@<TRIPOS>BOND
     1     1     2    2
     2     2     3    1
     3     3     4    1
     4     4     5    1
     5     2     6   am
     6     4     8    1
     7     7     8    1
     8     5     9    1
     9     5    10    1
    10    10    11    1
    11     8    12    1
    12    11    12    1
    13     7     6    1
