@<TRIPOS>MOLECULE
No_1386-gen_results/8p0m/2024-11-26-14-13-15/
 17 18 0 0 0
SMALL
GASTEIGER

@<TRIPOS>ATOM
      1 C         -28.0162   -0.8135   28.8779 C.3     1  UNL1        0.0833
      2 C         -27.0636   -0.1190   28.6079 C.3     1  UNL1        0.3299
      3 CL        -25.6156   -0.5162   28.8771 Cl      1  UNL1       -0.0470
      4 C         -28.4667   -0.6427   30.1520 C.3     1  UNL1        0.0084
      5 C         -28.7384   -1.7415   30.9497 C.3     1  UNL1        0.0162
      6 C         -29.0634   -2.8854   30.2665 C.3     1  UNL1        0.0575
      7 C         -27.8530   -3.7924   30.2177 C.3     1  UNL1        0.0160
      8 N         -30.1764   -3.4125   29.9956 N.3     1  UNL1       -0.2752
      9 F         -27.0559    0.2210   27.1012 F       1  UNL1       -0.1868
     10 F         -27.1704    1.3333   28.9399 F       1  UNL1       -0.1868
     11 C         -31.2549   -2.6788   30.0673 C.3     1  UNL1        0.0720
     12 C         -32.5075   -3.3160   29.5865 C.3     1  UNL1        0.0174
     13 C         -30.3451   -4.7573   29.5903 C.3     1  UNL1        0.0575
     14 C         -31.4487   -5.3890   29.0978 C.3     1  UNL1        0.0160
     15 C         -32.6044   -4.6455   29.2726 C.3     1  UNL1        0.0028
     16 C         -27.8186   -5.1070   29.8464 C.3     1  UNL1        0.0028
     17 C         -29.1298   -5.5628   29.4921 C.3     1  UNL1        0.0160
@<TRIPOS>BOND
     1     1     2    1
     2     2     3    1
     3     1     4    1
     4     4     5    1
     5     5     6    1
     6     6     7    1
     7     6     8    1
     8     2     9    1
     9     2    10    1
    10     8    11    1
    11     8    13    1
    12    12    15    1
    13    14    15    1
    14    13    17    1
    15    16    17    1
    16    11    12    1
    17    14    13    1
    18     7    16    1
