@<TRIPOS>MOLECULE
No_1387-gen_results/8p0m/2024-11-26-14-13-15/
 24 24 0 0 0
SMALL
GASTEIGER

@<TRIPOS>ATOM
      1 C         -28.0162   -0.8135   28.8779 C.2     1  UNL1        0.2495
      2 C         -27.0636   -0.1189   28.6079 C.ar    1  UNL1        0.0536
      3 C         -26.9287    1.1713   29.0083 C.ar    1  UNL1        0.0047
      4 C         -25.7702    2.0341   28.6884 C.ar    1  UNL1        0.0067
      5 C         -24.7141    1.4431   27.9188 C.ar    1  UNL1        0.0798
      6 C         -24.8590    0.0783   27.5836 C.ar    1  UNL1        0.0067
      7 C         -25.9647   -0.6606   27.9164 C.ar    1  UNL1        0.0047
      8 N         -27.9821   -1.6367   30.0748 N.am    1  UNL1       -0.2651
      9 O         -29.2163   -0.4132   28.6627 O.2     1  UNL1       -0.2699
     10 C         -26.7315   -2.0678   30.6432 C.3     1  UNL1        0.1157
     11 C         -29.1005   -2.4113   30.5218 C.3     1  UNL1        0.1944
     12 C         -23.5128    2.1515   27.5474 C.2     1  UNL1        0.3878
     13 O         -22.4892    1.8528   27.3586 O.co2   1  UNL1       -0.2406
     14 O         -23.8405    3.4733   27.2618 O.co2   1  UNL1       -0.2406
     15 C         -28.9924   -3.7699   30.4821 C.2     1  UNL1        0.3837
     16 O         -28.9295   -4.3887   29.5352 O.co2   1  UNL1       -0.2438
     17 O         -28.4657   -4.3378   31.6796 O.co2   1  UNL1       -0.2438
     18 C         -30.2235   -1.8288   31.0584 C.3     1  UNL1        0.1094
     19 CL        -30.2022   -0.4671   31.8392 Cl      1  UNL1       -0.1126
     20 C         -31.4623   -2.4366   30.8091 C.3     1  UNL1        0.0232
     21 C         -32.4187   -1.6796   30.3692 C.3     1  UNL1        0.0270
     22 C         -32.6954   -0.5271   30.8197 C.2     1  UNL1       -0.0307
     23 C         -31.9384    0.3680   31.2000 C.2     1  UNL1       -0.0304
     24 C         -32.1038    1.4819   31.2820 C.3     1  UNL1        0.0303
@<TRIPOS>BOND
     1     1     2    1
     2     1     8   am
     3     1     9    2
     4     8    10    1
     5     8    11    1
     6     5    12    1
     7    12    13   ar
     8    12    14   ar
     9    11    15    1
    10    15    16   ar
    11    15    17   ar
    12    11    18    1
    13    18    19    1
    14    18    20    1
    15    20    21    1
    16    21    22    1
    17    22    23    2
    18    23    24    1
    19     2     3   ar
    20     3     4   ar
    21     4     5   ar
    22     5     6   ar
    23     6     7   ar
    24     7     2   ar
