@<TRIPOS>MOLECULE
No_1388-gen_results/8p0m/2024-11-26-14-13-15/
 30 32 0 0 0
SMALL
GASTEIGER

@<TRIPOS>ATOM
      1 C         -28.0162   -0.8135   28.8779 C.ar    1  UNL1        0.0064
      2 C         -27.0636   -0.1190   28.6079 C.ar    1  UNL1        0.0002
      3 C         -25.7923   -0.4302   29.0761 C.ar    1  UNL1        0.0000
      4 C         -24.5456    0.3494   28.8225 C.ar    1  UNL1        0.0000
      5 C         -23.2409    0.0217   29.3323 C.ar    1  UNL1        0.0000
      6 C         -27.8820   -1.8995   29.8633 C.ar    1  UNL1        0.0758
      7 C         -26.6526   -2.3142   30.3138 C.ar    1  UNL1        0.0064
      8 C         -25.5153   -1.5607   29.9787 C.ar    1  UNL1        0.0002
      9 C         -22.1645    0.7936   28.9524 C.ar    1  UNL1        0.0000
     10 C         -22.1241    1.7484   27.9889 C.ar    1  UNL1        0.0000
     11 C         -24.6142    1.5956   28.0605 C.ar    1  UNL1        0.0000
     12 C         -23.3879    2.1737   27.5804 C.ar    1  UNL1        0.0000
     13 C         -29.0413   -2.7360   30.2914 C.2     1  UNL1        0.3447
     14 O         -28.9671   -3.9567   30.3951 O.2     1  UNL1       -0.2448
     15 O         -29.9747   -2.1406   30.9816 O.3     1  UNL1       -0.3968
     16 C         -31.0466   -2.4820   31.2404 C.3     1  UNL1        0.4127
     17 C         -31.3572   -2.9033   32.4175 C.3     1  UNL1        0.1138
     18 C         -30.7665   -2.1956   33.4363 C.3     1  UNL1        0.0133
     19 C         -30.0153   -2.8750   34.3004 C.3     1  UNL1        0.0006
     20 C         -29.9111   -4.1611   34.3921 C.3     1  UNL1        0.0000
     21 C         -30.6504   -4.9281   33.4238 C.3     1  UNL1        0.0006
     22 C         -31.1908   -4.2414   32.3493 C.3     1  UNL1        0.0127
     23 F         -31.8164   -1.2108   30.9899 F       1  UNL1       -0.1624
     24 F         -31.5997   -3.1018   30.1260 F       1  UNL1       -0.1624
     25 C         -32.8931   -2.8288   32.7794 C.2     1  UNL1       -0.0222
     26 C         -33.7089   -3.3198   32.0329 C.2     1  UNL1       -0.0304
     27 C         -33.5367   -4.1651   31.0015 C.3     1  UNL1        0.0257
     28 C         -31.8021   -5.0984   31.4134 C.3     1  UNL1        0.0006
     29 C         -32.1168   -6.3276   31.8353 C.3     1  UNL1        0.0000
     30 C         -34.1062   -4.8971   30.0285 C.3     1  UNL1        0.0050
@<TRIPOS>BOND
     1     3     4    1
     2     6    13    1
     3    13    14    2
     4    13    15    1
     5    15    16    1
     6    16    17    1
     7    17    18    1
     8    19    20    1
     9    17    22    1
    10    21    22    1
    11    16    23    1
    12    16    24    1
    13    17    25    1
    14    25    26    2
    15    26    27    1
    16    22    28    1
    17    28    29    1
    18    27    30    1
    19    18    19    1
    20    20    21    1
    21     1     2   ar
    22     2     3   ar
    23     3     8   ar
    24     8     7   ar
    25     7     6   ar
    26     6     1   ar
    27     4     5   ar
    28     5     9   ar
    29     9    10   ar
    30    10    12   ar
    31    12    11   ar
    32    11     4   ar
