@<TRIPOS>MOLECULE
No_1389-gen_results/8p0m/2024-11-26-14-13-15/
 14 15 0 0 0
SMALL
GASTEIGER

@<TRIPOS>ATOM
      1 C         -28.0162   -0.8135   28.8779 C.ar    1  UNL1        0.0114
      2 C         -27.0636   -0.1190   28.6079 C.ar    1  UNL1        0.0009
      3 C         -26.9287    1.1713   29.0083 C.ar    1  UNL1        0.0015
      4 C         -25.7702    2.0341   28.6884 C.ar    1  UNL1        0.0189
      5 C         -25.6189    3.3482   29.0918 C.ar    1  UNL1        0.0988
      6 C         -29.0712   -0.3338   29.7689 C.ar    1  UNL1        0.0577
      7 C         -28.9336    0.8185   30.1285 C.ar    1  UNL1        0.0114
      8 C         -27.8905    1.6898   29.8428 C.ar    1  UNL1        0.0009
      9 C         -24.7470    1.5584   27.7720 C.ar    1  UNL1       -0.0012
     10 C         -23.8425    2.0377   27.6161 C.ar    1  UNL1       -0.0027
     11 C         -22.6997    1.4249   26.8350 C.3     1  UNL1        0.0327
     12 N         -24.5866    4.1108   28.5459 N.ar    1  UNL1       -0.2426
     13 C         -23.6163    3.5413   27.8795 C.ar    1  UNL1        0.0946
     14 CL        -30.3996   -1.3868   30.1038 Cl      1  UNL1       -0.0822
@<TRIPOS>BOND
     1     3     4    1
     2    10    11    1
     3     6    14    1
     4     4     5   ar
     5     5    12   ar
     6    12    13   ar
     7    13    10   ar
     8    10     9   ar
     9     9     4   ar
    10     1     2   ar
    11     2     3   ar
    12     3     8   ar
    13     8     7   ar
    14     7     6   ar
    15     6     1   ar
