@<TRIPOS>MOLECULE
No_139-gen_results/8p0m/2024-11-26-14-13-15/
 15 16 0 0 0
SMALL
GASTEIGER

@<TRIPOS>ATOM
      1 C         -28.0162   -0.8135   28.8779 C.ar    1  UNL1        0.0544
      2 C         -27.0636   -0.1190   28.6079 C.ar    1  UNL1        0.0046
      3 C         -27.0010    0.6913   27.4910 C.ar    1  UNL1        0.0010
      4 C         -28.1373    0.7363   26.6350 C.ar    1  UNL1        0.0114
      5 C         -29.2360    0.0765   27.0690 C.ar    1  UNL1        0.0578
      6 C         -29.2177   -0.6429   28.1747 C.ar    1  UNL1        0.0159
      7 C         -28.0030   -1.6604   30.1266 C.2     1  UNL1        0.2496
      8 N         -28.6767   -1.7061   30.9981 N.am    1  UNL1       -0.2655
      9 O         -27.0163   -2.6160   30.0600 O.2     1  UNL1       -0.2699
     10 C         -28.6942   -2.7349   32.0749 C.3     1  UNL1        0.1503
     11 CL        -30.6379    0.1904   26.0951 Cl      1  UNL1       -0.0822
     12 C         -29.7814   -0.6694   31.1625 C.3     1  UNL1        0.1226
     13 C         -29.9457   -2.4654   32.9247 C.2     1  UNL1        0.1351
     14 C         -30.4141   -1.2605   32.3606 C.2     1  UNL1        0.0222
     15 F         -29.5010   -2.3140   34.1566 F       1  UNL1       -0.2074
@<TRIPOS>BOND
     1     1     7    1
     2     7     8   am
     3     7     9    2
     4     8    10    1
     5     5    11    1
     6     8    12    1
     7    10    13    1
     8    12    14    1
     9    13    14    2
    10    13    15    1
    11     1     2   ar
    12     2     3   ar
    13     3     4   ar
    14     4     5   ar
    15     5     6   ar
    16     6     1   ar
