@<TRIPOS>MOLECULE
No_1390-gen_results/8p0m/2024-11-26-14-13-15/
 14 15 0 0 0
SMALL
GASTEIGER

@<TRIPOS>ATOM
      1 C         -28.0162   -0.8135   28.8779 C.ar    1  UNL1        0.0032
      2 C         -28.4690   -0.7850   29.8287 C.ar    1  UNL1        0.0001
      3 C         -27.0871    0.2903   28.6377 C.ar    1  UNL1        0.0390
      4 C         -26.2516    0.4114   27.4223 C.2     1  UNL1        0.1955
      5 C         -28.3913    0.1041   30.9805 C.ar    1  UNL1        0.0000
      6 C         -27.5332    1.1666   30.7866 C.ar    1  UNL1        0.0001
      7 C         -26.8281    1.2557   29.6454 C.ar    1  UNL1        0.0032
      8 C         -25.1384    0.6748   27.2307 C.ar    1  UNL1        0.0390
      9 C         -24.1848    0.7014   28.3291 C.ar    1  UNL1        0.0032
     10 C         -22.8305    1.1539   28.0755 C.ar    1  UNL1        0.0001
     11 C         -22.5486    1.8851   26.9084 C.ar    1  UNL1        0.0000
     12 C         -23.4991    1.9677   25.9097 C.ar    1  UNL1        0.0001
     13 C         -24.7746    1.3990   26.0728 C.ar    1  UNL1        0.0032
     14 O         -26.9457   -0.0661   26.3073 O.2     1  UNL1       -0.2866
@<TRIPOS>BOND
     1     3     4    1
     2     4     8    1
     3     4    14    2
     4     8     9   ar
     5     9    10   ar
     6    10    11   ar
     7    11    12   ar
     8    12    13   ar
     9    13     8   ar
    10     1     2   ar
    11     2     5   ar
    12     5     6   ar
    13     6     7   ar
    14     7     3   ar
    15     3     1   ar
