@<TRIPOS>MOLECULE
No_1391-gen_results/8p0m/2024-11-26-14-13-15/
 35 39 0 0 0
SMALL
GASTEIGER

@<TRIPOS>ATOM
      1 C         -28.0162   -0.8135   28.8779 C.3     1  UNL1        0.0877
      2 BR        -28.5949   -0.9931   29.8894 Br      1  UNL1       -0.0790
      3 C         -27.1186    0.3928   28.8932 C.3     1  UNL1        0.0897
      4 C         -25.7966    0.1366   28.9881 C.ar    1  UNL1       -0.0072
      5 C         -25.2421   -0.0244   30.1267 C.ar    1  UNL1       -0.0028
      6 C         -23.7492   -0.2413   30.2736 C.ar    1  UNL1        0.0043
      7 C         -23.1081   -0.1236   29.3298 C.ar    1  UNL1        0.0566
      8 C         -23.5721    0.0953   28.0010 C.ar    1  UNL1        0.0043
      9 C         -24.9565    0.2084   27.8524 C.ar    1  UNL1       -0.0028
     10 C         -27.4334    1.2306   27.5956 C.3     1  UNL1        0.0242
     11 N         -27.5275    1.3074   29.9751 N.3     1  UNL1       -0.2058
     12 C         -27.8503    2.5261   29.8359 C.3     1  UNL1        0.1292
     13 C         -27.4931    0.5043   26.4069 C.3     1  UNL1        0.0277
     14 C         -27.9720    3.1323   28.5758 C.3     1  UNL1        0.0294
     15 C         -27.7142    2.5085   27.5267 C.3     1  UNL1        0.0086
     16 C         -28.6364    0.6728   25.5538 C.ar    1  UNL1       -0.0261
     17 C         -29.3398   -0.0111   25.2475 C.ar    1  UNL1       -0.0046
     18 C         -30.4868    0.2452   24.3031 C.ar    1  UNL1       -0.0003
     19 C         -30.5373    1.4894   23.7583 C.ar    1  UNL1       -0.0003
     20 C         -29.5938    2.4622   24.1350 C.ar    1  UNL1       -0.0046
     21 C         -28.5742    2.1465   25.0245 C.ar    1  UNL1       -0.0261
     22 C         -28.1235    3.0675   26.2014 C.3     1  UNL1        0.0262
     23 BR        -28.0365    3.6221   31.4046 Br      1  UNL1       -0.0624
     24 C         -21.5691   -0.3207   29.3644 C.2     1  UNL1        0.2842
     25 N         -20.8522    0.3874   28.6248 N.am    1  UNL1       -0.0837
     26 C         -31.5001    1.9134   22.7312 C.ar    1  UNL1       -0.0000
     27 C         -32.6883    1.2004   22.5187 C.ar    1  UNL1       -0.0000
     28 C         -31.4450    3.2382   22.1238 C.ar    1  UNL1       -0.0000
     29 C         -32.4660    3.5417   21.1602 C.ar    1  UNL1       -0.0000
     30 C         -33.6470    1.4772   21.6017 C.ar    1  UNL1       -0.0000
     31 C         -33.5288    2.7225   20.8837 C.ar    1  UNL1       -0.0003
     32 O         -21.1256   -1.1374   30.1904 O.2     1  UNL1       -0.2667
     33 C         -34.5529    3.0985   19.8800 C.2     1  UNL1       -0.0046
     34 C         -34.8603    4.1587   19.4503 C.2     1  UNL1       -0.0258
     35 C         -35.8565    4.4633   18.4495 C.3     1  UNL1        0.0307
@<TRIPOS>BOND
     1     1     2    1
     2     1     3    1
     3     3     4    1
     4     3    10    1
     5     3    11    1
     6    10    13    1
     7    12    14    1
     8    10    15    1
     9    13    16    1
    10    15    22    1
    11    21    22    1
    12    12    23    1
    13     7    24    1
    14    24    25   am
    15    19    26    1
    16    24    32    2
    17    31    33    1
    18    33    34    2
    19    34    35    1
    20    15    14    1
    21    12    11    1
    22     4     5   ar
    23     5     6   ar
    24     6     7   ar
    25     7     8   ar
    26     8     9   ar
    27     9     4   ar
    28    26    27   ar
    29    27    30   ar
    30    30    31   ar
    31    31    29   ar
    32    29    28   ar
    33    28    26   ar
    34    16    17   ar
    35    17    18   ar
    36    18    19   ar
    37    19    20   ar
    38    20    21   ar
    39    21    16   ar
