@<TRIPOS>MOLECULE
No_1393-gen_results/8p0m/2024-11-26-14-13-15/
 16 17 0 0 0
SMALL
GASTEIGER

@<TRIPOS>ATOM
      1 C         -28.0162   -0.8135   28.8779 C.ar    1  UNL1        0.0577
      2 C         -27.0636   -0.1190   28.6079 C.ar    1  UNL1        0.0108
      3 C         -27.0010    0.6913   27.4910 C.ar    1  UNL1        0.0074
      4 C         -28.1420    0.8282   26.7994 C.ar    1  UNL1        0.0798
      5 C         -29.2898   -0.4871   28.3661 C.ar    1  UNL1        0.0116
      6 C         -28.1796    1.6545   25.6431 C.2     1  UNL1        0.3878
      7 C         -29.2994    0.2379   27.2252 C.ar    1  UNL1        0.0074
      8 CL        -27.9608   -1.8202   30.3658 Cl      1  UNL1       -0.0822
      9 O         -27.2597    1.8901   24.9337 O.co2   1  UNL1       -0.2406
     10 O         -29.4202    1.8935   25.1133 O.co2   1  UNL1       -0.2406
     11 C         -25.6404   -0.3155   29.3214 C.ar    1  UNL1        0.0008
     12 C         -24.5900    0.1535   28.7837 C.ar    1  UNL1        0.0000
     13 C         -23.3562    0.1848   29.3335 C.ar    1  UNL1        0.0000
     14 C         -23.1965   -0.7336   30.4026 C.ar    1  UNL1        0.0000
     15 C         -24.2971   -1.2922   31.0617 C.ar    1  UNL1        0.0000
     16 C         -25.5307   -1.0887   30.4733 C.ar    1  UNL1        0.0000
@<TRIPOS>BOND
     1     4     6    1
     2     1     8    1
     3     6     9   ar
     4     6    10   ar
     5     2    11    1
     6    11    12   ar
     7    12    13   ar
     8    13    14   ar
     9    14    15   ar
    10    15    16   ar
    11    16    11   ar
    12     1     2   ar
    13     2     3   ar
    14     3     4   ar
    15     4     7   ar
    16     7     5   ar
    17     5     1   ar
