@<TRIPOS>MOLECULE
No_1395-gen_results/8p0m/2024-11-26-14-13-15/
 15 15 0 0 0
SMALL
GASTEIGER

@<TRIPOS>ATOM
      1 C         -28.0162   -0.8135   28.8779 C.3     1  UNL1        0.0940
      2 C         -28.4690   -0.7850   29.8287 C.3     1  UNL1        0.1129
      3 C         -28.1816    0.4277   28.1134 C.2     1  UNL1        0.2259
      4 O         -27.2060    0.7105   27.3893 O.2     1  UNL1       -0.2749
      5 N         -29.3068    1.0856   28.0074 N.am    1  UNL1       -0.2812
      6 C         -29.5131    2.1773   27.2282 C.3     1  UNL1        0.0754
      7 C         -29.9391   -0.6165   29.9164 C.3     1  UNL1        0.3983
      8 F         -30.3178   -0.6603   31.2489 F       1  UNL1       -0.1700
      9 F         -30.3985    0.5104   29.5577 F       1  UNL1       -0.1700
     10 F         -30.5398   -1.6581   29.3066 F       1  UNL1       -0.1700
     11 C         -30.0926    0.9016   26.9117 C.3     1  UNL1        0.0933
     12 C         -30.1345    1.2417   25.6676 C.3     1  UNL1        0.0216
     13 C         -30.0979    2.9641   28.2946 C.3     1  UNL1        0.0215
     14 C         -28.6642    2.8418   26.3639 C.3     1  UNL1        0.0199
     15 C         -29.3057    2.2667   25.2576 C.3     1  UNL1        0.0035
@<TRIPOS>BOND
     1     1     2    1
     2     1     3    1
     3     3     4    2
     4     3     5   am
     5     5     6    1
     6     2     7    1
     7     7     8    1
     8     7     9    1
     9     7    10    1
    10     5    11    1
    11     6    13    1
    12     6    14    1
    13    12    15    1
    14    14    15    1
    15    12    11    1
