@<TRIPOS>MOLECULE
No_1396-gen_results/8p0m/2024-11-26-14-13-15/
 32 35 0 0 0
SMALL
GASTEIGER

@<TRIPOS>ATOM
      1 C         -28.0162   -0.8135   28.8779 C.ar    1  UNL1        0.0375
      2 C         -27.0636   -0.1189   28.6079 C.ar    1  UNL1        0.0031
      3 C         -25.7923   -0.4302   29.0761 C.ar    1  UNL1        0.0002
      4 C         -24.5456    0.3494   28.8225 C.ar    1  UNL1        0.0000
      5 C         -23.2409    0.0217   29.3323 C.ar    1  UNL1        0.0000
      6 C         -27.8820   -1.8995   29.8633 C.ar    1  UNL1        0.1453
      7 C         -26.6526   -2.3142   30.3138 C.ar    1  UNL1        0.0375
      8 C         -25.5153   -1.5607   29.9787 C.ar    1  UNL1        0.0031
      9 C         -22.1588    0.7866   28.9507 C.ar    1  UNL1        0.0000
     10 C         -22.1309    1.7439   27.9818 C.ar    1  UNL1        0.0000
     11 C         -24.5165    1.3706   27.7930 C.ar    1  UNL1        0.0000
     12 C         -23.3378    2.0353   27.4273 C.ar    1  UNL1        0.0000
     13 O         -28.9664   -2.6590   30.2365 O.3     1  UNL1       -0.4535
     14 C         -30.1186   -2.0673   30.6076 C.ar    1  UNL1        0.1457
     15 C         -31.1791   -2.7102   30.1126 C.ar    1  UNL1        0.0421
     16 C         -32.4929   -2.1205   30.2343 C.ar    1  UNL1        0.0586
     17 C         -32.5720   -0.9246   31.0182 C.ar    1  UNL1        0.0114
     18 C         -31.4490   -0.3737   31.5413 C.ar    1  UNL1        0.0829
     19 C         -30.1724   -0.8994   31.3205 C.ar    1  UNL1        0.0441
     20 C         -31.5365    0.8904   32.3670 C.2     1  UNL1        0.3879
     21 O         -32.4257    1.3152   32.9061 O.co2   1  UNL1       -0.2406
     22 O         -30.2625    1.3011   32.7212 O.co2   1  UNL1       -0.2406
     23 C         -33.6407   -2.7777   29.7446 C.2     1  UNL1        0.2691
     24 O         -34.6216   -2.9633   30.0355 O.2     1  UNL1       -0.2680
     25 N         -33.2717   -3.5310   28.4791 N.am    1  UNL1       -0.1754
     26 C         -34.2176   -4.2444   27.7418 C.ar    1  UNL1        0.0745
     27 C         -34.4464   -4.2064   26.7044 C.ar    1  UNL1        0.0167
     28 C         -35.3508   -5.0657   25.8567 C.ar    1  UNL1        0.0022
     29 C         -36.0749   -6.0018   26.5970 C.ar    1  UNL1        0.0115
     30 C         -35.8649   -6.0461   27.9532 C.ar    1  UNL1        0.0590
     31 C         -34.9258   -5.2685   28.6318 C.ar    1  UNL1        0.0280
     32 CL        -36.7430   -7.2273   28.8283 Cl      1  UNL1       -0.0822
@<TRIPOS>BOND
     1     3     4    1
     2     6    13    1
     3    13    14    1
     4    18    20    1
     5    20    21   ar
     6    20    22   ar
     7    16    23    1
     8    23    24    2
     9    23    25   am
    10    25    26    1
    11    30    32    1
    12    26    27   ar
    13    27    28   ar
    14    28    29   ar
    15    29    30   ar
    16    30    31   ar
    17    31    26   ar
    18    14    15   ar
    19    15    16   ar
    20    16    17   ar
    21    17    18   ar
    22    18    19   ar
    23    19    14   ar
    24     1     2   ar
    25     2     3   ar
    26     3     8   ar
    27     8     7   ar
    28     7     6   ar
    29     6     1   ar
    30     4     5   ar
    31     5     9   ar
    32     9    10   ar
    33    10    12   ar
    34    12    11   ar
    35    11     4   ar
