@<TRIPOS>MOLECULE
No_1398-gen_results/8p0m/2024-11-26-14-13-15/
 10 10 0 0 0
SMALL
GASTEIGER

@<TRIPOS>ATOM
      1 CL        -28.1493   -0.8198   28.9079 Cl      1  UNL1       -0.0761
      2 C         -28.5324   -0.0471   29.7727 C.3     1  UNL1        0.2435
      3 F         -29.6682   -0.0995   30.1894 F       1  UNL1       -0.2190
      4 C         -27.6716    0.9796   30.3307 C.3     1  UNL1        0.0787
      5 C         -26.5007    1.1766   29.7530 C.ar    1  UNL1       -0.0181
      6 C         -25.6772    2.1624   29.8405 C.ar    1  UNL1       -0.0041
      7 C         -24.3096    2.2487   29.2370 C.ar    1  UNL1       -0.0003
      8 C         -23.9620    1.1659   28.4368 C.ar    1  UNL1       -0.0000
      9 C         -24.8069    0.1127   28.3326 C.ar    1  UNL1       -0.0003
     10 C         -25.9649    0.0859   28.9437 C.ar    1  UNL1       -0.0041
@<TRIPOS>BOND
     1     1     2    1
     2     2     3    1
     3     2     4    1
     4     4     5    1
     5     5     6   ar
     6     6     7   ar
     7     7     8   ar
     8     8     9   ar
     9     9    10   ar
    10    10     5   ar
