@<TRIPOS>MOLECULE
No_14-gen_results/8p0m/2024-11-26-14-13-15/
 6 5 0 0 0
SMALL
GASTEIGER

@<TRIPOS>ATOM
      1 C         -28.0162   -0.8135   28.8779 C.1     1  UNL1       -0.0138
      2 C         -27.0636   -0.1189   28.6079 C.1     1  UNL1       -0.0731
      3 C         -26.4071    0.8834   28.2425 C.3     1  UNL1        0.1026
      4 C         -25.0852    1.1714   28.3387 C.2     1  UNL1       -0.0167
      5 C         -24.1634    0.2267   28.7356 C.2     1  UNL1       -0.0293
      6 C         -24.7237   -1.0383   29.1430 C.3     1  UNL1        0.0304
@<TRIPOS>BOND
     1     1     2    3
     2     2     3    1
     3     3     4    1
     4     4     5    2
     5     5     6    1
