@<TRIPOS>MOLECULE
No_140-gen_results/8p0m/2024-11-26-14-13-15/
 22 25 0 0 0
SMALL
GASTEIGER

@<TRIPOS>ATOM
      1 O         -28.1229   -1.3353   28.4874 O.2     1  UNL1       -0.2699
      2 C         -27.0637   -0.8242   28.8687 C.2     1  UNL1        0.2488
      3 C         -26.4017   -0.0623   28.6224 C.ar    1  UNL1        0.0494
      4 N         -26.5721   -1.5844   30.1172 N.am    1  UNL1       -0.2740
      5 C         -26.6982    0.9644   27.6453 C.ar    1  UNL1        0.0001
      6 C         -27.5862    1.2950   27.2709 C.ar    1  UNL1       -0.0036
      7 C         -28.8244    0.9272   27.8593 C.ar    1  UNL1        0.0063
      8 C         -30.0425    1.6171   27.3884 C.ar    1  UNL1        0.0798
      9 C         -29.8642    2.4087   26.3012 C.ar    1  UNL1        0.0063
     10 C         -28.6897    2.8167   25.6633 C.ar    1  UNL1       -0.0037
     11 C         -27.5774    2.3764   26.1591 C.ar    1  UNL1       -0.0178
     12 C         -27.3537   -2.7268   30.4632 C.3     1  UNL1        0.1152
     13 C         -25.1675   -1.6968   30.1811 C.3     1  UNL1        0.0984
     14 C         -24.9234    0.0223   29.2097 C.ar    1  UNL1       -0.0161
     15 C         -24.0760    1.0839   28.7771 C.ar    1  UNL1       -0.0044
     16 C         -24.4485   -0.9206   30.0361 C.3     1  UNL1        0.0480
     17 C         -24.3450    1.9666   27.7763 C.ar    1  UNL1       -0.0043
     18 C         -25.5598    2.0831   27.3713 C.ar    1  UNL1       -0.0177
     19 C         -26.0968    2.9104   26.2749 C.3     1  UNL1        0.0526
     20 C         -31.3675    1.1563   27.7891 C.2     1  UNL1        0.3878
     21 O         -32.1416    0.6417   27.2861 O.co2   1  UNL1       -0.2406
     22 O         -31.3618    1.0640   29.2878 O.co2   1  UNL1       -0.2406
@<TRIPOS>BOND
     1     1     2    2
     2     2     3    1
     3     2     4   am
     4     4    12    1
     5     4    13    1
     6    13    16    1
     7    14    16    1
     8    11    19    1
     9    18    19    1
    10     8    20    1
    11    20    21   ar
    12    20    22   ar
    13     6     5    1
    14     3     5   ar
    15     5    18   ar
    16    18    17   ar
    17    17    15   ar
    18    15    14   ar
    19    14     3   ar
    20     6     7   ar
    21     7     8   ar
    22     8     9   ar
    23     9    10   ar
    24    10    11   ar
    25    11     6   ar
