@<TRIPOS>MOLECULE
No_1400-gen_results/8p0m/2024-11-26-14-13-15/
 18 20 0 0 0
SMALL
GASTEIGER

@<TRIPOS>ATOM
      1 C         -28.0162   -0.8135   28.8779 C.ar    1  UNL1        0.0066
      2 C         -28.4690   -0.7850   29.8287 C.ar    1  UNL1        0.0798
      3 C         -27.0871    0.2903   28.6377 C.ar    1  UNL1        0.0003
      4 C         -26.8317    1.2487   29.5869 C.ar    1  UNL1        0.0022
      5 C         -29.4442   -1.9481   30.1840 C.2     1  UNL1        0.3878
      6 C         -27.4956    1.1303   30.8222 C.ar    1  UNL1        0.0003
      7 C         -28.3376    0.0364   31.0331 C.ar    1  UNL1        0.0066
      8 O         -30.3927   -1.8339   29.8638 O.co2   1  UNL1       -0.2406
      9 O         -29.0284   -2.8219   31.1506 O.co2   1  UNL1       -0.2406
     10 C         -26.3027    0.6489   27.3885 C.ar    1  UNL1        0.0022
     11 C         -25.2135    1.1837   27.2956 C.ar    1  UNL1        0.0275
     12 C         -24.8973    2.0991   28.4265 C.ar    1  UNL1        0.1401
     13 C         -25.5937    2.0594   29.5763 C.ar    1  UNL1        0.0296
     14 F         -23.7900    2.8759   28.2111 F       1  UNL1       -0.2042
     15 C         -24.4673    1.3454   26.0607 C.ar    1  UNL1        0.0022
     16 C         -24.8094    0.6389   24.9194 C.ar    1  UNL1        0.0001
     17 C         -26.0717   -0.0333   25.0219 C.ar    1  UNL1        0.0000
     18 C         -26.7522   -0.2253   26.2159 C.ar    1  UNL1        0.0001
@<TRIPOS>BOND
     1     2     5    1
     2     5     8   ar
     3     5     9   ar
     4    12    14    1
     5     4    13   ar
     6    13    12   ar
     7    12    11   ar
     8    10     3   ar
     9    10    11   ar
    10    11    15   ar
    11    15    16   ar
    12    16    17   ar
    13    17    18   ar
    14    18    10   ar
    15     1     2   ar
    16     2     7   ar
    17     7     6   ar
    18     6     4   ar
    19     4     3   ar
    20     3     1   ar
