@<TRIPOS>MOLECULE
No_1401-gen_results/8p0m/2024-11-26-14-13-15/
 35 37 0 0 0
SMALL
GASTEIGER

@<TRIPOS>ATOM
      1 C         -28.0162   -0.8135   28.8779 C.2     1  UNL1        0.0806
      2 C         -27.0636   -0.1189   28.6079 C.2     1  UNL1       -0.0276
      3 C         -26.8756    1.1325   28.9134 C.3     1  UNL1        0.0253
      4 C         -25.6883    1.9515   28.5672 C.3     1  UNL1        0.0308
      5 C         -24.6394    1.2834   27.8753 C.3     1  UNL1        0.1054
      6 C         -24.8068   -0.0513   27.6040 C.3     1  UNL1        0.0157
      7 C         -25.9019   -0.7670   27.9511 C.3     1  UNL1        0.0239
      8 N         -28.7202   -0.6024   30.0461 N.am    1  UNL1       -0.1709
      9 C         -23.4559    1.9816   27.4642 C.2     1  UNL1        0.3644
     10 O         -22.7376    2.4945   28.0880 O.co2   1  UNL1       -0.2457
     11 O         -23.2857    1.9966   26.1056 O.co2   1  UNL1       -0.2457
     12 C         -29.8557   -1.2933   30.4918 C.2     1  UNL1        0.3247
     13 C         -30.4444   -0.9735   31.7216 C.2     1  UNL1        0.3247
     14 O         -30.0571   -2.4381   30.0868 O.2     1  UNL1       -0.2629
     15 O         -30.1284   -0.1124   32.4518 O.2     1  UNL1       -0.2629
     16 N         -31.6492   -1.7002   32.0532 N.am    1  UNL1       -0.1715
     17 C         -32.4572   -1.3275   33.2069 C.ar    1  UNL1        0.0738
     18 C         -33.4104   -2.0078   33.3566 C.ar    1  UNL1        0.0168
     19 C         -34.2340   -1.8459   34.4909 C.ar    1  UNL1        0.0079
     20 C         -33.9027   -0.7505   35.4001 C.ar    1  UNL1        0.0799
     21 C         -32.7792   -0.0103   35.1261 C.ar    1  UNL1        0.0079
     22 C         -31.9865   -0.2697   34.0645 C.ar    1  UNL1        0.0168
     23 C         -34.7748   -0.5185   36.5329 C.2     1  UNL1        0.3878
     24 O         -35.6753   -0.8644   36.8542 O.co2   1  UNL1       -0.2406
     25 O         -34.2715    0.6393   37.2583 O.co2   1  UNL1       -0.2406
     26 C         -25.5664    3.3834   28.9047 C.3     1  UNL1        0.0733
     27 N         -26.0871    4.2578   28.0550 N.3     1  UNL1       -0.2653
     28 C         -27.1222    5.0524   28.4313 C.3     1  UNL1        0.1366
     29 C         -25.5423    4.3939   26.7738 C.3     1  UNL1        0.0900
     30 C         -27.9150    5.5890   27.5789 C.3     1  UNL1        0.0272
     31 C         -27.3810    5.2987   29.8390 C.2     1  UNL1        0.2559
     32 O         -26.5653    5.0816   30.7270 O.2     1  UNL1       -0.2719
     33 N         -28.3302    6.1569   30.1618 N.am    1  UNL1       -0.2043
     34 C         -29.2462    6.6606   29.2542 C.3     1  UNL1        0.1152
     35 C         -29.0655    6.3711   27.9067 C.3     1  UNL1        0.0253
@<TRIPOS>BOND
     1     1     2    2
     2     2     3    1
     3     3     4    1
     4     4     5    1
     5     5     6    1
     6     2     7    1
     7     6     7    1
     8     1     8    1
     9     5     9    1
    10     9    10   ar
    11     9    11   ar
    12     8    12   am
    13    12    13    1
    14    12    14    2
    15    13    15    2
    16    13    16   am
    17    16    17    1
    18    20    23    1
    19    23    24   ar
    20    23    25   ar
    21     4    26    1
    22    26    27    1
    23    27    28    1
    24    27    29    1
    25    28    31    1
    26    31    32    2
    27    31    33   am
    28    30    35    1
    29    34    35    1
    30    28    30    1
    31    34    33    1
    32    17    18   ar
    33    18    19   ar
    34    19    20   ar
    35    20    21   ar
    36    21    22   ar
    37    22    17   ar
