@<TRIPOS>MOLECULE
No_1402-gen_results/8p0m/2024-11-26-14-13-15/
 12 13 0 0 0
SMALL
GASTEIGER

@<TRIPOS>ATOM
      1 C         -28.0162   -0.8135   28.8779 C.ar    1  UNL1       -0.0042
      2 C         -27.0636   -0.1189   28.6079 C.ar    1  UNL1       -0.0192
      3 C         -25.7923   -0.4302   29.0761 C.ar    1  UNL1        0.0335
      4 C         -25.5756   -1.5654   29.9363 C.ar    1  UNL1        0.0026
      5 C         -26.7354   -2.3004   30.2173 C.ar    1  UNL1        0.0001
      6 C         -27.9184   -1.9537   29.7629 C.ar    1  UNL1       -0.0003
      7 C         -26.8968    1.1016   27.7052 C.3     1  UNL1        0.0297
      8 C         -25.8554    1.5416   27.2307 C.3     1  UNL1        0.0480
      9 C         -24.5492    1.1632   27.8487 C.3     1  UNL1        0.2222
     10 C         -24.4993    0.1126   28.6990 C.2     1  UNL1        0.2050
     11 F         -23.4220    1.7856   27.4443 F       1  UNL1       -0.2289
     12 O         -23.2911   -0.2678   29.1556 O.2     1  UNL1       -0.2885
@<TRIPOS>BOND
     1     2     7    1
     2     8     9    1
     3     3    10    1
     4     9    10    1
     5     9    11    1
     6    10    12    2
     7     7     8    1
     8     1     2   ar
     9     2     3   ar
    10     3     4   ar
    11     4     5   ar
    12     5     6   ar
    13     6     1   ar
