@<TRIPOS>MOLECULE
No_1403-gen_results/8p0m/2024-11-26-14-13-15/
 29 31 0 0 0
SMALL
GASTEIGER

@<TRIPOS>ATOM
      1 C         -28.0162   -0.8135   28.8779 C.ar    1  UNL1        0.0035
      2 C         -28.4690   -0.7850   29.8287 C.ar    1  UNL1        0.0795
      3 C         -28.1960    0.3478   28.0550 C.ar    1  UNL1       -0.0070
      4 C         -29.0191    1.3501   28.3782 C.ar    1  UNL1        0.0540
      5 C         -29.6249    1.2683   29.6012 C.ar    1  UNL1        0.0113
      6 C         -29.3821    0.1816   30.4004 C.ar    1  UNL1        0.0074
      7 C         -27.4591    0.3787   26.7048 C.3     1  UNL1        0.0535
      8 C         -26.1346    0.3565   26.8185 C.ar    1  UNL1       -0.0178
      9 C         -25.2867    0.8953   25.8267 C.ar    1  UNL1       -0.0039
     10 C         -23.9038    0.9697   25.9673 C.ar    1  UNL1       -0.0003
     11 C         -23.2955    0.7039   27.2298 C.ar    1  UNL1       -0.0003
     12 C         -24.1359    0.1955   28.2683 C.ar    1  UNL1       -0.0043
     13 C         -25.4715    0.0820   28.0834 C.ar    1  UNL1       -0.0042
     14 C         -23.4558   -0.0394   29.5482 C.2     1  UNL1       -0.0222
     15 C         -22.4470    0.2788   29.8644 C.2     1  UNL1       -0.0046
     16 C         -24.3223   -0.8478   30.4909 C.3     1  UNL1        0.0264
     17 CL        -29.2588    2.6953   27.4194 Cl      1  UNL1       -0.0826
     18 C         -24.9575   -0.2371   31.5822 C.3     1  UNL1        0.0264
     19 C         -24.4360   -2.2263   30.2400 C.3     1  UNL1        0.0050
     20 C         -25.1191    1.1641   31.6351 C.ar    1  UNL1       -0.0222
     21 C         -25.8373    1.7995   32.6653 C.ar    1  UNL1       -0.0043
     22 C         -26.0842    3.2061   32.6764 C.ar    1  UNL1       -0.0003
     23 C         -25.5206    3.9810   31.6417 C.ar    1  UNL1       -0.0000
     24 C         -24.8343    3.3649   30.6215 C.ar    1  UNL1       -0.0003
     25 C         -24.6108    2.0169   30.6560 C.ar    1  UNL1       -0.0043
     26 C         -28.4727   -1.9457   30.9791 C.2     1  UNL1        0.3877
     27 O         -28.4504   -1.7887   32.0870 O.co2   1  UNL1       -0.2406
     28 O         -28.2156   -3.1609   30.3687 O.co2   1  UNL1       -0.2406
     29 C         -25.3862   -1.0370   32.6935 C.3     1  UNL1        0.0050
@<TRIPOS>BOND
     1     3     7    1
     2     7     8    1
     3    12    14    1
     4    14    15    2
     5    14    16    1
     6     4    17    1
     7    16    18    1
     8    16    19    1
     9    18    20    1
    10     2    26    1
    11    26    27   ar
    12    26    28   ar
    13    18    29    1
    14     1     2   ar
    15     2     6   ar
    16     6     5   ar
    17     5     4   ar
    18     4     3   ar
    19     3     1   ar
    20     8     9   ar
    21     9    10   ar
    22    10    11   ar
    23    11    12   ar
    24    12    13   ar
    25    13     8   ar
    26    20    21   ar
    27    21    22   ar
    28    22    23   ar
    29    23    24   ar
    30    24    25   ar
    31    25    20   ar
