@<TRIPOS>MOLECULE
No_1404-gen_results/8p0m/2024-11-26-14-13-15/
 9 9 0 0 0
SMALL
GASTEIGER

@<TRIPOS>ATOM
      1 C         -28.0162   -0.8135   28.8779 C.ar    1  UNL1       -0.0043
      2 C         -27.0636   -0.1190   28.6079 C.ar    1  UNL1       -0.0222
      3 C         -27.0010    0.6913   27.4910 C.3     1  UNL1        0.0264
      4 C         -25.8548    1.4825   27.0830 C.3     1  UNL1        0.0047
      5 C         -25.8227    2.3296   25.9941 C.3     1  UNL1        0.0004
      6 C         -27.9714   -1.6262   30.0894 C.ar    1  UNL1       -0.0003
      7 C         -26.7530   -1.7922   30.7728 C.ar    1  UNL1       -0.0000
      8 C         -25.6202   -1.1400   30.3553 C.ar    1  UNL1       -0.0003
      9 C         -25.7390   -0.2846   29.1985 C.ar    1  UNL1       -0.0043
@<TRIPOS>BOND
     1     3     4    1
     2     4     5    1
     3     3     2    1
     4     1     2   ar
     5     2     9   ar
     6     9     8   ar
     7     8     7   ar
     8     7     6   ar
     9     6     1   ar
