@<TRIPOS>MOLECULE
No_1405-gen_results/8p0m/2024-11-26-14-13-15/
 25 27 0 0 0
SMALL
GASTEIGER

@<TRIPOS>ATOM
      1 O         -28.1229   -1.3353   28.4874 O.2     1  UNL1       -0.2696
      2 C         -27.4806   -0.4044   28.7094 C.2     1  UNL1        0.2527
      3 C         -26.3804   -0.0867   27.9394 C.ar    1  UNL1        0.0539
      4 N         -27.8993    0.6459   29.6320 N.am    1  UNL1       -0.2548
      5 C         -26.3190    0.9178   27.1016 C.ar    1  UNL1        0.0045
      6 C         -25.1519   -0.8370   28.1792 C.ar    1  UNL1        0.0045
      7 C         -25.1266    1.1744   26.2946 C.ar    1  UNL1        0.0001
      8 C         -23.8823   -0.4760   27.5957 C.ar    1  UNL1        0.0001
      9 C         -23.9475    0.5684   26.6281 C.ar    1  UNL1        0.0000
     10 C         -29.0765    0.3913   30.4223 C.3     1  UNL1        0.1032
     11 C         -27.1034    1.7507   29.9171 C.ar    1  UNL1        0.0538
     12 C         -27.5727    2.8739   29.4590 C.ar    1  UNL1        0.0107
     13 C         -26.5992    3.8486   29.2979 C.ar    1  UNL1       -0.0206
     14 C         -25.2049    3.6441   29.6451 C.ar    1  UNL1       -0.0042
     15 C         -24.8036    2.3589   30.0245 C.ar    1  UNL1        0.0010
     16 C         -25.7750    1.3823   30.1960 C.ar    1  UNL1        0.0149
     17 C         -26.8610    5.2778   28.8191 C.3     1  UNL1        0.0311
     18 C         -28.9699    0.1009   31.6686 C.3     1  UNL1        0.0479
     19 C         -27.9905    0.4900   32.4258 C.ar    1  UNL1       -0.0244
     20 C         -27.5421    0.3565   33.4945 C.ar    1  UNL1       -0.0045
     21 C         -26.3775    0.9037   34.2247 C.ar    1  UNL1       -0.0003
     22 C         -25.5882    1.8083   33.4557 C.ar    1  UNL1       -0.0003
     23 C         -26.0851    2.3473   32.2759 C.ar    1  UNL1       -0.0046
     24 C         -27.3312    1.7843   31.8452 C.ar    1  UNL1       -0.0257
     25 C         -28.4764    2.9754   31.9495 C.3     1  UNL1        0.0307
@<TRIPOS>BOND
     1     1     2    2
     2     2     3    1
     3     2     4   am
     4     4    10    1
     5     4    11    1
     6    13    17    1
     7    10    18    1
     8    18    19    1
     9    24    25    1
    10    11    12   ar
    11    12    13   ar
    12    13    14   ar
    13    14    15   ar
    14    15    16   ar
    15    16    11   ar
    16    19    20   ar
    17    20    21   ar
    18    21    22   ar
    19    22    23   ar
    20    23    24   ar
    21    24    19   ar
    22     3     5   ar
    23     5     7   ar
    24     7     9   ar
    25     9     8   ar
    26     8     6   ar
    27     6     3   ar
