@<TRIPOS>MOLECULE
No_1407-gen_results/8p0m/2024-11-26-14-13-15/
 12 12 0 0 0
SMALL
GASTEIGER

@<TRIPOS>ATOM
      1 C         -28.0162   -0.8135   28.8779 C.2     1  UNL1       -0.0142
      2 C         -27.0636   -0.1190   28.6079 C.2     1  UNL1       -0.0470
      3 C         -26.8756    1.1325   28.9134 C.3     1  UNL1        0.0223
      4 C         -25.6883    1.9515   28.5672 C.3     1  UNL1        0.0156
      5 C         -24.6394    1.2834   27.8753 C.3     1  UNL1        0.1041
      6 C         -24.8068   -0.0513   27.6040 C.3     1  UNL1        0.0156
      7 C         -25.9019   -0.7670   27.9511 C.3     1  UNL1        0.0223
      8 C         -29.2158   -0.1185   29.1813 C.3     1  UNL1        0.1347
      9 N         -30.1606   -0.7081   29.8314 N.3     1  UNL1       -0.1262
     10 C         -23.4208    1.9744   27.5040 C.2     1  UNL1        0.3643
     11 O         -22.3307    1.6376   27.8118 O.co2   1  UNL1       -0.2457
     12 O         -23.5482    2.7584   26.3575 O.co2   1  UNL1       -0.2457
@<TRIPOS>BOND
     1     1     2    2
     2     2     3    1
     3     3     4    1
     4     4     5    1
     5     5     6    1
     6     2     7    1
     7     6     7    1
     8     1     8    1
     9     8     9    1
    10     5    10    1
    11    10    11   ar
    12    10    12   ar
