@<TRIPOS>MOLECULE
No_1409-gen_results/8p0m/2024-11-26-14-13-15/
 23 25 0 0 0
SMALL
GASTEIGER

@<TRIPOS>ATOM
      1 C         -28.0162   -0.8135   28.8779 C.ar    1  UNL1        0.0421
      2 C         -28.4690   -0.7850   29.8287 C.ar    1  UNL1        0.0569
      3 C         -26.5455   -0.8762   28.8500 C.ar    1  UNL1        0.1470
      4 C         -25.8041   -1.0324   30.0571 C.ar    1  UNL1        0.0423
      5 C         -26.5373   -1.0386   31.2171 C.ar    1  UNL1        0.0038
      6 C         -27.8929   -0.9601   31.1743 C.ar    1  UNL1        0.0047
      7 O         -25.8001   -0.8259   27.7108 O.3     1  UNL1       -0.4422
      8 C         -24.5257   -0.3180   27.8415 C.2     1  UNL1        0.2215
      9 C         -24.3971   -0.9843   30.0860 C.2     1  UNL1        0.0476
     10 C         -23.6959   -0.6545   28.8571 C.1     1  UNL1       -0.0606
     11 C         -30.0572   -0.7689   29.8962 C.2     1  UNL1        0.2529
     12 O         -30.7099   -1.7520   30.0363 O.2     1  UNL1       -0.2696
     13 N         -30.5881    0.4680   29.7481 N.am    1  UNL1       -0.2537
     14 C         -32.0080    0.6406   29.7018 C.3     1  UNL1        0.1032
     15 C         -29.8137    1.7137   29.6137 C.2     1  UNL1        0.0678
     16 C         -29.8469    2.4741   30.7785 C.2     1  UNL1        0.0158
     17 C         -30.9781    3.3885   30.7050 C.2     1  UNL1        0.0009
     18 C         -32.3066    2.7871   30.5692 C.2     1  UNL1        0.0509
     19 C         -32.6082    1.5090   30.5505 C.3     1  UNL1        0.0522
     20 C         -33.3700    3.8526   30.7220 C.3     1  UNL1        0.4150
     21 F         -34.3859    3.3219   30.9646 F       1  UNL1       -0.1662
     22 F         -33.4703    4.4828   29.5062 F       1  UNL1       -0.1662
     23 F         -33.0650    4.8122   31.6199 F       1  UNL1       -0.1662
@<TRIPOS>BOND
     1     3     7    1
     2     7     8    1
     3     4     9    1
     4     8    10    2
     5     9    10    2
     6     2    11    1
     7    11    12    2
     8    11    13   am
     9    13    14    1
    10    13    15    1
    11    15    16    2
    12    16    17    1
    13    17    18    2
    14    14    19    1
    15    18    19    1
    16    18    20    1
    17    20    21    1
    18    20    22    1
    19    20    23    1
    20     1     2   ar
    21     2     6   ar
    22     6     5   ar
    23     5     4   ar
    24     4     3   ar
    25     3     1   ar
