@<TRIPOS>MOLECULE
No_141-gen_results/8p0m/2024-11-26-14-13-15/
 18 19 0 0 0
SMALL
GASTEIGER

@<TRIPOS>ATOM
      1 C         -28.0162   -0.8135   28.8779 C.ar    1  UNL1        0.0046
      2 C         -27.0636   -0.1189   28.6079 C.ar    1  UNL1        0.0001
      3 C         -25.7647   -0.3897   29.0360 C.ar    1  UNL1        0.0000
      4 C         -24.5516    0.4058   28.7646 C.ar    1  UNL1        0.0000
      5 C         -23.2300    0.1178   29.2575 C.ar    1  UNL1        0.0000
      6 C         -22.1393    0.9427   28.9224 C.ar    1  UNL1        0.0000
      7 C         -27.8294   -1.9287   29.8545 C.ar    1  UNL1        0.0554
      8 C         -26.5882   -2.3272   30.2682 C.ar    1  UNL1        0.0046
      9 C         -25.4565   -1.5432   29.9146 C.ar    1  UNL1        0.0001
     10 C         -22.2302    1.9089   27.8723 C.ar    1  UNL1        0.0000
     11 C         -24.5538    1.4700   27.7617 C.ar    1  UNL1        0.0000
     12 C         -23.4471    2.1666   27.3764 C.ar    1  UNL1        0.0000
     13 C         -28.9807   -2.7737   30.2586 C.2     1  UNL1        0.2690
     14 N         -30.1412   -2.2904   30.2825 N.am    1  UNL1       -0.1745
     15 O         -28.7766   -3.9512   30.6842 O.2     1  UNL1       -0.2680
     16 C         -31.3340   -3.0666   30.6653 C.2     1  UNL1        0.0844
     17 C         -31.4519   -3.9316   31.2698 C.2     1  UNL1       -0.0079
     18 C         -30.3553   -4.3957   32.0318 C.3     1  UNL1        0.0321
@<TRIPOS>BOND
     1     3     4    1
     2     7    13    1
     3    13    14   am
     4    13    15    2
     5    14    16    1
     6    16    17    2
     7    17    18    1
     8     1     2   ar
     9     2     3   ar
    10     3     9   ar
    11     9     8   ar
    12     8     7   ar
    13     7     1   ar
    14     4     5   ar
    15     5     6   ar
    16     6    10   ar
    17    10    12   ar
    18    12    11   ar
    19    11     4   ar
