@<TRIPOS>MOLECULE
No_1410-gen_results/8p0m/2024-11-26-14-13-15/
 26 28 0 0 0
SMALL
GASTEIGER

@<TRIPOS>ATOM
      1 C         -28.0162   -0.8135   28.8779 C.ar    1  UNL1        0.0064
      2 C         -27.0636   -0.1189   28.6079 C.ar    1  UNL1        0.0002
      3 C         -25.7647   -0.3897   29.0360 C.ar    1  UNL1        0.0000
      4 C         -24.5516    0.4058   28.7646 C.ar    1  UNL1        0.0008
      5 C         -23.2300    0.1178   29.2575 C.ar    1  UNL1        0.0000
      6 C         -23.0942   -1.1309   29.8730 C.ar    1  UNL1        0.0000
      7 C         -27.7981   -1.9341   29.8560 C.ar    1  UNL1        0.0757
      8 C         -26.5420   -2.3269   30.2580 C.ar    1  UNL1        0.0064
      9 C         -25.4514   -1.5516   29.9079 C.ar    1  UNL1        0.0002
     10 C         -24.1562   -1.9097   30.2809 C.ar    1  UNL1        0.0000
     11 C         -24.6450    1.6582   27.9464 C.ar    1  UNL1        0.0106
     12 C         -24.8958    2.7559   28.5615 C.ar    1  UNL1        0.0576
     13 C         -25.1728    3.9344   27.8440 C.ar    1  UNL1        0.0114
     14 C         -24.4838    1.5571   26.5889 C.ar    1  UNL1        0.0008
     15 C         -24.6321    2.6940   25.7850 C.ar    1  UNL1        0.0001
     16 C         -24.8902    3.9231   26.4317 C.ar    1  UNL1        0.0009
     17 CL        -25.1519    2.9361   30.2805 Cl      1  UNL1       -0.0822
     18 C         -29.0108   -2.7529   30.2316 C.2     1  UNL1        0.3417
     19 O         -29.0751   -3.8154   30.4347 O.2     1  UNL1       -0.2449
     20 O         -29.9748   -2.0114   30.8113 O.3     1  UNL1       -0.4353
     21 C         -31.1941   -2.5539   31.0831 C.3     1  UNL1        0.2929
     22 C         -31.3160   -2.9444   32.3115 C.2     1  UNL1        0.2704
     23 O         -30.8667   -2.2664   33.2215 O.2     1  UNL1       -0.2708
     24 N         -31.8300   -4.2007   32.6257 N.am    1  UNL1       -0.2730
     25 C         -31.8811   -4.7736   34.0332 C.3     1  UNL1        0.1150
     26 C         -32.3713   -5.0397   31.6263 C.3     1  UNL1        0.1150
@<TRIPOS>BOND
     1     4    11    1
     2    12    17    1
     3     7    18    1
     4    18    19    2
     5    18    20    1
     6    20    21    1
     7    21    22    1
     8    22    23    2
     9    22    24   am
    10    24    25    1
    11    24    26    1
    12     1     2   ar
    13     2     3   ar
    14     9     8   ar
    15     8     7   ar
    16     7     1   ar
    17    11    12   ar
    18    12    13   ar
    19    13    16   ar
    20    16    15   ar
    21    15    14   ar
    22    14    11   ar
    23     3     4   ar
    24     4     5   ar
    25     5     6   ar
    26     6    10   ar
    27    10     9   ar
    28     9     3   ar
