@<TRIPOS>MOLECULE
No_1411-gen_results/8p0m/2024-11-26-14-13-15/
 31 33 0 0 0
SMALL
GASTEIGER

@<TRIPOS>ATOM
      1 C         -28.0162   -0.8135   28.8779 C.2     1  UNL1        0.2490
      2 C         -27.0636   -0.1189   28.6079 C.ar    1  UNL1        0.0536
      3 C         -25.7923   -0.4302   29.0761 C.ar    1  UNL1        0.0092
      4 C         -24.5456    0.3494   28.8225 C.ar    1  UNL1        0.0821
      5 C         -24.6586    1.4196   27.8878 C.ar    1  UNL1        0.0616
      6 C         -25.9471    1.6811   27.3792 C.ar    1  UNL1        0.0115
      7 C         -27.0439    0.9739   27.6871 C.ar    1  UNL1        0.0054
      8 N         -29.1882   -0.1472   29.0918 N.am    1  UNL1       -0.2755
      9 C         -29.6010    0.1627   30.3267 C.3     1  UNL1        0.0943
     10 C         -30.0469    0.0268   27.9837 C.3     1  UNL1        0.1049
     11 CL        -23.2727    2.3027   27.5708 Cl      1  UNL1       -0.0823
     12 C         -31.0336    0.9656   28.2075 C.3     1  UNL1        0.1232
     13 C         -31.6683    0.9003   29.3126 C.3     1  UNL1        0.0153
     14 C         -31.2642    0.2952   30.2694 C.3     1  UNL1        0.0286
     15 O         -27.9268   -1.9878   29.4271 O.2     1  UNL1       -0.2699
     16 C         -31.6145    1.4581   26.8645 C.2     1  UNL1        0.3660
     17 O         -32.3743    2.2434   26.8331 O.co2   1  UNL1       -0.2456
     18 O         -31.0671    1.0164   25.7709 O.co2   1  UNL1       -0.2456
     19 C         -23.2512   -0.0996   29.3349 C.3     1  UNL1        0.4194
     20 F         -22.3654    0.0017   28.6242 F       1  UNL1       -0.1658
     21 F         -23.4667   -1.3957   29.7795 F       1  UNL1       -0.1658
     22 F         -23.0995    0.5814   30.5632 F       1  UNL1       -0.1658
     23 C         -31.8444    0.0360   31.6494 C.3     1  UNL1        0.0459
     24 C         -31.6345    0.8381   32.6713 C.ar    1  UNL1       -0.0184
     25 C         -31.0469    1.9465   32.6067 C.ar    1  UNL1       -0.0040
     26 C         -30.8318    2.8323   33.7676 C.ar    1  UNL1       -0.0003
     27 C         -31.3542    2.3501   34.9401 C.ar    1  UNL1       -0.0000
     28 C         -31.9763    1.1815   35.0525 C.ar    1  UNL1       -0.0003
     29 C         -32.1192    0.3960   33.9118 C.ar    1  UNL1       -0.0040
     30 C         -32.7193   -1.0962   31.5088 C.2     1  UNL1       -0.0220
     31 C         -34.0095   -0.9531   31.4036 C.2     1  UNL1       -0.0046
@<TRIPOS>BOND
     1     1     2    1
     2     1     8   am
     3     8     9    1
     4     8    10    1
     5     5    11    1
     6    10    12    1
     7     9    14    1
     8    13    14    1
     9     1    15    2
    10    12    16    1
    11    16    17   ar
    12    16    18   ar
    13     4    19    1
    14    19    20    1
    15    19    21    1
    16    19    22    1
    17    14    23    1
    18    23    24    1
    19    23    30    1
    20    30    31    2
    21    13    12    1
    22     2     3   ar
    23     3     4   ar
    24     4     5   ar
    25     5     6   ar
    26     6     7   ar
    27     7     2   ar
    28    24    25   ar
    29    25    26   ar
    30    26    27   ar
    31    27    28   ar
    32    28    29   ar
    33    29    24   ar
