@<TRIPOS>MOLECULE
No_1412-gen_results/8p0m/2024-11-26-14-13-15/
 13 13 0 0 0
SMALL
GASTEIGER

@<TRIPOS>ATOM
      1 C         -28.0162   -0.8135   28.8779 C.ar    1  UNL1        0.0054
      2 C         -27.0636   -0.1189   28.6079 C.ar    1  UNL1        0.0115
      3 C         -25.7647   -0.3897   29.0360 C.ar    1  UNL1        0.0577
      4 C         -25.5296   -1.5302   29.9014 C.ar    1  UNL1        0.0115
      5 C         -26.6888   -2.2893   30.1810 C.ar    1  UNL1        0.0054
      6 C         -27.8727   -1.9508   29.7373 C.ar    1  UNL1        0.0554
      7 C         -28.8745   -2.9101   30.2504 C.2     1  UNL1        0.2690
      8 N         -30.0685   -2.5721   30.2695 N.am    1  UNL1       -0.1745
      9 O         -28.5572   -4.0895   30.5735 O.2     1  UNL1       -0.2680
     10 C         -31.1883   -3.4696   30.6402 C.2     1  UNL1        0.0844
     11 CL        -24.3709    0.5644   28.6148 Cl      1  UNL1       -0.0822
     12 C         -31.2278   -4.3441   31.2408 C.2     1  UNL1       -0.0079
     13 C         -30.0912   -4.7173   32.0147 C.3     1  UNL1        0.0321
@<TRIPOS>BOND
     1     6     7    1
     2     7     8   am
     3     7     9    2
     4     8    10    1
     5     3    11    1
     6    10    12    2
     7    12    13    1
     8     1     2   ar
     9     2     3   ar
    10     3     4   ar
    11     4     5   ar
    12     5     6   ar
    13     6     1   ar
