@<TRIPOS>MOLECULE
No_1414-gen_results/8p0m/2024-11-26-14-13-15/
 17 18 0 0 0
SMALL
GASTEIGER

@<TRIPOS>ATOM
      1 F         -28.0727   -1.2542   28.5316 F       1  UNL1       -0.2042
      2 C         -27.3591   -0.3792   28.7224 C.ar    1  UNL1        0.1401
      3 C         -27.7014    0.7608   29.1249 C.ar    1  UNL1        0.0297
      4 C         -25.9636   -0.4957   28.0855 C.ar    1  UNL1        0.0297
      5 C         -25.0471    0.6018   28.1686 C.ar    1  UNL1        0.0052
      6 C         -26.7768    1.9221   29.2014 C.ar    1  UNL1        0.0053
      7 C         -23.6844    0.4950   27.6841 C.ar    1  UNL1        0.0003
      8 C         -25.4872    1.8421   28.7244 C.ar    1  UNL1        0.0348
      9 C         -23.1369    1.6208   27.0810 C.ar    1  UNL1        0.0031
     10 C         -23.6789    2.9680   27.5655 C.ar    1  UNL1        0.0376
     11 C         -24.7585    3.0053   28.3365 C.ar    1  UNL1        0.1478
     12 O         -25.1677    4.2607   28.6774 O.3     1  UNL1       -0.4292
     13 C         -25.6072    4.5260   29.9203 C.2     1  UNL1        0.2878
     14 C         -24.9541    5.6347   30.5426 C.2     1  UNL1        0.0690
     15 C         -25.4114    5.9813   31.8945 C.2     1  UNL1        0.0056
     16 C         -26.4080    5.1668   32.4852 C.2     1  UNL1        0.0002
     17 F         -26.4549    3.9310   30.6471 F       1  UNL1       -0.1629
@<TRIPOS>BOND
     1     1     2    1
     2    11    12    1
     3    12    13    1
     4    13    14    2
     5    14    15    1
     6    15    16    2
     7    13    17    1
     8     5     7   ar
     9     7     9   ar
    10     9    10   ar
    11    10    11   ar
    12    11     8   ar
    13     2     3   ar
    14     3     6   ar
    15     6     8   ar
    16     8     5   ar
    17     5     4   ar
    18     4     2   ar
