@<TRIPOS>MOLECULE
No_1415-gen_results/8p0m/2024-11-26-14-13-15/
 6 6 0 0 0
SMALL
GASTEIGER

@<TRIPOS>ATOM
      1 C         -28.0162   -0.8135   28.8779 C.ar    1  UNL1        0.0000
      2 C         -28.4690   -0.7850   29.8287 C.ar    1  UNL1        0.0000
      3 C         -27.0871    0.2903   28.6377 C.ar    1  UNL1        0.0000
      4 C         -26.8090    1.2830   29.5417 C.ar    1  UNL1        0.0000
      5 C         -28.4304    0.0949   31.0233 C.ar    1  UNL1        0.0000
      6 C         -27.5308    1.1701   30.7974 C.ar    1  UNL1        0.0000
@<TRIPOS>BOND
     1     1     2   ar
     2     2     5   ar
     3     5     6   ar
     4     6     4   ar
     5     4     3   ar
     6     3     1   ar
