@<TRIPOS>MOLECULE
No_1416-gen_results/8p0m/2024-11-26-14-13-15/
 11 12 0 0 0
SMALL
GASTEIGER

@<TRIPOS>ATOM
      1 O         -28.1229   -1.3353   28.4874 O.2     1  UNL1       -0.2488
      2 C         -27.0637   -0.8242   28.8687 C.2     1  UNL1        0.3438
      3 N         -25.9773   -1.1378   28.8137 N.am    1  UNL1       -0.1612
      4 C         -24.7669   -0.3464   29.1634 C.ar    1  UNL1        0.0726
      5 N         -27.2068    0.5621   29.5563 N.am    1  UNL1       -0.1820
      6 C         -25.0468    0.8407   29.7359 C.ar    1  UNL1        0.0149
      7 C         -26.2843    1.2862   29.8834 C.3     1  UNL1        0.1445
      8 C         -23.4195   -0.8772   28.9871 C.ar    1  UNL1        0.0164
      9 C         -22.5003   -0.4183   29.2866 C.ar    1  UNL1        0.0013
     10 C         -22.5500    1.0420   29.7639 C.ar    1  UNL1       -0.0002
     11 C         -23.7659    1.5500   30.0865 C.ar    1  UNL1       -0.0013
@<TRIPOS>BOND
     1     1     2    2
     2     2     3   am
     3     3     4    1
     4     2     5   am
     5     6     7    1
     6     7     5    1
     7     4     8   ar
     8     8     9   ar
     9     9    10   ar
    10    10    11   ar
    11    11     6   ar
    12     6     4   ar
