@<TRIPOS>MOLECULE
No_1417-gen_results/8p0m/2024-11-26-14-13-15/
 22 25 0 0 0
SMALL
GASTEIGER

@<TRIPOS>ATOM
      1 C         -28.0162   -0.8135   28.8779 C.3     1  UNL1        0.1036
      2 C         -27.0636   -0.1189   28.6079 C.3     1  UNL1        0.0825
      3 C         -26.9716    0.7139   27.5060 C.2     1  UNL1        0.1742
      4 C         -25.8205    1.4909   27.1160 C.ar    1  UNL1        0.0354
      5 C         -24.8579    1.3421   27.6008 C.ar    1  UNL1        0.0203
      6 C         -23.5687    2.1107   27.3209 C.ar    1  UNL1        0.1443
      7 N         -23.7824    2.7538   26.1406 N.ar    1  UNL1       -0.2280
      8 C         -25.8619   -0.1480   29.5202 C.3     1  UNL1        0.0218
      9 C         -24.5977    0.6202   28.9602 C.3     1  UNL1        0.0850
     10 N         -22.3567    1.9601   27.8197 N.pl3   1  UNL1       -0.2125
     11 N         -27.9163   -1.4387   30.1272 N.am    1  UNL1       -0.2521
     12 C         -26.0176   -0.8701   30.6293 C.3     1  UNL1        0.0228
     13 C         -26.9575   -1.5752   30.9733 C.3     1  UNL1        0.0960
     14 C         -29.2527   -2.3012   30.4966 C.2     1  UNL1        0.3934
     15 O         -29.1400   -3.4820   30.6356 O.2     1  UNL1       -0.2360
     16 F         -30.2575   -1.7120   30.4929 F       1  UNL1       -0.1435
     17 C         -25.9044    2.2262   25.9104 C.ar    1  UNL1        0.0233
     18 C         -24.8205    2.9923   25.4853 C.ar    1  UNL1        0.1004
     19 O         -28.0845    0.7735   26.7658 O.2     1  UNL1       -0.2913
     20 C         -21.9333    1.0929   28.7313 C.3     1  UNL1        0.1781
     21 C         -23.3653    0.3770   29.6981 C.2     1  UNL1        0.1761
     22 O         -23.0391   -0.1432   30.6829 O.2     1  UNL1       -0.2939
@<TRIPOS>BOND
     1     2     3    1
     2     3     4    1
     3     2     8    1
     4     5     9    1
     5     8     9    1
     6     6    10    1
     7     1    11    1
     8     8    12    1
     9    11    13    1
    10    12    13    1
    11    11    14   am
    12    14    15    2
    13    14    16    1
    14     3    19    2
    15    10    20    1
    16     9    21    1
    17    20    21    1
    18    21    22    2
    19     1     2    1
    20     4     5   ar
    21     5     6   ar
    22     6     7   ar
    23     7    18   ar
    24    18    17   ar
    25    17     4   ar
