@<TRIPOS>MOLECULE
No_1418-gen_results/8p0m/2024-11-26-14-13-15/
 19 19 0 0 0
SMALL
GASTEIGER

@<TRIPOS>ATOM
      1 C         -28.0162   -0.8135   28.8779 C.3     1  UNL1        0.1201
      2 C         -27.0636   -0.1190   28.6079 C.ar    1  UNL1       -0.0046
      3 C         -25.7923   -0.4302   29.0761 C.ar    1  UNL1       -0.0031
      4 C         -24.5456    0.3494   28.8225 C.ar    1  UNL1       -0.0007
      5 C         -24.6586    1.4196   27.8878 C.ar    1  UNL1        0.0255
      6 C         -25.9471    1.6811   27.3792 C.ar    1  UNL1       -0.0007
      7 C         -27.0439    0.9739   27.6871 C.ar    1  UNL1       -0.0031
      8 N         -28.6567   -0.5529   30.0960 N.3     1  UNL1       -0.1591
      9 C         -29.5646   -0.5256   30.5354 C.3     1  UNL1        0.3228
     10 F         -30.5327   -0.8194   29.8127 F       1  UNL1       -0.1872
     11 O         -29.9586    0.6185   31.2210 O.3     1  UNL1       -0.1709
     12 C         -23.4709    2.1852   27.5878 C.3     1  UNL1        0.2619
     13 CL        -22.4815    1.7273   27.3123 Cl      1  UNL1       -0.0719
     14 F         -23.8639    3.4985   27.3885 F       1  UNL1       -0.2143
     15 C         -29.7141   -1.6680   31.7196 C.3     1  UNL1        0.0979
     16 C         -29.2004   -1.4867   32.8074 C.2     1  UNL1       -0.0197
     17 C         -30.2686   -2.9213   31.3328 C.3     1  UNL1        0.0112
     18 C         -29.6986   -4.0606   31.8270 C.3     1  UNL1        0.0006
     19 C         -28.9888   -2.5959   33.7691 C.2     1  UNL1       -0.0047
@<TRIPOS>BOND
     1     1     2    1
     2     1     8    1
     3     8     9    1
     4     9    10    1
     5     9    11    1
     6     5    12    1
     7    12    13    1
     8    12    14    1
     9     9    15    1
    10    15    16    1
    11    15    17    1
    12    17    18    1
    13    16    19    2
    14     2     3   ar
    15     3     4   ar
    16     4     5   ar
    17     5     6   ar
    18     6     7   ar
    19     7     2   ar
