@<TRIPOS>MOLECULE
No_1419-gen_results/8p0m/2024-11-26-14-13-15/
 16 17 0 0 0
SMALL
GASTEIGER

@<TRIPOS>ATOM
      1 C         -28.0162   -0.8135   28.8779 C.ar    1  UNL1        0.0056
      2 C         -27.0636   -0.1189   28.6079 C.ar    1  UNL1        0.0002
      3 C         -25.7647   -0.3897   29.0360 C.ar    1  UNL1        0.0001
      4 C         -24.5516    0.4058   28.7646 C.ar    1  UNL1        0.0032
      5 C         -24.6957    1.4480   27.7988 C.ar    1  UNL1        0.0420
      6 C         -23.5821    2.2166   27.4626 C.ar    1  UNL1        0.1957
      7 C         -22.3295    1.8428   27.9660 C.ar    1  UNL1        0.0420
      8 C         -22.1809    0.8284   28.8814 C.ar    1  UNL1        0.0033
      9 C         -23.3190    0.0774   29.2471 C.ar    1  UNL1        0.0002
     10 C         -27.9056   -1.8765   29.8669 C.ar    1  UNL1        0.0678
     11 C         -26.6648   -2.3322   30.2886 C.ar    1  UNL1        0.0056
     12 C         -25.5477   -1.5609   29.9180 C.ar    1  UNL1        0.0002
     13 C         -29.0812   -2.6967   30.2508 C.2     1  UNL1        0.3334
     14 O         -28.9860   -3.9005   30.3095 O.2     1  UNL1       -0.2541
     15 F         -30.1349   -2.1495   30.4938 F       1  UNL1       -0.1586
     16 O         -23.6877    3.1799   26.5439 O.3     1  UNL1       -0.2866
@<TRIPOS>BOND
     1     3     4    1
     2    10    13    1
     3    13    14    2
     4    13    15    1
     5     6    16    1
     6     1     2   ar
     7     2     3   ar
     8     3    12   ar
     9    12    11   ar
    10    11    10   ar
    11    10     1   ar
    12     4     5   ar
    13     5     6   ar
    14     6     7   ar
    15     7     8   ar
    16     8     9   ar
    17     9     4   ar
