@<TRIPOS>MOLECULE
No_1420-gen_results/8p0m/2024-11-26-14-13-15/
 15 16 0 0 0
SMALL
GASTEIGER

@<TRIPOS>ATOM
      1 C         -28.0162   -0.8135   28.8779 C.ar    1  UNL1       -0.0035
      2 C         -28.4690   -0.7850   29.8287 C.ar    1  UNL1       -0.0003
      3 C         -27.0871    0.2903   28.6377 C.ar    1  UNL1       -0.0110
      4 C         -26.2516    0.4114   27.4223 C.3     1  UNL1        0.1093
      5 C         -28.3913    0.1041   30.9805 C.ar    1  UNL1       -0.0000
      6 C         -27.5332    1.1666   30.7866 C.ar    1  UNL1       -0.0003
      7 C         -26.8281    1.2557   29.6454 C.ar    1  UNL1       -0.0035
      8 C         -24.9667    0.4105   27.5254 C.ar    1  UNL1       -0.0110
      9 C         -24.1553   -0.0217   28.5814 C.ar    1  UNL1       -0.0035
     10 C         -22.7568    0.1659   28.5745 C.ar    1  UNL1       -0.0003
     11 C         -22.1664    1.1278   27.7236 C.ar    1  UNL1       -0.0000
     12 C         -22.9588    1.7436   26.7304 C.ar    1  UNL1       -0.0003
     13 C         -24.3581    1.4338   26.6337 C.ar    1  UNL1       -0.0035
     14 C         -26.9178    0.1980   26.1874 C.2     1  UNL1        0.2157
     15 O         -26.6958   -0.4254   25.2265 O.2     1  UNL1       -0.2876
@<TRIPOS>BOND
     1     3     4    1
     2     4     8    1
     3     4    14    1
     4    14    15    2
     5     8     9   ar
     6     9    10   ar
     7    10    11   ar
     8    11    12   ar
     9    12    13   ar
    10    13     8   ar
    11     1     2   ar
    12     2     5   ar
    13     5     6   ar
    14     6     7   ar
    15     7     3   ar
    16     3     1   ar
