@<TRIPOS>MOLECULE
No_1421-gen_results/8p0m/2024-11-26-14-13-15/
 35 37 0 0 0
SMALL
GASTEIGER

@<TRIPOS>ATOM
      1 F         -28.0727   -1.2542   28.5316 F       1  UNL1       -0.2010
      2 C         -28.2662   -0.4214   29.1931 C.ar    1  UNL1        0.1738
      3 C         -29.4445    0.0759   29.3394 C.ar    1  UNL1        0.1663
      4 C         -29.7073    1.1743   30.2277 C.ar    1  UNL1        0.0437
      5 C         -28.5970    1.7109   30.9110 C.ar    1  UNL1        0.0567
      6 C         -27.3024    1.1821   30.7905 C.ar    1  UNL1        0.0071
      7 C         -27.1217    0.1218   29.9802 C.ar    1  UNL1        0.0336
      8 C         -25.7978   -0.4263   29.8450 C.ar    1  UNL1        0.0377
      9 C         -24.8351   -0.0775   30.0454 C.ar    1  UNL1        0.0145
     10 C         -23.4872   -0.6446   29.8454 C.ar    1  UNL1        0.0579
     11 C         -23.5689   -1.8860   29.1634 C.ar    1  UNL1        0.0145
     12 C         -24.7433   -2.4534   28.8407 C.ar    1  UNL1        0.0384
     13 C         -25.9034   -1.8258   29.1869 C.ar    1  UNL1        0.1455
     14 O         -26.9179   -2.5227   29.0331 O.3     1  UNL1       -0.4504
     15 C         -27.4977   -3.5994   29.5027 C.2     1  UNL1        0.1795
     16 O         -30.4530   -0.3994   28.6981 O.3     1  UNL1       -0.4645
     17 C         -31.7615    0.0365   28.8382 C.3     1  UNL1        0.3056
     18 C         -32.6650   -0.7832   28.2006 C.3     1  UNL1        0.4301
     19 O         -32.3895   -1.8185   27.6650 O.3     1  UNL1       -0.1518
     20 F         -33.8424   -0.9485   28.7449 F       1  UNL1       -0.1681
     21 F         -33.0342   -0.0725   26.9912 F       1  UNL1       -0.1681
     22 C         -28.7694    2.8702   31.8593 C.2     1  UNL1        0.2492
     23 O         -29.7290    3.3739   32.1180 O.2     1  UNL1       -0.2699
     24 N         -27.5358    3.4844   32.1812 N.am    1  UNL1       -0.2733
     25 C         -27.5538    4.6399   33.1251 C.3     1  UNL1        0.0965
     26 C         -26.2731    5.1614   33.2238 C.3     1  UNL1        0.0571
     27 C         -25.5563    5.5439   32.1140 C.3     1  UNL1        0.1856
     28 C         -25.6192    4.4921   31.0864 C.3     1  UNL1        0.2018
     29 C         -26.8690    3.8758   30.8850 C.3     1  UNL1        0.1291
     30 O         -24.6503    3.5173   31.3876 O.3     1  UNL1       -0.2186
     31 O         -24.1251    5.9179   32.3447 O.3     1  UNL1       -0.2203
     32 CL        -22.0165    0.0632   30.2059 Cl      1  UNL1       -0.0822
     33 C         -28.7409   -3.5109   30.3070 C.2     1  UNL1        0.0407
     34 C         -29.2453   -4.7255   30.8319 C.2     1  UNL1        0.0032
     35 C         -30.4827   -5.1050   30.2579 C.2     1  UNL1        0.0001
@<TRIPOS>BOND
     1     1     2    1
     2     7     8    1
     3    13    14    1
     4    14    15    1
     5     3    16    1
     6    16    17    1
     7    17    18    1
     8    18    19    1
     9    18    20    1
    10    18    21    1
    11     5    22    1
    12    22    23    2
    13    22    24   am
    14    24    25    1
    15    26    27    1
    16    27    28    1
    17    24    29    1
    18    28    29    1
    19    28    30    1
    20    27    31    1
    21    10    32    1
    22    15    33    2
    23    33    34    1
    24    34    35    2
    25    25    26    1
    26     2     3   ar
    27     3     4   ar
    28     4     5   ar
    29     5     6   ar
    30     6     7   ar
    31     7     2   ar
    32     8     9   ar
    33     9    10   ar
    34    10    11   ar
    35    11    12   ar
    36    12    13   ar
    37    13     8   ar
