@<TRIPOS>MOLECULE
No_1422-gen_results/8p0m/2024-11-26-14-13-15/
 13 13 0 0 0
SMALL
GASTEIGER

@<TRIPOS>ATOM
      1 C         -28.0162   -0.8135   28.8779 C.ar    1  UNL1        0.0236
      2 C         -27.0636   -0.1189   28.6079 C.ar    1  UNL1        0.0624
      3 C         -26.8756    1.1325   28.9134 C.ar    1  UNL1        0.0829
      4 C         -27.9014    1.8066   29.6436 C.ar    1  UNL1        0.0170
      5 C         -29.0458   -0.2316   29.7181 C.ar    1  UNL1        0.0690
      6 C         -28.9402    1.0517   30.0597 C.ar    1  UNL1        0.0682
      7 CL        -30.3294   -1.2509   30.1909 Cl      1  UNL1       -0.0813
      8 C         -25.6528    1.9343   28.4399 C.3     1  UNL1        0.4194
      9 F         -25.4029    3.0418   28.9726 F       1  UNL1       -0.1658
     10 F         -25.7610    2.1705   27.0803 F       1  UNL1       -0.1658
     11 F         -24.5329    1.1628   28.6062 F       1  UNL1       -0.1658
     12 CL        -30.1734    1.6651   31.0913 Cl      1  UNL1       -0.0814
     13 CL        -25.7350   -0.9175   27.5522 Cl      1  UNL1       -0.0823
@<TRIPOS>BOND
     1     5     7    1
     2     3     8    1
     3     8     9    1
     4     8    10    1
     5     8    11    1
     6     6    12    1
     7     2    13    1
     8     1     2   ar
     9     2     3   ar
    10     3     4   ar
    11     4     6   ar
    12     6     5   ar
    13     5     1   ar
