@<TRIPOS>MOLECULE
No_1423-gen_results/8p0m/2024-11-26-14-13-15/
 35 39 0 0 0
SMALL
GASTEIGER

@<TRIPOS>ATOM
      1 C         -28.0162   -0.8135   28.8779 C.ar    1  UNL1        0.0018
      2 C         -28.4690   -0.7850   29.8287 C.ar    1  UNL1        0.0562
      3 C         -26.5455   -0.8762   28.8500 C.ar    1  UNL1       -0.0059
      4 C         -25.8041   -1.0324   30.0571 C.ar    1  UNL1       -0.0029
      5 C         -27.9437   -0.9869   31.2075 C.ar    1  UNL1        0.0047
      6 C         -26.5825   -1.0386   31.2231 C.ar    1  UNL1       -0.0001
      7 C         -30.0606   -0.7371   29.9024 C.2     1  UNL1        0.2647
      8 O         -30.7252   -1.5544   30.2697 O.2     1  UNL1       -0.2666
      9 N         -30.5245    0.5663   29.6971 N.ar    1  UNL1       -0.2717
     10 C         -31.5427    0.9163   29.4436 C.ar    1  UNL1        0.0831
     11 C         -31.7055    2.1881   29.1589 C.ar    1  UNL1        0.0221
     12 C         -30.4935    2.8667   29.1320 C.ar    1  UNL1        0.0368
     13 C         -29.5636    1.7273   29.4932 C.ar    1  UNL1        0.0845
     14 C         -25.6976   -0.7645   27.6033 C.3     1  UNL1        0.1004
     15 N         -25.2990    0.4849   27.2877 N.3     1  UNL1       -0.2532
     16 C         -25.5977    1.0025   26.1029 C.3     1  UNL1        0.1520
     17 C         -24.5113    1.3232   28.1072 C.3     1  UNL1        0.0739
     18 C         -23.9888    2.4585   27.6324 C.3     1  UNL1        0.0175
     19 C         -25.1765    2.1758   25.6121 C.3     1  UNL1        0.0384
     20 C         -24.2745    2.9344   26.4088 C.3     1  UNL1        0.0046
     21 N         -26.3965    0.2989   25.3039 N.pl3   1  UNL1       -0.2229
     22 C         -27.5496    0.7446   24.7590 C.ar    1  UNL1        0.0668
     23 C         -28.4782   -0.1104   24.1480 C.ar    1  UNL1        0.0159
     24 C         -29.6261   -0.2666   24.7632 C.ar    1  UNL1       -0.0015
     25 C         -30.2729    0.8031   25.5393 C.ar    1  UNL1       -0.0031
     26 C         -29.3422    1.7889   26.0179 C.ar    1  UNL1       -0.0015
     27 C         -27.9621    1.7194   25.7764 C.ar    1  UNL1        0.0159
     28 C         -30.0591    4.1797   28.9896 C.ar    1  UNL1        0.0828
     29 N         -30.4928    4.8223   27.9361 N.ar    1  UNL1       -0.2438
     30 C         -29.9832    6.1022   27.6889 C.ar    1  UNL1        0.0988
     31 C         -28.5908    4.4582   29.2362 C.ar    1  UNL1        0.0192
     32 C         -28.1079    5.8060   29.0615 C.ar    1  UNL1        0.0031
     33 C         -28.8233    6.5031   28.4217 C.ar    1  UNL1        0.0207
     34 C         -31.6262    0.7273   25.9177 C.3     1  UNL1        0.1356
     35 N         -32.2067   -0.4053   26.2565 N.3     1  UNL1       -0.1262
@<TRIPOS>BOND
     1     2     7    1
     2     7     8    2
     3     7     9   am
     4     9    10   ar
     5    10    11   ar
     6    11    12   ar
     7     9    13   ar
     8    12    13   ar
     9     3    14    1
    10    14    15    1
    11    15    16    1
    12    15    17    1
    13    18    20    1
    14    19    20    1
    15    16    21    1
    16    21    22    1
    17    12    28    1
    18    25    34    1
    19    34    35    1
    20    16    19    1
    21    18    17    1
    22    28    29   ar
    23    29    30   ar
    24    30    33   ar
    25    33    32   ar
    26    32    31   ar
    27    31    28   ar
    28    22    23   ar
    29    23    24   ar
    30    24    25   ar
    31    25    26   ar
    32    26    27   ar
    33    27    22   ar
    34     1     2   ar
    35     2     5   ar
    36     5     6   ar
    37     6     4   ar
    38     4     3   ar
    39     3     1   ar
