@<TRIPOS>MOLECULE
No_1424-gen_results/8p0m/2024-11-26-14-13-15/
 22 23 0 0 0
SMALL
GASTEIGER

@<TRIPOS>ATOM
      1 C         -28.0162   -0.8135   28.8779 C.ar    1  UNL1        0.0441
      2 C         -27.0636   -0.1190   28.6079 C.ar    1  UNL1        0.1456
      3 C         -25.7923   -0.4302   29.0761 C.ar    1  UNL1        0.0346
      4 C         -24.5456    0.3494   28.8225 C.ar    1  UNL1        0.0034
      5 C         -23.2409    0.0217   29.3323 C.ar    1  UNL1        0.0001
      6 C         -27.8820   -1.8995   29.8633 C.ar    1  UNL1        0.0828
      7 C         -26.6706   -2.3272   30.3212 C.ar    1  UNL1        0.0068
      8 C         -25.5433   -1.5852   29.9316 C.ar    1  UNL1        0.0032
      9 C         -22.1918    0.8302   29.0004 C.ar    1  UNL1        0.0005
     10 C         -22.1472    1.7783   28.0287 C.ar    1  UNL1        0.0067
     11 C         -24.5322    1.3987   27.8163 C.ar    1  UNL1        0.0068
     12 C         -23.3620    2.0694   27.4607 C.ar    1  UNL1        0.0346
     13 C         -29.0617   -2.7252   30.3001 C.2     1  UNL1        0.3879
     14 O         -30.1204   -2.3569   30.1508 O.co2   1  UNL1       -0.2406
     15 O         -28.7765   -3.8428   30.9290 O.co2   1  UNL1       -0.2406
     16 BR        -23.5394    3.3870   26.0991 Br      1  UNL1       -0.0490
     17 O         -27.1540    0.8677   27.7233 O.3     1  UNL1       -0.4504
     18 C         -27.8000    1.9850   28.2005 C.2     1  UNL1        0.1795
     19 C         -28.0645    2.8907   27.1613 C.2     1  UNL1        0.0403
     20 C         -27.8980    2.5868   25.9202 C.2     1  UNL1       -0.0013
     21 C         -28.4441    3.3630   24.8403 C.2     1  UNL1       -0.0257
     22 C         -29.1195    4.5697   25.1999 C.3     1  UNL1        0.0307
@<TRIPOS>BOND
     1     3     4    1
     2     6    13    1
     3    13    14   ar
     4    13    15   ar
     5    12    16    1
     6     2    17    1
     7    17    18    1
     8    18    19    2
     9    19    20    1
    10    20    21    2
    11    21    22    1
    12     1     2   ar
    13     2     3   ar
    14     3     8   ar
    15     8     7   ar
    16     7     6   ar
    17     6     1   ar
    18     4     5   ar
    19     5     9   ar
    20     9    10   ar
    21    10    12   ar
    22    12    11   ar
    23    11     4   ar
