@<TRIPOS>MOLECULE
No_1425-gen_results/8p0m/2024-11-26-14-13-15/
 19 19 0 0 0
SMALL
GASTEIGER

@<TRIPOS>ATOM
      1 N         -28.0544   -1.0498   28.7246 N.1     1  UNL1       -0.1955
      2 C         -27.7460   -0.0733   29.0098 C.1     1  UNL1        0.0776
      3 C         -27.1071    0.7906   29.1050 C.3     1  UNL1        0.1279
      4 C         -26.1327    1.7993   29.1277 C.2     1  UNL1       -0.0209
      5 C         -25.1090    2.2087   28.6384 C.2     1  UNL1        0.0430
      6 C         -23.8674    1.6184   28.9024 C.2     1  UNL1       -0.0050
      7 C         -23.2113    0.9203   28.1670 C.2     1  UNL1       -0.0435
      8 C         -21.8972    0.3621   28.5337 C.3     1  UNL1        0.0264
      9 C         -24.0982    0.0771   27.4639 C.3     1  UNL1        0.0264
     10 C         -26.6464    2.8425   30.2994 C.3     1  UNL1        0.0495
     11 C         -25.1096    3.2175   27.5666 C.2     1  UNL1        0.2530
     12 C         -26.0775    2.7641   31.3924 C.ar    1  UNL1       -0.0181
     13 C         -26.4259    3.6896   32.4980 C.ar    1  UNL1       -0.0039
     14 C         -26.0161    3.5412   33.7864 C.ar    1  UNL1       -0.0003
     15 C         -25.7508    2.2083   34.1001 C.ar    1  UNL1       -0.0000
     16 C         -25.5707    1.1927   33.1689 C.ar    1  UNL1       -0.0003
     17 C         -25.7672    1.4195   31.8663 C.ar    1  UNL1       -0.0039
     18 CL        -26.0440    3.7358   26.9213 Cl      1  UNL1       -0.0383
     19 O         -23.8158    3.6763   27.3235 O.2     1  UNL1       -0.2740
@<TRIPOS>BOND
     1     1     2    3
     2     2     3    1
     3     3     4    1
     4     4     5    2
     5     5     6    1
     6     6     7    2
     7     7     8    1
     8     7     9    1
     9     4    10    1
    10     5    11    1
    11    11    18    1
    12    11    19    2
    13    10    12    1
    14    12    13   ar
    15    13    14   ar
    16    14    15   ar
    17    15    16   ar
    18    16    17   ar
    19    17    12   ar
