@<TRIPOS>MOLECULE
No_1426-gen_results/8p0m/2024-11-26-14-13-15/
 13 14 0 0 0
SMALL
GASTEIGER

@<TRIPOS>ATOM
      1 C         -28.0162   -0.8135   28.8779 C.ar    1  UNL1        0.0000
      2 C         -27.0636   -0.1189   28.6079 C.ar    1  UNL1        0.0000
      3 C         -26.9716    0.7139   27.5060 C.ar    1  UNL1        0.0005
      4 C         -25.8205    1.4910   27.1160 C.ar    1  UNL1        0.0067
      5 C         -24.6562    1.4242   27.9180 C.ar    1  UNL1        0.0346
      6 C         -24.7114    0.5419   29.0507 C.ar    1  UNL1        0.0067
      7 C         -25.8042   -0.2058   29.3881 C.ar    1  UNL1        0.0005
      8 C         -28.0309   -1.5903   30.1490 C.ar    1  UNL1        0.0000
      9 C         -29.1708   -2.3553   30.5109 C.ar    1  UNL1        0.0000
     10 C         -30.3323   -2.0549   29.8878 C.ar    1  UNL1        0.0000
     11 C         -30.4069   -1.1185   28.9181 C.ar    1  UNL1        0.0000
     12 C         -29.3110   -0.4750   28.5038 C.ar    1  UNL1        0.0000
     13 BR        -23.1346    2.3873   27.4961 Br      1  UNL1       -0.0490
@<TRIPOS>BOND
     1     5    13    1
     2     1     2    1
     3     2     3   ar
     4     3     4   ar
     5     4     5   ar
     6     5     6   ar
     7     6     7   ar
     8     7     2   ar
     9     1     8   ar
    10     8     9   ar
    11     9    10   ar
    12    10    11   ar
    13    11    12   ar
    14    12     1   ar
