@<TRIPOS>MOLECULE
No_1428-gen_results/8p0m/2024-11-26-14-13-15/
 16 16 0 0 0
SMALL
GASTEIGER

@<TRIPOS>ATOM
      1 C         -28.0162   -0.8135   28.8779 C.ar    1  UNL1        0.0033
      2 C         -27.0636   -0.1190   28.6079 C.ar    1  UNL1        0.0369
      3 C         -26.9716    0.7139   27.5060 C.ar    1  UNL1        0.1387
      4 C         -28.1053    0.7744   26.6421 C.ar    1  UNL1        0.0435
      5 C         -29.2041    0.1179   27.0477 C.ar    1  UNL1        0.0828
      6 C         -29.2127   -0.6088   28.1281 C.ar    1  UNL1        0.0068
      7 O         -25.9805    1.5620   27.0835 O.3     1  UNL1       -0.4761
      8 C         -24.8273    1.6630   27.9729 C.3     1  UNL1        0.2030
      9 C         -24.0726    2.8456   27.8837 C.3     1  UNL1        0.2256
     10 C         -23.8170    0.4795   27.8008 C.3     1  UNL1        0.0723
     11 C         -30.4185    0.1875   26.1841 C.2     1  UNL1        0.3879
     12 O         -31.2125   -0.5983   25.9526 O.co2   1  UNL1       -0.2406
     13 O         -30.7937    1.4064   25.7299 O.co2   1  UNL1       -0.2406
     14 C         -22.9788    0.2336   28.9824 C.2     1  UNL1       -0.0223
     15 C         -22.3646   -0.9871   29.0028 C.2     1  UNL1       -0.0048
     16 O         -23.9363    3.3828   26.8815 O.3     1  UNL1       -0.2164
@<TRIPOS>BOND
     1     3     7    1
     2     7     8    1
     3     8     9    1
     4     8    10    1
     5     5    11    1
     6    11    12   ar
     7    11    13   ar
     8    10    14    1
     9    14    15    2
    10     9    16    1
    11     1     2   ar
    12     2     3   ar
    13     3     4   ar
    14     4     5   ar
    15     5     6   ar
    16     6     1   ar
