@<TRIPOS>MOLECULE
No_143-gen_results/8p0m/2024-11-26-14-13-15/
 35 39 0 0 0
SMALL
GASTEIGER

@<TRIPOS>ATOM
      1 C         -28.0162   -0.8135   28.8779 C.ar    1  UNL1       -0.0034
      2 C         -27.0636   -0.1189   28.6079 C.ar    1  UNL1       -0.0069
      3 C         -25.7923   -0.4302   29.0761 C.ar    1  UNL1       -0.0034
      4 C         -25.5756   -1.5654   29.9363 C.ar    1  UNL1       -0.0003
      5 C         -26.7354   -2.3004   30.2173 C.ar    1  UNL1       -0.0000
      6 C         -27.9184   -1.9537   29.7629 C.ar    1  UNL1       -0.0003
      7 C         -27.3243    1.0850   27.8190 C.3     1  UNL1        0.1497
      8 C         -27.7260    1.0711   26.6257 C.ar    1  UNL1       -0.0069
      9 C         -28.1358   -0.2429   26.1032 C.ar    1  UNL1       -0.0034
     10 C         -28.6403   -0.1923   24.7225 C.ar    1  UNL1       -0.0003
     11 C         -28.7598    1.0162   24.0667 C.ar    1  UNL1       -0.0000
     12 C         -28.3949    2.2410   24.5740 C.ar    1  UNL1       -0.0003
     13 C         -27.8907    2.2909   25.8542 C.ar    1  UNL1       -0.0034
     14 C         -26.7494    2.3421   28.4454 C.2     1  UNL1        0.3028
     15 N         -27.3427    3.1562   28.7604 N.pl3   1  UNL1       -0.1846
     16 C         -26.8288    4.3239   29.3009 C.3     1  UNL1        0.3166
     17 N         -25.3809    2.5153   28.4533 N.2     1  UNL1       -0.0638
     18 C         -25.1478    3.7351   28.9254 C.3     1  UNL1        0.3208
     19 C         -27.0287    5.5458   29.7605 C.2     1  UNL1        0.4114
     20 O         -27.6739    5.6848   30.6660 O.co2   1  UNL1       -0.2410
     21 O         -26.7711    6.5420   28.8260 O.co2   1  UNL1       -0.2410
     22 C         -28.8721    3.2457   28.8741 C.3     1  UNL1        0.1790
     23 C         -29.4846    2.5981   29.9157 C.2     1  UNL1       -0.0023
     24 C         -29.1747    2.8394   31.1860 C.2     1  UNL1       -0.0047
     25 C         -29.5882    2.1349   32.2478 C.ar    1  UNL1       -0.0005
     26 C         -29.0567    2.2385   33.5735 C.ar    1  UNL1       -0.0000
     27 C         -29.4024    1.3956   34.6374 C.ar    1  UNL1       -0.0000
     28 C         -30.3192    0.3617   34.3330 C.ar    1  UNL1       -0.0000
     29 C         -30.8107    0.1910   33.0760 C.ar    1  UNL1       -0.0000
     30 C         -30.4091    0.9874   32.0584 C.ar    1  UNL1       -0.0000
     31 C         -31.0363    2.6976   29.7846 C.3     1  UNL1        0.0260
     32 C         -31.3512    3.3385   28.6227 C.3     1  UNL1        0.0081
     33 C         -29.8086    3.1908   27.7109 C.3     1  UNL1        0.0513
     34 C         -32.4007    2.7847   27.7181 C.3     1  UNL1        0.0005
     35 C         -31.5131    4.8621   28.7795 C.3     1  UNL1        0.0005
@<TRIPOS>BOND
     1     2     7    1
     2     7    14    1
     3    14    15    1
     4    15    16    1
     5    14    17    2
     6    16    18    1
     7    17    18    1
     8    16    19    1
     9    19    20   ar
    10    19    21   ar
    11    15    22    1
    12    22    23    1
    13    23    24    2
    14    24    25    1
    15    23    31    1
    16    31    32    1
    17    22    33    1
    18    32    33    1
    19    32    34    1
    20    32    35    1
    21     7     8    1
    22     1     2   ar
    23     2     3   ar
    24     3     4   ar
    25     4     5   ar
    26     5     6   ar
    27     6     1   ar
    28    25    26   ar
    29    26    27   ar
    30    27    28   ar
    31    28    29   ar
    32    29    30   ar
    33    30    25   ar
    34     8     9   ar
    35     9    10   ar
    36    10    11   ar
    37    11    12   ar
    38    12    13   ar
    39    13     8   ar
