@<TRIPOS>MOLECULE
No_1430-gen_results/8p0m/2024-11-26-14-13-15/
 12 13 0 0 0
SMALL
GASTEIGER

@<TRIPOS>ATOM
      1 C         -28.0162   -0.8135   28.8779 C.ar    1  UNL1        0.0145
      2 C         -27.0636   -0.1189   28.6079 C.ar    1  UNL1        0.0478
      3 C         -25.7923   -0.4302   29.0761 C.ar    1  UNL1        0.0145
      4 C         -25.5756   -1.5654   29.9363 C.ar    1  UNL1        0.0013
      5 C         -26.7354   -2.3004   30.2173 C.ar    1  UNL1        0.0001
      6 C         -27.9184   -1.9537   29.7629 C.ar    1  UNL1        0.0013
      7 N         -27.1059    1.0338   27.8185 N.pl3   1  UNL1       -0.3075
      8 C         -26.2610    1.3293   26.9037 C.3     1  UNL1        0.0908
      9 C         -28.2389    1.8929   27.8972 C.3     1  UNL1        0.0908
     10 C         -26.2416    2.1196   26.0490 C.3     1  UNL1        0.0215
     11 C         -28.3634    2.9221   26.9363 C.3     1  UNL1        0.0215
     12 C         -27.3641    3.1134   26.0344 C.3     1  UNL1        0.0035
@<TRIPOS>BOND
     1     2     7    1
     2     7     8    1
     3     7     9    1
     4    10    12    1
     5    11    12    1
     6     8    10    1
     7    11     9    1
     8     1     2   ar
     9     2     3   ar
    10     3     4   ar
    11     4     5   ar
    12     5     6   ar
    13     6     1   ar
