@<TRIPOS>MOLECULE
No_1431-gen_results/8p0m/2024-11-26-14-13-15/
 18 20 0 0 0
SMALL
GASTEIGER

@<TRIPOS>ATOM
      1 C         -28.0162   -0.8135   28.8779 C.ar    1  UNL1        0.0714
      2 C         -28.4690   -0.7850   29.8287 C.ar    1  UNL1        0.0685
      3 C         -26.5455   -0.8762   28.8500 C.ar    1  UNL1        0.0147
      4 C         -25.8041   -1.0324   30.0571 C.ar    1  UNL1        0.0013
      5 C         -27.9437   -0.9869   31.2075 C.ar    1  UNL1        0.0058
      6 C         -26.5825   -1.0386   31.2231 C.ar    1  UNL1        0.0002
      7 C         -30.0279   -0.6588   29.6965 C.2     1  UNL1        0.2514
      8 N         -30.4923   -0.1050   28.7753 N.am    1  UNL1       -0.2602
      9 O         -30.7936   -1.1568   30.6838 O.2     1  UNL1       -0.2698
     10 C         -31.9213    0.0138   28.4676 C.3     1  UNL1        0.0953
     11 C         -32.2267    0.2440   27.2543 C.3     1  UNL1        0.0217
     12 C         -31.2587    0.5848   26.2439 C.3     1  UNL1        0.0053
     13 C         -29.9303    0.4877   26.5205 C.3     1  UNL1        0.0424
     14 C         -29.5634    0.0725   27.7095 C.3     1  UNL1        0.1693
     15 N         -28.4050   -0.2252   27.7227 N.pl3   1  UNL1       -0.2190
     16 C         -25.6188   -0.8106   27.6605 C.2     1  UNL1       -0.0033
     17 C         -24.2735   -0.5200   27.8592 C.2     1  UNL1       -0.0257
     18 C         -23.6282   -0.8471   29.1045 C.3     1  UNL1        0.0307
@<TRIPOS>BOND
     1     2     7    1
     2     7     8   am
     3     7     9    2
     4     8    10    1
     5    11    12    1
     6     8    14    1
     7    13    14    1
     8     1    15    1
     9    14    15    1
    10     3    16    1
    11    16    17    2
    12    17    18    1
    13    10    11    1
    14    12    13    1
    15     1     3   ar
    16     3     4   ar
    17     4     6   ar
    18     6     5   ar
    19     5     2   ar
    20     2     1   ar
