@<TRIPOS>MOLECULE
No_1433-gen_results/8p0m/2024-11-26-14-13-15/
 17 18 0 0 0
SMALL
GASTEIGER

@<TRIPOS>ATOM
      1 C         -28.0162   -0.8135   28.8779 C.ar    1  UNL1        0.0296
      2 C         -28.4690   -0.7850   29.8287 C.ar    1  UNL1        0.0023
      3 C         -28.1816    0.4277   28.1134 C.ar    1  UNL1        0.1401
      4 C         -28.9841    1.4155   28.5154 C.ar    1  UNL1        0.0296
      5 C         -29.3802    0.1384   30.4612 C.ar    1  UNL1        0.0001
      6 C         -29.5415    1.2736   29.7242 C.ar    1  UNL1        0.0023
      7 F         -27.5347    0.4526   26.9017 F       1  UNL1       -0.2042
      8 C         -29.9753   -0.0857   31.8097 C.ar    1  UNL1        0.0002
      9 C         -29.7952    0.8320   32.6805 C.ar    1  UNL1        0.0031
     10 C         -30.6069    0.8075   33.8618 C.ar    1  UNL1        0.0375
     11 C         -31.3986   -0.3439   34.0613 C.ar    1  UNL1        0.1454
     12 C         -30.8629   -1.1490   31.9986 C.ar    1  UNL1        0.0031
     13 C         -31.5400   -1.2741   33.1373 C.ar    1  UNL1        0.0375
     14 O         -32.1025   -0.4238   35.2616 O.3     1  UNL1       -0.4508
     15 C         -31.8564    0.4230   36.2385 C.2     1  UNL1        0.1750
     16 C         -31.1011    0.1709   37.2244 C.2     1  UNL1        0.0148
     17 C         -30.7855    1.0823   38.2938 C.3     1  UNL1        0.0341
@<TRIPOS>BOND
     1     3     7    1
     2     5     8    1
     3    11    14    1
     4    14    15    1
     5    15    16    2
     6    16    17    1
     7     1     2   ar
     8     2     5   ar
     9     5     6   ar
    10     6     4   ar
    11     4     3   ar
    12     3     1   ar
    13     8     9   ar
    14     9    10   ar
    15    10    11   ar
    16    11    13   ar
    17    13    12   ar
    18    12     8   ar
