@<TRIPOS>MOLECULE
No_1434-gen_results/8p0m/2024-11-26-14-13-15/
 27 28 0 0 0
SMALL
GASTEIGER

@<TRIPOS>ATOM
      1 F         -28.0727   -1.2542   28.5316 F       1  UNL1       -0.1620
      2 C         -27.0607   -0.6291   28.8721 C.3     1  UNL1        0.4715
      3 F         -26.4722   -0.5474   28.0086 F       1  UNL1       -0.1620
      4 F         -26.4368   -1.4050   29.8552 F       1  UNL1       -0.1620
      5 C         -27.3897    0.6485   29.6104 C.2     1  UNL1        0.3409
      6 N         -27.0466    1.5863   29.4456 N.am    1  UNL1       -0.1707
      7 C         -27.1322    2.3960   28.3279 C.2     1  UNL1        0.0919
      8 C         -26.3527    3.5592   28.2426 C.ar    1  UNL1        0.0506
      9 C         -25.2071    3.8522   27.8695 C.ar    1  UNL1        0.1398
     10 C         -24.5562    5.1575   27.8089 C.ar    1  UNL1        0.0369
     11 C         -25.3359    6.3008   28.1235 C.ar    1  UNL1        0.0031
     12 C         -26.5889    6.0795   28.5528 C.ar    1  UNL1        0.0002
     13 C         -27.1375    4.8303   28.6283 C.ar    1  UNL1        0.0044
     14 O         -24.3315    2.8688   27.4735 O.3     1  UNL1       -0.4754
     15 C         -23.9292    2.5129   26.2493 C.3     1  UNL1        0.2057
     16 O         -28.3275    0.4901   30.5837 O.2     1  UNL1       -0.2638
     17 C         -24.1111    1.0498   26.0605 C.3     1  UNL1        0.0520
     18 C         -24.9501    0.7091   24.9577 C.3     1  UNL1        0.0295
     19 C         -26.2300    0.2215   25.2525 C.2     1  UNL1       -0.0302
     20 C         -27.1910    0.0427   24.2467 C.2     1  UNL1       -0.0260
     21 C         -28.4212   -0.5378   24.6643 C.3     1  UNL1        0.0520
     22 C         -29.5444    0.1788   24.8626 C.ar    1  UNL1       -0.0178
     23 C         -29.4518    1.5199   25.2220 C.ar    1  UNL1       -0.0039
     24 C         -30.5018    2.1118   26.0096 C.ar    1  UNL1       -0.0003
     25 C         -31.7288    1.3967   25.9703 C.ar    1  UNL1       -0.0000
     26 C         -31.8602    0.1326   25.4159 C.ar    1  UNL1       -0.0003
     27 C         -30.7633   -0.5094   24.9593 C.ar    1  UNL1       -0.0039
@<TRIPOS>BOND
     1     1     2    1
     2     2     3    1
     3     2     4    1
     4     2     5    1
     5     5     6    1
     6     6     7    2
     7     7     8    1
     8     9    14    1
     9    14    15    1
    10     5    16    2
    11    15    17    1
    12    17    18    1
    13    18    19    1
    14    19    20    2
    15    20    21    1
    16    21    22    1
    17    22    23   ar
    18    23    24   ar
    19    24    25   ar
    20    25    26   ar
    21    26    27   ar
    22    27    22   ar
    23     8     9   ar
    24     9    10   ar
    25    10    11   ar
    26    11    12   ar
    27    12    13   ar
    28    13     8   ar
