@<TRIPOS>MOLECULE
No_1435-gen_results/8p0m/2024-11-26-14-13-15/
 8 8 0 0 0
SMALL
GASTEIGER

@<TRIPOS>ATOM
      1 O         -28.1229   -1.3353   28.4874 O.2     1  UNL1       -0.2724
      2 C         -27.0637   -0.8242   28.8687 C.2     1  UNL1        0.2516
      3 C         -26.9592    0.0926   29.7582 C.3     1  UNL1        0.1349
      4 N         -25.8472   -1.5491   28.6589 N.am    1  UNL1       -0.2047
      5 BR        -28.3748    1.0565   30.3310 Br      1  UNL1       -0.0718
      6 C         -24.5547   -1.0636   29.0116 C.3     1  UNL1        0.1152
      7 C         -24.4932    0.0597   29.7303 C.3     1  UNL1        0.0248
      8 C         -25.6236    0.7149   30.1905 C.3     1  UNL1        0.0225
@<TRIPOS>BOND
     1     1     2    2
     2     2     3    1
     3     2     4   am
     4     3     5    1
     5     4     6    1
     6     3     8    1
     7     7     8    1
     8     7     6    1
