@<TRIPOS>MOLECULE
No_1436-gen_results/8p0m/2024-11-26-14-13-15/
 22 24 0 0 0
SMALL
GASTEIGER

@<TRIPOS>ATOM
      1 C         -28.0162   -0.8135   28.8779 C.ar    1  UNL1        0.0026
      2 C         -28.4690   -0.7850   29.8287 C.ar    1  UNL1        0.0795
      3 C         -26.5455   -0.8762   28.8500 C.ar    1  UNL1       -0.0176
      4 C         -25.6825   -0.7773   27.6829 C.3     1  UNL1        0.0526
      5 C         -27.9181   -1.0034   31.1877 C.ar    1  UNL1        0.0066
      6 C         -26.5308   -1.0794   31.2463 C.ar    1  UNL1       -0.0001
      7 C         -25.7798   -1.0462   30.0905 C.ar    1  UNL1       -0.0039
      8 C         -25.2322    0.5793   27.3292 C.ar    1  UNL1       -0.0178
      9 C         -23.9816    0.8698   27.7677 C.ar    1  UNL1       -0.0039
     10 C         -23.3918    1.7212   27.7156 C.ar    1  UNL1       -0.0003
     11 C         -23.8298    2.8525   26.8444 C.ar    1  UNL1       -0.0000
     12 C         -25.8593    1.4233   26.4635 C.ar    1  UNL1       -0.0036
     13 C         -27.0659    1.1713   25.8840 C.ar    1  UNL1       -0.0003
     14 C         -25.1440    2.6320   26.1936 C.ar    1  UNL1       -0.0003
     15 C         -28.0800    2.0207   25.8865 C.ar    1  UNL1       -0.0000
     16 C         -29.3534    1.7508   25.2985 C.ar    1  UNL1       -0.0000
     17 C         -29.5249    0.5187   24.7074 C.ar    1  UNL1       -0.0000
     18 C         -28.4962   -0.3890   24.6048 C.ar    1  UNL1       -0.0000
     19 C         -27.2452   -0.0453   25.1664 C.ar    1  UNL1       -0.0000
     20 C         -30.0716   -0.5791   29.8926 C.2     1  UNL1        0.3877
     21 O         -30.6680   -0.4828   29.0855 O.co2   1  UNL1       -0.2406
     22 O         -30.6472   -0.8463   31.1166 O.co2   1  UNL1       -0.2406
@<TRIPOS>BOND
     1     3     4    1
     2     4     8    1
     3    12    13    1
     4     2    20    1
     5    20    21   ar
     6    20    22   ar
     7    13    15   ar
     8    15    16   ar
     9    16    17   ar
    10    17    18   ar
    11    18    19   ar
    12    19    13   ar
    13     8     9   ar
    14     9    10   ar
    15    10    11   ar
    16    11    14   ar
    17    14    12   ar
    18    12     8   ar
    19     1     2   ar
    20     2     5   ar
    21     5     6   ar
    22     6     7   ar
    23     7     3   ar
    24     3     1   ar
