@<TRIPOS>MOLECULE
No_1437-gen_results/8p0m/2024-11-26-14-13-15/
 21 23 0 0 0
SMALL
GASTEIGER

@<TRIPOS>ATOM
      1 C         -28.0162   -0.8135   28.8779 C.ar    1  UNL1        0.0076
      2 C         -28.4690   -0.7850   29.8287 C.ar    1  UNL1        0.0828
      3 C         -28.1816    0.4277   28.1134 C.ar    1  UNL1        0.0137
      4 C         -27.4498    0.6435   26.8500 C.ar    1  UNL1        0.0577
      5 C         -27.8596    1.4573   25.9076 C.ar    1  UNL1        0.0114
      6 C         -29.4263    0.1097   30.4178 C.ar    1  UNL1        0.0441
      7 C         -29.6233    1.2198   29.7351 C.ar    1  UNL1        0.1454
      8 C         -28.9609    1.4529   28.5513 C.ar    1  UNL1        0.0354
      9 C         -28.7869    2.5467   26.3167 C.ar    1  UNL1        0.0010
     10 C         -29.4265    2.4288   27.5639 C.ar    1  UNL1        0.0031
     11 CL        -26.2731   -0.5166   26.3400 Cl      1  UNL1       -0.0822
     12 C         -28.2282   -2.1332   30.8086 C.2     1  UNL1        0.3879
     13 O         -28.3968   -3.0804   30.4613 O.co2   1  UNL1       -0.2406
     14 O         -27.7254   -1.7889   32.0253 O.co2   1  UNL1       -0.2406
     15 O         -30.5242    2.1386   30.1963 O.3     1  UNL1       -0.4535
     16 C         -30.0632    3.2058   30.8615 C.ar    1  UNL1        0.1453
     17 C         -30.7383    3.5004   32.0449 C.ar    1  UNL1        0.0375
     18 C         -30.2263    4.4900   32.7726 C.ar    1  UNL1        0.0031
     19 C         -28.9451    3.9481   30.5322 C.ar    1  UNL1        0.0375
     20 C         -28.4494    4.9684   31.2567 C.ar    1  UNL1        0.0031
     21 C         -29.1410    5.2938   32.4496 C.ar    1  UNL1        0.0002
@<TRIPOS>BOND
     1     4    11    1
     2     2    12    1
     3    12    13   ar
     4    12    14   ar
     5     7    15    1
     6    15    16    1
     7     3     4   ar
     8     4     5   ar
     9     5     9   ar
    10     9    10   ar
    11    10     8   ar
    12    16    17   ar
    13    17    18   ar
    14    18    21   ar
    15    21    20   ar
    16    20    19   ar
    17    19    16   ar
    18     1     2   ar
    19     2     6   ar
    20     6     7   ar
    21     7     8   ar
    22     8     3   ar
    23     3     1   ar
