@<TRIPOS>MOLECULE
No_1438-gen_results/8p0m/2024-11-26-14-13-15/
 22 24 0 0 0
SMALL
GASTEIGER

@<TRIPOS>ATOM
      1 C         -28.0162   -0.8135   28.8779 C.ar    1  UNL1       -0.0191
      2 C         -28.4690   -0.7850   29.8287 C.ar    1  UNL1       -0.0042
      3 C         -28.1960    0.3478   28.0550 C.3     1  UNL1        0.0648
      4 C         -27.4421    0.5100   26.7946 C.2     1  UNL1        0.0335
      5 C         -26.4394    0.8329   26.6142 C.3     1  UNL1        0.0438
      6 C         -25.2141    0.6624   26.7020 C.3     1  UNL1        0.0318
      7 C         -24.3985    0.0428   27.6997 C.ar    1  UNL1       -0.0241
      8 C         -24.9102   -0.8424   28.5499 C.ar    1  UNL1       -0.0048
      9 C         -28.2120   -1.9271   30.9185 C.ar    1  UNL1       -0.0003
     10 C         -24.0847   -1.5168   29.4956 C.ar    1  UNL1       -0.0029
     11 C         -22.8741   -0.9576   29.7140 C.ar    1  UNL1       -0.0003
     12 C         -22.2862    0.0761   28.9342 C.ar    1  UNL1       -0.0003
     13 C         -23.1288    0.5623   27.9169 C.ar    1  UNL1       -0.0045
     14 C         -27.5312   -2.9973   30.3740 C.ar    1  UNL1       -0.0003
     15 C         -26.8121   -2.9198   29.2488 C.ar    1  UNL1       -0.0029
     16 C         -26.9321   -1.7582   28.5020 C.ar    1  UNL1       -0.0044
     17 C         -26.0604   -1.3044   28.2994 C.3     1  UNL1        0.1356
     18 N         -28.3556   -0.0373   25.8921 N.am    1  UNL1       -0.1876
     19 N         -26.0829   -1.5290   26.9558 N.3     1  UNL1       -0.1233
     20 C         -29.3380    0.6408   25.3057 C.2     1  UNL1        0.2455
     21 C         -29.4033    1.9524   25.5224 C.3     1  UNL1        0.0968
     22 O         -30.0345    0.0045   24.4757 O.2     1  UNL1       -0.2730
@<TRIPOS>BOND
     1     1     3    1
     2     3     4    1
     3     4     5    1
     4     5     6    1
     5     8    17    1
     6    16    17    1
     7     4    18    2
     8    17    19    1
     9    18    20    1
    10    20    21    1
    11    20    22    2
    12     6     7    1
    13     7     8   ar
    14     8    10   ar
    15    10    11   ar
    16    11    12   ar
    17    12    13   ar
    18    13     7   ar
    19     1     2   ar
    20     2     9   ar
    21     9    14   ar
    22    14    15   ar
    23    15    16   ar
    24    16     1   ar
