@<TRIPOS>MOLECULE
No_1439-gen_results/8p0m/2024-11-26-14-13-15/
 20 21 0 0 0
SMALL
GASTEIGER

@<TRIPOS>ATOM
      1 C         -28.0162   -0.8135   28.8779 C.ar    1  UNL1        0.0444
      2 C         -28.4690   -0.7850   29.8287 C.ar    1  UNL1        0.0735
      3 C         -28.1960    0.3478   28.0550 C.ar    1  UNL1        0.1713
      4 C         -29.0191    1.3501   28.3782 C.ar    1  UNL1        0.2019
      5 C         -29.4107    0.1803   30.3782 C.ar    1  UNL1        0.1045
      6 C         -29.6059    1.2495   29.6193 C.ar    1  UNL1        0.1800
      7 F         -27.5400    0.3372   26.8421 F       1  UNL1       -0.2017
      8 CL        -30.1135   -0.0422   31.9592 Cl      1  UNL1       -0.0781
      9 F         -29.1658    2.3588   27.5831 F       1  UNL1       -0.1985
     10 CL        -28.2501   -2.2788   30.9938 Cl      1  UNL1       -0.0812
     11 O         -30.4702    2.2522   30.0087 O.3     1  UNL1       -0.4624
     12 C         -31.7482    2.1048   29.9130 C.3     1  UNL1        0.2897
     13 C         -32.3272    2.3175   28.7494 C.2     1  UNL1        0.2702
     14 O         -32.1238    3.3741   28.1440 O.2     1  UNL1       -0.2708
     15 N         -32.9967    1.3369   28.1068 N.am    1  UNL1       -0.2765
     16 C         -33.3155    0.0546   28.7039 C.3     1  UNL1        0.0935
     17 C         -33.7505   -0.9112   27.7795 C.3     1  UNL1        0.0216
     18 C         -33.8150   -0.6282   26.5149 C.3     1  UNL1        0.0035
     19 C         -33.4534    0.5936   25.9334 C.3     1  UNL1        0.0216
     20 C         -32.6937    1.5743   26.7901 C.3     1  UNL1        0.0935
@<TRIPOS>BOND
     1     3     7    1
     2     5     8    1
     3     4     9    1
     4     2    10    1
     5     6    11    1
     6    11    12    1
     7    12    13    1
     8    13    14    2
     9    13    15   am
    10    15    16    1
    11    17    18    1
    12    15    20    1
    13    19    20    1
    14    16    17    1
    15    18    19    1
    16     1     2   ar
    17     2     5   ar
    18     5     6   ar
    19     6     4   ar
    20     4     3   ar
    21     3     1   ar
