@<TRIPOS>MOLECULE
No_144-gen_results/8p0m/2024-11-26-14-13-15/
 15 16 0 0 0
SMALL
GASTEIGER

@<TRIPOS>ATOM
      1 C         -28.0162   -0.8135   28.8779 C.ar    1  UNL1        0.0046
      2 C         -28.4690   -0.7850   29.8287 C.ar    1  UNL1        0.0554
      3 C         -26.5455   -0.8762   28.8500 C.ar    1  UNL1        0.0001
      4 C         -25.8041   -1.0324   30.0571 C.ar    1  UNL1        0.0000
      5 C         -27.9437   -0.9869   31.2075 C.ar    1  UNL1        0.0046
      6 C         -26.5825   -1.0386   31.2231 C.ar    1  UNL1        0.0001
      7 C         -30.0606   -0.7371   29.9024 C.2     1  UNL1        0.2690
      8 O         -30.7252   -1.5544   30.2697 O.2     1  UNL1       -0.2680
      9 N         -30.5534    0.2353   28.9470 N.am    1  UNL1       -0.1754
     10 C         -29.8410    1.2714   28.3918 C.ar    1  UNL1        0.0737
     11 C         -30.3353    2.0714   27.5632 C.ar    1  UNL1        0.0166
     12 C         -29.5944    3.1618   26.9178 C.ar    1  UNL1        0.0013
     13 C         -28.5909    3.2278   27.0425 C.ar    1  UNL1        0.0001
     14 C         -27.7283    2.3936   27.8640 C.ar    1  UNL1        0.0013
     15 C         -28.4372    1.3500   28.6278 C.ar    1  UNL1        0.0166
@<TRIPOS>BOND
     1     2     7    1
     2     7     8    2
     3     7     9   am
     4     9    10    1
     5     1     2   ar
     6     2     5   ar
     7     5     6   ar
     8     6     4   ar
     9     4     3   ar
    10     3     1   ar
    11    10    11   ar
    12    11    12   ar
    13    12    13   ar
    14    13    14   ar
    15    14    15   ar
    16    15    10   ar
