@<TRIPOS>MOLECULE
No_1441-gen_results/8p0m/2024-11-26-14-13-15/
 6 6 0 0 0
SMALL
GASTEIGER

@<TRIPOS>ATOM
      1 C         -28.0162   -0.8135   28.8779 C.ar    1  UNL1        0.0000
      2 C         -27.0636   -0.1189   28.6079 C.ar    1  UNL1        0.0000
      3 C         -27.0010    0.6913   27.4910 C.ar    1  UNL1        0.0000
      4 C         -28.1373    0.7363   26.6350 C.ar    1  UNL1        0.0000
      5 C         -29.2360    0.0765   27.0690 C.ar    1  UNL1        0.0000
      6 C         -29.2177   -0.6429   28.1747 C.ar    1  UNL1        0.0000
@<TRIPOS>BOND
     1     1     2   ar
     2     2     3   ar
     3     3     4   ar
     4     4     5   ar
     5     5     6   ar
     6     6     1   ar
