@<TRIPOS>MOLECULE
No_1442-gen_results/8p0m/2024-11-26-14-13-15/
 13 14 0 0 0
SMALL
GASTEIGER

@<TRIPOS>ATOM
      1 C         -28.0162   -0.8135   28.8779 C.ar    1  UNL1        0.0114
      2 C         -28.4690   -0.7850   29.8287 C.ar    1  UNL1        0.0577
      3 C         -26.5042   -0.7777   28.8766 C.ar    1  UNL1        0.0009
      4 C         -25.8103   -0.8531   30.1028 C.ar    1  UNL1        0.0001
      5 C         -27.9906   -0.8916   31.2257 C.ar    1  UNL1        0.0114
      6 C         -26.6042   -0.8676   31.2652 C.ar    1  UNL1        0.0009
      7 C         -24.3894   -0.8049   30.1638 C.ar    1  UNL1        0.0000
      8 C         -23.7660   -0.9500   31.0679 C.ar    1  UNL1        0.0000
      9 C         -22.2665   -0.8379   31.2250 C.ar    1  UNL1        0.0000
     10 C         -21.6700   -0.5264   30.0648 C.ar    1  UNL1        0.0000
     11 C         -23.6437   -0.4433   28.9621 C.ar    1  UNL1        0.0000
     12 C         -22.3479   -0.3035   28.9177 C.ar    1  UNL1        0.0000
     13 CL        -30.3169   -0.7825   29.8243 Cl      1  UNL1       -0.0822
@<TRIPOS>BOND
     1     4     7    1
     2     2    13    1
     3     7     8   ar
     4     8     9   ar
     5     9    10   ar
     6    10    12   ar
     7    12    11   ar
     8    11     7   ar
     9     1     2   ar
    10     2     5   ar
    11     5     6   ar
    12     6     4   ar
    13     4     3   ar
    14     3     1   ar
