@<TRIPOS>MOLECULE
No_1443-gen_results/8p0m/2024-11-26-14-13-15/
 24 27 0 0 0
SMALL
GASTEIGER

@<TRIPOS>ATOM
      1 C         -28.0162   -0.8135   28.8779 C.ar    1  UNL1        0.0683
      2 C         -28.4690   -0.7850   29.8287 C.ar    1  UNL1        0.0162
      3 C         -28.1960    0.3478   28.0550 C.ar    1  UNL1        0.0129
      4 C         -29.0191    1.3501   28.3782 C.ar    1  UNL1       -0.0011
      5 C         -29.4107    0.1803   30.3782 C.ar    1  UNL1        0.0013
      6 C         -29.6059    1.2495   29.6193 C.ar    1  UNL1       -0.0002
      7 C         -27.5426    0.5225   26.6829 C.3     1  UNL1        0.0963
      8 N         -26.2251    0.3954   26.6946 N.pl3   1  UNL1       -0.3027
      9 C         -25.4951   -0.0274   27.7019 C.ar    1  UNL1        0.0636
     10 C         -24.1398    0.5563   27.8591 C.ar    1  UNL1        0.0159
     11 C         -23.2603    0.2856   28.9196 C.ar    1  UNL1        0.0014
     12 C         -23.6092   -0.9261   29.6437 C.ar    1  UNL1        0.0014
     13 C         -24.8000   -1.5270   29.4856 C.ar    1  UNL1        0.0178
     14 C         -25.6781   -1.1179   28.5523 C.ar    1  UNL1        0.0837
     15 N         -26.6817   -1.3453   28.8480 N.pl3   1  UNL1       -0.2115
     16 C         -25.5832    1.2379   25.7422 C.3     1  UNL1        0.0913
     17 C         -28.1248   -0.4330   25.7228 C.2     1  UNL1       -0.0090
     18 C         -27.9373    1.9450   26.2011 C.3     1  UNL1        0.0245
     19 C         -29.3568   -0.1063   25.0526 C.2     1  UNL1       -0.0288
     20 C         -29.9679   -1.1337   24.3788 C.3     1  UNL1        0.0258
     21 C         -29.4472   -2.4479   24.5123 C.3     1  UNL1        0.0050
     22 C         -27.0570    2.4135   25.2484 C.3     1  UNL1        0.0040
     23 C         -25.7023    2.1545   25.3221 C.3     1  UNL1        0.0215
     24 C         -29.1771    2.4389   26.6687 C.3     1  UNL1        0.0023
@<TRIPOS>BOND
     1     3     7    1
     2     7     8    1
     3     8     9    1
     4     1    15    1
     5    14    15    1
     6     8    16    1
     7     7    17    1
     8     7    18    1
     9    17    19    2
    10    19    20    1
    11    20    21    1
    12    16    23    1
    13    22    23    1
    14    18    24    1
    15    18    22    1
    16     9    10   ar
    17    10    11   ar
    18    11    12   ar
    19    12    13   ar
    20    13    14   ar
    21    14     9   ar
    22     1     2   ar
    23     2     5   ar
    24     5     6   ar
    25     6     4   ar
    26     4     3   ar
    27     3     1   ar
