@<TRIPOS>MOLECULE
No_1444-gen_results/8p0m/2024-11-26-14-13-15/
 11 11 0 0 0
SMALL
GASTEIGER

@<TRIPOS>ATOM
      1 C         -28.0162   -0.8135   28.8779 C.ar    1  UNL1        0.0369
      2 C         -28.4690   -0.7850   29.8287 C.ar    1  UNL1        0.1393
      3 C         -26.5042   -0.7777   28.8766 C.ar    1  UNL1        0.0031
      4 C         -25.8305   -1.6807   29.6849 C.ar    1  UNL1        0.0002
      5 C         -28.0065   -1.6474   31.0141 C.ar    1  UNL1        0.0369
      6 C         -26.6094   -1.9242   30.9641 C.ar    1  UNL1        0.0031
      7 O         -29.8849   -0.5937   29.9911 O.3     1  UNL1       -0.4655
      8 C         -30.6114   -0.8617   30.7262 C.3     1  UNL1        0.2929
      9 C         -31.9885   -1.1838   30.4667 C.2     1  UNL1        0.3052
     10 O         -32.5138   -0.6255   29.5202 O.2     1  UNL1       -0.2676
     11 N         -32.6980   -2.1710   31.1197 N.am    1  UNL1       -0.0845
@<TRIPOS>BOND
     1     2     7    1
     2     7     8    1
     3     8     9    1
     4     9    10    2
     5     9    11   am
     6     1     2   ar
     7     2     5   ar
     8     5     6   ar
     9     6     4   ar
    10     4     3   ar
    11     3     1   ar
