@<TRIPOS>MOLECULE
No_1446-gen_results/8p0m/2024-11-26-14-13-15/
 14 15 0 0 0
SMALL
GASTEIGER

@<TRIPOS>ATOM
      1 C         -28.0162   -0.8135   28.8779 C.ar    1  UNL1        0.0111
      2 C         -28.4690   -0.7850   29.8287 C.ar    1  UNL1        0.0577
      3 C         -26.5042   -0.7777   28.8766 C.ar    1  UNL1       -0.0031
      4 C         -25.8103   -0.8531   30.1028 C.ar    1  UNL1       -0.0177
      5 C         -27.9906   -0.8916   31.2257 C.ar    1  UNL1        0.0111
      6 C         -26.6042   -0.8676   31.2652 C.ar    1  UNL1       -0.0031
      7 CL        -30.2937   -0.8377   29.8355 Cl      1  UNL1       -0.0822
      8 C         -24.3700   -0.8208   30.1393 C.3     1  UNL1        0.0526
      9 C         -23.6317   -0.3592   29.1003 C.ar    1  UNL1       -0.0178
     10 C         -22.1856   -0.3104   29.2384 C.ar    1  UNL1       -0.0039
     11 C         -21.4314    0.2715   28.5150 C.ar    1  UNL1       -0.0003
     12 C         -21.9369    1.1905   27.4674 C.ar    1  UNL1       -0.0000
     13 C         -23.3106    1.3358   27.3600 C.ar    1  UNL1       -0.0003
     14 C         -24.1253    0.6757   28.2305 C.ar    1  UNL1       -0.0039
@<TRIPOS>BOND
     1     2     7    1
     2     4     8    1
     3     8     9    1
     4     9    10   ar
     5    10    11   ar
     6    11    12   ar
     7    12    13   ar
     8    13    14   ar
     9    14     9   ar
    10     1     2   ar
    11     2     5   ar
    12     5     6   ar
    13     6     4   ar
    14     4     3   ar
    15     3     1   ar
