@<TRIPOS>MOLECULE
No_1447-gen_results/8p0m/2024-11-26-14-13-15/
 15 15 0 0 0
SMALL
GASTEIGER

@<TRIPOS>ATOM
      1 N         -28.0544   -1.0498   28.7246 N.am    1  UNL1       -0.1594
      2 C         -27.7460   -0.0733   29.0098 C.2     1  UNL1        0.2675
      3 C         -27.1737    0.7565   28.1070 C.ar    1  UNL1        0.0574
      4 C         -27.3702    0.6013   26.8571 C.ar    1  UNL1        0.0047
      5 C         -26.6779    1.3647   25.8256 C.ar    1  UNL1        0.0025
      6 C         -25.7484    2.3384   26.2151 C.ar    1  UNL1        0.0296
      7 C         -25.5285    2.5826   27.5694 C.ar    1  UNL1        0.1403
      8 C         -26.1617    1.8190   28.4417 C.ar    1  UNL1        0.0342
      9 O         -27.7970    0.3460   30.2847 O.2     1  UNL1       -0.2683
     10 C         -28.6091   -2.1341   29.7118 C.3     1  UNL1        0.3591
     11 C         -27.6848   -3.2594   29.9243 C.2     1  UNL1        0.4180
     12 O         -28.1507   -4.4000   30.2900 O.co2   1  UNL1       -0.2405
     13 O         -26.4103   -3.1380   29.7120 O.co2   1  UNL1       -0.2405
     14 F         -29.6728   -2.0290   30.1499 F       1  UNL1       -0.2004
     15 F         -24.7019    3.5193   27.9221 F       1  UNL1       -0.2042
@<TRIPOS>BOND
     1     1     2   am
     2     2     3    1
     3     2     9    2
     4     1    10    1
     5    10    11    1
     6    11    12   ar
     7    11    13   ar
     8    10    14    1
     9     7    15    1
    10     3     4   ar
    11     4     5   ar
    12     5     6   ar
    13     6     7   ar
    14     7     8   ar
    15     8     3   ar
