@<TRIPOS>MOLECULE
No_1449-gen_results/8p0m/2024-11-26-14-13-15/
 14 14 0 0 0
SMALL
GASTEIGER

@<TRIPOS>ATOM
      1 C         -28.0162   -0.8135   28.8779 C.ar    1  UNL1        0.0064
      2 C         -28.4690   -0.7850   29.8287 C.ar    1  UNL1        0.0345
      3 C         -26.5455   -0.8762   28.8500 C.ar    1  UNL1       -0.0037
      4 C         -25.8041   -1.0324   30.0571 C.ar    1  UNL1       -0.0211
      5 C         -27.9437   -0.9869   31.2075 C.ar    1  UNL1        0.0064
      6 C         -26.5825   -1.0386   31.2231 C.ar    1  UNL1       -0.0037
      7 BR        -30.4495   -0.7126   29.8904 Br      1  UNL1       -0.0490
      8 C         -24.3608   -1.1188   30.0632 C.3     1  UNL1        0.0471
      9 C         -23.6874    0.1366   30.0274 C.3     1  UNL1        0.1900
     10 C         -22.4215    0.2456   29.3646 C.2     1  UNL1        0.4609
     11 C         -24.2165    1.3099   30.6743 C.2     1  UNL1        0.2202
     12 N         -22.1735    1.3415   28.6792 N.pl3   1  UNL1        0.1999
     13 N         -21.5589   -0.7507   29.3455 N.pl3   1  UNL1        0.1999
     14 O         -24.6694    1.4018   31.7195 O.2     1  UNL1       -0.2876
@<TRIPOS>BOND
     1     2     7    1
     2     4     8    1
     3     8     9    1
     4     9    10    1
     5     9    11    1
     6    10    12    1
     7    10    13    2
     8    11    14    2
     9     1     2   ar
    10     2     5   ar
    11     5     6   ar
    12     6     4   ar
    13     4     3   ar
    14     3     1   ar
