@<TRIPOS>MOLECULE
No_1450-gen_results/8p0m/2024-11-26-14-13-15/
 33 36 0 0 0
SMALL
GASTEIGER

@<TRIPOS>ATOM
      1 O         -28.1229   -1.3353   28.4874 O.2     1  UNL1       -0.2683
      2 C         -27.0637   -0.8242   28.8687 C.2     1  UNL1        0.2660
      3 C         -26.4017   -0.0623   28.6224 C.ar    1  UNL1        0.0553
      4 N         -26.3805   -1.7991   29.9619 N.am    1  UNL1       -0.1860
      5 C         -25.0334    0.3743   29.0484 C.ar    1  UNL1        0.0120
      6 C         -24.2291    1.4474   28.6285 C.ar    1  UNL1        0.0905
      7 C         -24.7930    2.2384   27.5681 C.ar    1  UNL1        0.0640
      8 C         -26.0246    1.9553   27.0799 C.ar    1  UNL1        0.0118
      9 C         -26.7498    0.9381   27.4878 C.ar    1  UNL1        0.0054
     10 C         -26.7751   -2.9391   30.1498 C.3     1  UNL1        0.1630
     11 CL        -23.8177    3.5841   27.0636 Cl      1  UNL1       -0.0820
     12 C         -22.9045    1.6895   29.1869 C.2     1  UNL1        0.3886
     13 O         -22.4648    0.9565   30.0013 O.co2   1  UNL1       -0.2405
     14 O         -22.1939    2.6290   28.6632 O.co2   1  UNL1       -0.2405
     15 C         -26.0537   -4.0550   29.3751 C.3     1  UNL1        0.0793
     16 C         -24.7766   -3.6877   28.9553 C.2     1  UNL1       -0.0189
     17 N         -27.9729   -3.2077   30.6472 N.3     1  UNL1       -0.2557
     18 C         -28.7245   -2.2787   31.2750 C.3     1  UNL1        0.0745
     19 C         -28.5577   -4.5449   30.7098 C.3     1  UNL1        0.0859
     20 C         -23.8889   -4.7355   28.5663 C.2     1  UNL1       -0.0045
     21 C         -24.4902   -5.9885   28.6219 C.2     1  UNL1       -0.0045
     22 C         -26.0760   -5.4432   29.5640 C.2     1  UNL1       -0.0189
     23 C         -30.0754   -4.4415   30.8677 C.3     1  UNL1        0.1023
     24 C         -30.2821   -3.1985   31.2848 C.3     1  UNL1        0.0311
     25 C         -30.7905   -4.7655   29.6204 C.2     1  UNL1        0.2349
     26 CL        -32.2045   -4.9353   29.5483 Cl      1  UNL1       -0.0425
     27 C         -30.4600   -5.4373   31.9738 C.ar    1  UNL1        0.0055
     28 C         -31.2415   -4.9243   32.9919 C.ar    1  UNL1        0.0950
     29 N         -31.4923   -5.7395   33.9284 N.ar    1  UNL1       -0.2426
     30 C         -30.1239   -6.7985   31.9309 C.ar    1  UNL1       -0.0007
     31 C         -30.3712   -7.6560   32.9449 C.ar    1  UNL1        0.0204
     32 C         -31.0762   -7.1000   34.0149 C.ar    1  UNL1        0.0989
     33 O         -30.0204   -4.9100   28.5523 O.2     1  UNL1       -0.2785
@<TRIPOS>BOND
     1     1     2    2
     2     2     3    1
     3     2     4   am
     4     4    10    1
     5     7    11    1
     6     6    12    1
     7    12    13   ar
     8    12    14   ar
     9    10    15    1
    10    15    16    1
    11    10    17    1
    12    17    18    1
    13    17    19    1
    14    16    20    2
    15    20    21    1
    16    15    22    1
    17    21    22    2
    18    19    23    1
    19    18    24    1
    20    23    24    1
    21    23    25    1
    22    25    26    1
    23    23    27    1
    24    25    33    2
    25     3     5   ar
    26     5     6   ar
    27     6     7   ar
    28     7     8   ar
    29     8     9   ar
    30     9     3   ar
    31    27    28   ar
    32    28    29   ar
    33    29    32   ar
    34    32    31   ar
    35    31    30   ar
    36    30    27   ar
