@<TRIPOS>MOLECULE
No_1451-gen_results/8p0m/2024-11-26-14-13-15/
 34 37 0 0 0
SMALL
GASTEIGER

@<TRIPOS>ATOM
      1 C         -28.0162   -0.8135   28.8779 C.ar    1  UNL1        0.0006
      2 C         -28.4690   -0.7850   29.8287 C.ar    1  UNL1        0.0533
      3 C         -26.5455   -0.8762   28.8500 C.ar    1  UNL1       -0.0176
      4 C         -25.8041   -1.0324   30.0571 C.ar    1  UNL1       -0.0039
      5 C         -30.0055   -0.7457   29.8978 C.2     1  UNL1        0.2495
      6 C         -26.5747   -1.0565   31.2005 C.ar    1  UNL1       -0.0002
      7 C         -27.9251   -0.9738   31.1683 C.ar    1  UNL1        0.0045
      8 O         -30.7095   -1.5277   30.1699 O.2     1  UNL1       -0.2699
      9 N         -30.4999    0.5121   29.4153 N.am    1  UNL1       -0.2679
     10 C         -31.8999    0.6986   29.2739 C.3     1  UNL1        0.1208
     11 C         -29.6449    1.6340   29.0642 C.3     1  UNL1        0.1205
     12 C         -29.7363    2.6868   30.0306 C.ar    1  UNL1       -0.0060
     13 C         -29.1961    3.5789   30.0621 C.ar    1  UNL1       -0.0208
     14 C         -29.2353    4.6646   31.1581 C.ar    1  UNL1       -0.0042
     15 C         -30.1991    4.4274   32.1282 C.ar    1  UNL1       -0.0003
     16 C         -30.9269    3.2728   32.0769 C.ar    1  UNL1       -0.0003
     17 C         -30.6977    2.3571   31.1335 C.ar    1  UNL1       -0.0029
     18 C         -25.7122   -0.7750   27.5978 C.3     1  UNL1        0.0526
     19 C         -25.2924    0.6047   27.2709 C.ar    1  UNL1       -0.0178
     20 C         -24.0494    0.9356   27.7139 C.ar    1  UNL1       -0.0039
     21 C         -23.4391    2.1141   27.1904 C.ar    1  UNL1       -0.0003
     22 C         -26.0922    1.5371   26.6457 C.ar    1  UNL1       -0.0039
     23 C         -25.6299    2.7514   26.2516 C.ar    1  UNL1       -0.0003
     24 C         -24.2379    3.0964   26.5538 C.ar    1  UNL1       -0.0000
     25 C         -32.2490    0.9624   27.9763 C.ar    1  UNL1       -0.0023
     26 C         -33.4608    1.3343   27.7741 C.ar    1  UNL1       -0.0026
     27 C         -33.8741    1.6751   26.4417 C.ar    1  UNL1       -0.0003
     28 C         -32.9496    1.5132   25.3796 C.ar    1  UNL1       -0.0000
     29 C         -31.6742    1.0884   25.6361 C.ar    1  UNL1       -0.0003
     30 C         -31.3080    0.8280   26.9012 C.ar    1  UNL1       -0.0026
     31 C         -28.0807    4.0504   29.0789 C.3     1  UNL1        0.0440
     32 C         -28.2896    4.2888   27.9875 C.3     1  UNL1        0.0094
     33 C         -26.6748    3.9160   29.5787 C.2     1  UNL1       -0.0221
     34 C         -26.0756    4.7798   30.2109 C.2     1  UNL1       -0.0046
@<TRIPOS>BOND
     1     2     5    1
     2     5     8    2
     3     5     9   am
     4     9    10    1
     5     9    11    1
     6    11    12    1
     7     3    18    1
     8    18    19    1
     9    10    25    1
    10    13    31    1
    11    31    32    1
    12    31    33    1
    13    33    34    2
    14    12    13   ar
    15    13    14   ar
    16    14    15   ar
    17    15    16   ar
    18    16    17   ar
    19    17    12   ar
    20    19    20   ar
    21    20    21   ar
    22    21    24   ar
    23    24    23   ar
    24    23    22   ar
    25    22    19   ar
    26    25    26   ar
    27    26    27   ar
    28    27    28   ar
    29    28    29   ar
    30    29    30   ar
    31    30    25   ar
    32     1     2   ar
    33     2     7   ar
    34     7     6   ar
    35     6     4   ar
    36     4     3   ar
    37     3     1   ar
