@<TRIPOS>MOLECULE
No_1452-gen_results/8p0m/2024-11-26-14-13-15/
 9 9 0 0 0
SMALL
GASTEIGER

@<TRIPOS>ATOM
      1 C         -28.0162   -0.8135   28.8779 C.ar    1  UNL1       -0.0001
      2 C         -28.4690   -0.7850   29.8287 C.ar    1  UNL1        0.0011
      3 C         -26.5042   -0.7777   28.8766 C.ar    1  UNL1       -0.0000
      4 C         -25.8305   -1.6807   29.6849 C.ar    1  UNL1       -0.0001
      5 C         -28.1490   -1.8854   30.9031 C.ar    1  UNL1        0.0436
      6 C         -28.9302   -2.0829   32.0356 C.3     1  UNL1        0.3410
      7 C         -26.7271   -2.2585   30.7986 C.ar    1  UNL1        0.0011
      8 F         -28.9474   -3.4210   32.3368 F       1  UNL1       -0.1933
      9 F         -28.4328   -1.4932   33.0837 F       1  UNL1       -0.1933
@<TRIPOS>BOND
     1     6     8    1
     2     6     9    1
     3     6     5    1
     4     1     2   ar
     5     2     5   ar
     6     5     7   ar
     7     7     4   ar
     8     4     3   ar
     9     3     1   ar
