@<TRIPOS>MOLECULE
No_1453-gen_results/8p0m/2024-11-26-14-13-15/
 21 23 0 0 0
SMALL
GASTEIGER

@<TRIPOS>ATOM
      1 C         -28.0162   -0.8135   28.8779 C.ar    1  UNL1        0.0140
      2 C         -28.4690   -0.7850   29.8287 C.3     1  UNL1        0.1907
      3 C         -28.1816    0.4277   28.1134 C.ar    1  UNL1       -0.0004
      4 C         -27.4498    0.6435   26.8500 C.ar    1  UNL1        0.0112
      5 C         -26.1815    0.0357   26.7145 C.ar    1  UNL1        0.0577
      6 C         -25.7800   -0.9326   27.6938 C.ar    1  UNL1        0.0112
      7 C         -26.5568   -1.2134   28.7413 C.ar    1  UNL1       -0.0004
      8 N         -29.6101   -0.2783   30.1938 N.am    1  UNL1       -0.1846
      9 N         -28.1839   -1.9973   30.7659 N.3     1  UNL1       -0.1943
     10 C         -30.4344   -0.6399   31.3293 C.2     1  UNL1        0.2452
     11 C         -28.9716   -2.3785   31.8081 C.3     1  UNL1        0.1014
     12 C         -30.0390   -1.6312   32.1454 C.3     1  UNL1        0.1115
     13 CL        -25.1209    0.4313   25.4502 Cl      1  UNL1       -0.0822
     14 O         -31.4589    0.1291   31.5802 O.2     1  UNL1       -0.2732
     15 C         -30.8294   -2.0278   33.3351 C.3     1  UNL1        0.0827
     16 N         -30.9054   -3.0898   33.7063 N.3     1  UNL1       -0.2722
     17 C         -31.5993   -3.4738   34.7434 C.3     1  UNL1        0.0721
     18 C         -31.5103   -4.8367   35.1768 C.3     1  UNL1        0.0174
     19 C         -30.7135   -5.6595   34.3599 C.3     1  UNL1        0.0029
     20 C         -29.9630   -5.3196   33.2892 C.3     1  UNL1        0.0174
     21 C         -30.0122   -3.9583   32.9611 C.3     1  UNL1        0.0721
@<TRIPOS>BOND
     1     1     2    1
     2     2     9    1
     3     8    10   am
     4    10    12    1
     5    11    12    1
     6     5    13    1
     7    10    14    2
     8    12    15    1
     9    15    16    1
    10    16    17    1
    11    18    19    1
    12    16    21    1
    13    20    21    1
    14    17    18    1
    15    19    20    1
    16     8     2    1
    17     9    11    1
    18     1     3   ar
    19     3     4   ar
    20     4     5   ar
    21     5     6   ar
    22     6     7   ar
    23     7     1   ar
