@<TRIPOS>MOLECULE
No_1454-gen_results/8p0m/2024-11-26-14-13-15/
 11 11 0 0 0
SMALL
GASTEIGER

@<TRIPOS>ATOM
      1 C         -28.0162   -0.8135   28.8779 C.ar    1  UNL1        0.0407
      2 C         -27.0636   -0.1189   28.6079 C.ar    1  UNL1        0.1373
      3 C         -25.7923   -0.4302   29.0761 C.ar    1  UNL1        0.0114
      4 C         -25.5756   -1.5654   29.9363 C.ar    1  UNL1       -0.0008
      5 C         -26.7354   -2.3004   30.2173 C.ar    1  UNL1        0.0112
      6 C         -27.9184   -1.9537   29.7629 C.ar    1  UNL1        0.0599
      7 CL        -29.2678   -2.8890   30.2152 Cl      1  UNL1       -0.0822
      8 F         -27.1316    1.0004   27.8714 F       1  UNL1       -0.2045
      9 C         -24.5169    0.3503   28.7511 C.3     1  UNL1        0.0775
     10 C         -24.1479    1.3952   29.4540 C.2     1  UNL1        0.1005
     11 N         -23.0250    2.0697   29.1201 N.2     1  UNL1       -0.1510
@<TRIPOS>BOND
     1     6     7    1
     2     2     8    1
     3     3     9    1
     4     9    10    1
     5    10    11    2
     6     1     2   ar
     7     2     3   ar
     8     3     4   ar
     9     4     5   ar
    10     5     6   ar
    11     6     1   ar
