@<TRIPOS>MOLECULE
No_1455-gen_results/8p0m/2024-11-26-14-13-15/
 17 19 0 0 0
SMALL
GASTEIGER

@<TRIPOS>ATOM
      1 C         -28.0162   -0.8135   28.8779 C.ar    1  UNL1       -0.0028
      2 C         -28.4690   -0.7850   29.8287 C.ar    1  UNL1       -0.0003
      3 C         -27.1356    0.2359   28.5352 C.ar    1  UNL1       -0.0034
      4 C         -26.8745    1.2825   29.3982 C.ar    1  UNL1       -0.0028
      5 C         -28.3613    0.1987   30.9244 C.ar    1  UNL1       -0.0000
      6 C         -25.9723    2.3852   29.1040 C.2     1  UNL1       -0.0045
      7 C         -27.5118    1.2316   30.6323 C.ar    1  UNL1       -0.0003
      8 C         -25.3009    2.5053   28.0335 C.2     1  UNL1       -0.0214
      9 C         -24.7278    1.4799   27.3812 C.3     1  UNL1        0.0520
     10 C         -24.2004    0.4255   28.0721 C.ar    1  UNL1       -0.0203
     11 C         -22.9717    0.6001   28.7724 C.ar    1  UNL1       -0.0042
     12 C         -22.3975   -0.5620   29.4100 C.ar    1  UNL1       -0.0003
     13 C         -23.0889   -1.7204   29.4213 C.ar    1  UNL1       -0.0003
     14 C         -24.2981   -1.9089   28.8292 C.ar    1  UNL1       -0.0031
     15 C         -24.7222   -0.8011   28.2256 C.ar    1  UNL1       -0.0070
     16 C         -25.6110   -0.3779   28.1766 C.3     1  UNL1        0.1240
     17 CL        -26.1388   -1.7585   26.8828 Cl      1  UNL1       -0.1053
@<TRIPOS>BOND
     1     4     6    1
     2     6     8    2
     3     8     9    1
     4     9    10    1
     5     3    16    1
     6    15    16    1
     7    16    17    1
     8    10    11   ar
     9    11    12   ar
    10    12    13   ar
    11    13    14   ar
    12    14    15   ar
    13    15    10   ar
    14     1     2   ar
    15     2     5   ar
    16     5     7   ar
    17     7     4   ar
    18     4     3   ar
    19     3     1   ar
