@<TRIPOS>MOLECULE
No_1456-gen_results/8p0m/2024-11-26-14-13-15/
 20 23 0 0 0
SMALL
GASTEIGER

@<TRIPOS>ATOM
      1 C         -28.0162   -0.8135   28.8779 C.ar    1  UNL1       -0.0264
      2 C         -27.0636   -0.1189   28.6079 C.3     1  UNL1        0.0235
      3 C         -25.7647   -0.3897   29.0360 C.3     1  UNL1        0.0194
      4 C         -24.5516    0.4058   28.7646 C.3     1  UNL1        0.0804
      5 C         -24.6957    1.4480   27.7988 C.2     1  UNL1        0.1543
      6 C         -25.9755    1.7250   27.3077 C.3     1  UNL1        0.0652
      7 C         -27.0718    1.0134   27.6535 C.3     1  UNL1        0.0121
      8 C         -29.2261   -0.0677   29.3149 C.ar    1  UNL1       -0.0046
      9 C         -29.9074   -0.3248   30.1570 C.ar    1  UNL1       -0.0003
     10 C         -29.4568   -0.8243   31.3158 C.ar    1  UNL1       -0.0003
     11 C         -28.4558   -1.8548   31.2093 C.ar    1  UNL1       -0.0046
     12 C         -27.5099   -1.5606   30.1375 C.ar    1  UNL1       -0.0261
     13 C         -26.1091   -1.6687   30.1484 C.3     1  UNL1        0.0271
     14 C         -23.2626   -0.0411   29.3269 C.ar    1  UNL1       -0.0155
     15 C         -23.0807   -0.6181   30.2838 C.ar    1  UNL1       -0.0039
     16 C         -22.1290    0.3129   28.4145 C.ar    1  UNL1       -0.0039
     17 C         -20.7968   -0.0489   28.8756 C.ar    1  UNL1       -0.0003
     18 C         -21.7141   -1.0106   30.8454 C.ar    1  UNL1       -0.0003
     19 C         -20.6500   -0.7097   30.0561 C.ar    1  UNL1       -0.0000
     20 O         -23.6530    2.1307   27.4800 O.2     1  UNL1       -0.2957
@<TRIPOS>BOND
     1     2     3    1
     2     3     4    1
     3     4     5    1
     4     5     6    1
     5     2     7    1
     6     3    13    1
     7    12    13    1
     8     4    14    1
     9     5    20    2
    10     1     2    1
    11     7     6    1
    12    14    15   ar
    13    15    18   ar
    14    18    19   ar
    15    19    17   ar
    16    17    16   ar
    17    16    14   ar
    18     1     8   ar
    19     8     9   ar
    20     9    10   ar
    21    10    11   ar
    22    11    12   ar
    23    12     1   ar
