@<TRIPOS>MOLECULE
No_1457-gen_results/8p0m/2024-11-26-14-13-15/
 7 6 0 0 0
SMALL
GASTEIGER

@<TRIPOS>ATOM
      1 C         -28.0162   -0.8135   28.8779 C.3     1  UNL1        0.1860
      2 C         -28.4690   -0.7850   29.8287 C.2     1  UNL1        0.3706
      3 C         -26.5042   -0.7777   28.8766 C.3     1  UNL1        0.3298
      4 F         -26.0808   -1.8936   29.1655 F       1  UNL1       -0.1978
      5 F         -25.7418   -0.1688   28.0463 F       1  UNL1       -0.1978
      6 O         -27.9651   -0.4488   30.8779 O.co2   1  UNL1       -0.2454
      7 O         -29.7803   -1.2665   29.9271 O.co2   1  UNL1       -0.2454
@<TRIPOS>BOND
     1     1     2    1
     2     1     3    1
     3     3     4    1
     4     3     5    1
     5     2     6   ar
     6     2     7   ar
