@<TRIPOS>MOLECULE
No_1458-gen_results/8p0m/2024-11-26-14-13-15/
 13 13 0 0 0
SMALL
GASTEIGER

@<TRIPOS>ATOM
      1 C         -28.0162   -0.8135   28.8779 C.3     1  UNL1        0.0520
      2 C         -27.0636   -0.1189   28.6079 C.ar    1  UNL1       -0.0178
      3 C         -26.9287    1.1713   29.0083 C.ar    1  UNL1       -0.0039
      4 C         -25.7702    2.0341   28.6884 C.ar    1  UNL1       -0.0003
      5 C         -24.7141    1.4431   27.9188 C.ar    1  UNL1       -0.0000
      6 C         -24.8590    0.0783   27.5836 C.ar    1  UNL1       -0.0003
      7 C         -25.9647   -0.6606   27.9164 C.ar    1  UNL1       -0.0039
      8 C         -28.0422   -1.5426   30.2417 C.2     1  UNL1       -0.0256
      9 C         -29.0635   -2.4584   30.5917 C.2     1  UNL1       -0.0257
     10 C         -28.7747   -3.5509   31.2409 C.3     1  UNL1        0.0513
     11 C         -29.9110   -4.2663   31.6595 C.2     1  UNL1       -0.0260
     12 C         -31.1344   -4.0074   31.1775 C.2     1  UNL1       -0.0300
     13 C         -31.3891   -2.9117   30.4413 C.3     1  UNL1        0.0304
@<TRIPOS>BOND
     1     1     2    1
     2     1     8    1
     3     8     9    2
     4     9    10    1
     5    10    11    1
     6    11    12    2
     7    12    13    1
     8     2     3   ar
     9     3     4   ar
    10     4     5   ar
    11     5     6   ar
    12     6     7   ar
    13     7     2   ar
