@<TRIPOS>MOLECULE
No_146-gen_results/8p0m/2024-11-26-14-13-15/
 15 15 0 0 0
SMALL
GASTEIGER

@<TRIPOS>ATOM
      1 O         -28.1229   -1.3353   28.4874 O.2     1  UNL1       -0.2702
      2 C         -27.0637   -0.8242   28.8687 C.2     1  UNL1        0.2794
      3 C         -26.9592    0.0926   29.7582 C.3     1  UNL1        0.2891
      4 N         -25.8184   -1.0917   28.1701 N.am    1  UNL1       -0.2024
      5 C         -25.7390    0.7178   30.2339 C.3     1  UNL1        0.0635
      6 C         -24.5767   -0.5776   28.5338 C.3     1  UNL1        0.1265
      7 C         -24.5324    0.3584   29.5603 C.3     1  UNL1        0.1284
      8 C         -23.2523    0.9270   29.9074 C.2     1  UNL1        0.3662
      9 O         -23.2214    1.8452   30.6096 O.co2   1  UNL1       -0.2456
     10 O         -22.1412    0.3249   29.5212 O.co2   1  UNL1       -0.2456
     11 C         -28.1677    0.4334   30.5713 C.3     1  UNL1        0.4327
     12 F         -29.1171    0.8346   30.6566 F       1  UNL1       -0.1668
     13 F         -27.6753    0.2471   31.7696 F       1  UNL1       -0.1668
     14 F         -28.5318   -0.6922   30.4635 F       1  UNL1       -0.1668
     15 F         -27.4866    1.2208   28.9337 F       1  UNL1       -0.2217
@<TRIPOS>BOND
     1     1     2    2
     2     2     3    1
     3     2     4   am
     4     3     5    1
     5     5     7    1
     6     6     7    1
     7     7     8    1
     8     8     9   ar
     9     8    10   ar
    10     3    11    1
    11    11    12    1
    12    11    13    1
    13    11    14    1
    14     3    15    1
    15     6     4    1
