@<TRIPOS>MOLECULE
No_1460-gen_results/8p0m/2024-11-26-14-13-15/
 21 23 0 0 0
SMALL
GASTEIGER

@<TRIPOS>ATOM
      1 C         -28.0162   -0.8135   28.8779 C.2     1  UNL1        0.1881
      2 C         -27.0636   -0.1190   28.6079 C.3     1  UNL1        0.1030
      3 C         -27.0010    0.6913   27.4910 C.2     1  UNL1       -0.0326
      4 C         -27.1778    1.9037   27.5632 C.2     1  UNL1        0.0005
      5 C         -29.3113   -0.2245   28.4756 C.2     1  UNL1        0.0795
      6 C         -28.7654    2.1211   27.8478 C.2     1  UNL1        0.0409
      7 C         -29.6074    1.1032   28.3182 C.1     1  UNL1       -0.0976
      8 C         -25.6839   -0.7110   29.0569 C.ar    1  UNL1       -0.0114
      9 C         -25.3556   -0.5185   30.3400 C.ar    1  UNL1       -0.0035
     10 C         -24.1474   -0.9936   30.8505 C.ar    1  UNL1       -0.0003
     11 C         -23.1809   -1.0740   30.0738 C.ar    1  UNL1       -0.0000
     12 C         -23.3186   -1.0282   28.6440 C.ar    1  UNL1       -0.0003
     13 C         -24.6096   -0.7930   28.1270 C.ar    1  UNL1       -0.0035
     14 O         -28.0570   -1.8662   29.6129 O.2     1  UNL1       -0.2900
     15 C         -26.4396    0.2304   26.2031 C.3     1  UNL1        0.0235
     16 C         -25.8549    1.2420   25.4780 C.3     1  UNL1        0.0148
     17 C         -24.6674    1.6249   25.8500 C.3     1  UNL1        0.0653
     18 C         -23.4288    1.5120   25.4714 C.2     1  UNL1        0.0001
     19 C         -22.3175    2.1869   26.1157 C.2     1  UNL1        0.0943
     20 C         -24.4757    2.6436   27.0607 C.2     1  UNL1        0.0765
     21 N         -23.1244    2.8109   27.1307 N.2     1  UNL1       -0.2470
@<TRIPOS>BOND
     1     1     2    1
     2     2     3    1
     3     3     4    2
     4     1     5    1
     5     4     6    1
     6     5     7    2
     7     6     7    2
     8     2     8    1
     9     1    14    2
    10     3    15    1
    11    15    16    1
    12    16    17    1
    13    17    18    1
    14    18    19    2
    15    17    20    1
    16    19    21    1
    17    20    21    2
    18     8     9   ar
    19     9    10   ar
    20    10    11   ar
    21    11    12   ar
    22    12    13   ar
    23    13     8   ar
