@<TRIPOS>MOLECULE
No_1461-gen_results/8p0m/2024-11-26-14-13-15/
 35 36 0 0 0
SMALL
GASTEIGER

@<TRIPOS>ATOM
      1 C         -28.0162   -0.8135   28.8779 C.ar    1  UNL1        0.0435
      2 C         -27.0636   -0.1189   28.6079 C.ar    1  UNL1        0.0825
      3 C         -25.7647   -0.3897   29.0360 C.ar    1  UNL1        0.0025
      4 C         -25.5296   -1.5302   29.9014 C.ar    1  UNL1       -0.0190
      5 C         -24.3236   -1.9076   30.4324 C.3     1  UNL1        0.0268
      6 C         -27.9274   -1.9227   29.7902 C.ar    1  UNL1        0.1393
      7 C         -26.6914   -2.2806   30.2948 C.ar    1  UNL1        0.0327
      8 C         -23.2806   -2.0391   29.4813 C.3     1  UNL1        0.0093
      9 O         -29.0049   -2.6569   30.1988 O.3     1  UNL1       -0.4637
     10 C         -28.9072   -3.9392   30.6003 C.3     1  UNL1        0.3186
     11 C         -30.1148   -4.4092   31.3299 C.2     1  UNL1        0.4084
     12 O         -30.0111   -5.5313   31.5864 O.co2   1  UNL1       -0.2415
     13 O         -31.0397   -3.7344   31.5589 O.co2   1  UNL1       -0.2415
     14 C         -27.1393    1.0159   27.6270 C.2     1  UNL1        0.3878
     15 O         -26.3990    1.2240   26.7540 O.co2   1  UNL1       -0.2406
     16 O         -28.1802    1.7567   27.7831 O.co2   1  UNL1       -0.2406
     17 C         -22.3825   -0.8585   29.2922 C.3     1  UNL1        0.0264
     18 C         -22.7917    0.2373   28.7475 C.2     1  UNL1       -0.0261
     19 C         -21.9208    1.2920   28.1810 C.2     1  UNL1       -0.0045
     20 C         -22.4552    2.4826   27.6436 C.2     1  UNL1        0.0026
     21 C         -23.9154    2.6267   27.5757 C.2     1  UNL1        0.0387
     22 C         -24.2919    3.8464   27.0131 C.2     1  UNL1        0.1881
     23 C         -24.9353    4.8022   26.9367 C.3     1  UNL1        0.1456
     24 C         -25.7535    5.9528   26.8829 C.3     1  UNL1        0.0505
     25 C         -25.0501    7.1754   27.0813 C.ar    1  UNL1       -0.0205
     26 C         -25.8441    8.3149   27.2209 C.ar    1  UNL1       -0.0045
     27 C         -25.3729    9.4517   27.7003 C.ar    1  UNL1       -0.0046
     28 C         -24.0407    9.4682   28.2734 C.ar    1  UNL1       -0.0225
     29 C         -23.2291    8.3156   28.1225 C.ar    1  UNL1       -0.0046
     30 C         -23.7772    7.2372   27.6520 C.ar    1  UNL1       -0.0045
     31 CL        -25.4981    4.1968   27.7992 Cl      1  UNL1       -0.1063
     32 O         -23.6530    3.7604   25.6997 O.2     1  UNL1       -0.2900
     33 C         -23.4455   10.7106   28.8504 C.3     1  UNL1        0.0224
     34 C         -22.1817   10.7124   29.3016 C.3     1  UNL1        0.0047
     35 C         -24.2607   11.8772   28.9601 C.3     1  UNL1        0.0047
@<TRIPOS>BOND
     1     4     5    1
     2     5     8    1
     3     6     9    1
     4     9    10    1
     5    10    11    1
     6    11    12   ar
     7    11    13   ar
     8     2    14    1
     9    14    15   ar
    10    14    16   ar
    11     8    17    1
    12    17    18    1
    13    18    19    2
    14    19    20    1
    15    20    21    2
    16    21    22    1
    17    22    23    1
    18    23    24    1
    19    24    25    1
    20    23    31    1
    21    22    32    2
    22    28    33    1
    23    33    34    1
    24    33    35    1
    25    25    26   ar
    26    26    27   ar
    27    27    28   ar
    28    28    29   ar
    29    29    30   ar
    30    30    25   ar
    31     1     2   ar
    32     2     3   ar
    33     3     4   ar
    34     4     7   ar
    35     7     6   ar
    36     6     1   ar
