@<TRIPOS>MOLECULE
No_1462-gen_results/8p0m/2024-11-26-14-13-15/
 8 8 0 0 0
SMALL
GASTEIGER

@<TRIPOS>ATOM
      1 C         -28.0162   -0.8135   28.8779 C.1     1  UNL1       -0.0512
      2 C         -28.4690   -0.7850   29.8287 C.1     1  UNL1       -0.0092
      3 C         -27.2166   -0.0832   27.9639 C.ar    1  UNL1        0.0426
      4 C         -26.5094   -0.3500   26.9456 C.ar    1  UNL1        0.0083
      5 C         -25.5425    0.3811   26.5228 C.ar    1  UNL1        0.0006
      6 C         -25.1854    1.6624   26.9425 C.ar    1  UNL1        0.0000
      7 C         -25.9212    2.0637   28.0484 C.ar    1  UNL1        0.0006
      8 C         -26.8361    1.2142   28.5896 C.ar    1  UNL1        0.0083
@<TRIPOS>BOND
     1     1     2    3
     2     1     3    1
     3     3     4   ar
     4     4     5   ar
     5     5     6   ar
     6     6     7   ar
     7     7     8   ar
     8     8     3   ar
