@<TRIPOS>MOLECULE
No_1465-gen_results/8p0m/2024-11-26-14-13-15/
 11 11 0 0 0
SMALL
GASTEIGER

@<TRIPOS>ATOM
      1 C         -28.0162   -0.8135   28.8779 C.3     1  UNL1        0.1515
      2 C         -27.0636   -0.1189   28.6079 C.ar    1  UNL1        0.0020
      3 C         -26.8756    1.1325   28.9134 C.ar    1  UNL1       -0.0027
      4 C         -25.6883    1.9515   28.5672 C.ar    1  UNL1       -0.0045
      5 C         -24.6394    1.2834   27.8753 C.ar    1  UNL1       -0.0219
      6 C         -24.8068   -0.0513   27.6040 C.ar    1  UNL1       -0.0045
      7 C         -25.9020   -0.7670   27.9511 C.ar    1  UNL1       -0.0027
      8 N         -29.1472   -0.2191   28.9761 N.2     1  UNL1       -0.2687
      9 C         -23.4426    1.9742   27.4984 C.3     1  UNL1        0.0310
     10 C         -30.0770   -0.6197   29.8369 C.2     1  UNL1        0.0675
     11 C         -29.9445   -1.9156   30.4168 C.3     1  UNL1        0.0529
@<TRIPOS>BOND
     1     1     8    1
     2     5     9    1
     3     8    10    2
     4    10    11    1
     5     1     2    1
     6     2     3   ar
     7     3     4   ar
     8     4     5   ar
     9     5     6   ar
    10     6     7   ar
    11     7     2   ar
