@<TRIPOS>MOLECULE
No_1466-gen_results/8p0m/2024-11-26-14-13-15/
 11 12 0 0 0
SMALL
GASTEIGER

@<TRIPOS>ATOM
      1 C         -28.0162   -0.8135   28.8779 C.ar    1  UNL1        0.0163
      2 C         -27.0636   -0.1190   28.6079 C.ar    1  UNL1        0.0013
      3 C         -27.0010    0.6913   27.4910 C.ar    1  UNL1        0.0002
      4 C         -28.1373    0.7363   26.6350 C.ar    1  UNL1        0.0059
      5 C         -29.2360    0.0765   27.0690 C.ar    1  UNL1        0.0700
      6 C         -29.2177   -0.6429   28.1747 C.ar    1  UNL1        0.0717
      7 C         -30.4152    0.1590   26.1820 C.2     1  UNL1        0.2676
      8 N         -31.3727   -0.5052   26.4854 N.am    1  UNL1       -0.1776
      9 O         -30.3871    0.8406   25.1078 O.2     1  UNL1       -0.2683
     10 C         -31.5632   -1.3179   27.6250 C.3     1  UNL1        0.2270
     11 N         -30.4034   -1.3808   28.4672 N.pl3   1  UNL1       -0.2141
@<TRIPOS>BOND
     1     5     7    1
     2     7     8   am
     3     7     9    2
     4     8    10    1
     5     6    11    1
     6    11    10    1
     7     1     2   ar
     8     2     3   ar
     9     3     4   ar
    10     4     5   ar
    11     5     6   ar
    12     6     1   ar
