@<TRIPOS>MOLECULE
No_1468-gen_results/8p0m/2024-11-26-14-13-15/
 18 18 0 0 0
SMALL
GASTEIGER

@<TRIPOS>ATOM
      1 C         -28.0162   -0.8135   28.8779 C.ar    1  UNL1        0.0263
      2 C         -28.4690   -0.7850   29.8287 C.ar    1  UNL1        0.1398
      3 C         -26.5042   -0.7777   28.8766 C.ar    1  UNL1       -0.0072
      4 C         -25.8103   -0.8531   30.1028 C.ar    1  UNL1       -0.0169
      5 C         -27.9906   -0.8916   31.2257 C.ar    1  UNL1        0.0293
      6 C         -26.6042   -0.8676   31.2652 C.ar    1  UNL1       -0.0018
      7 F         -29.9203   -0.8331   29.8239 F       1  UNL1       -0.2042
      8 C         -24.3796   -0.8022   30.1424 C.3     1  UNL1        0.1001
      9 C         -23.8075    0.5641   30.1478 C.2     1  UNL1        0.2323
     10 C         -23.2709    1.1039   28.9795 C.2     1  UNL1        0.3071
     11 N         -23.7616    2.2243   28.4257 N.am    1  UNL1       -0.1292
     12 C         -23.4264    2.4765   27.1117 C.2     1  UNL1        0.3072
     13 N         -24.0933    3.3827   26.4391 N.pl3   1  UNL1       -0.0789
     14 O         -22.4355    0.3747   28.3738 O.2     1  UNL1       -0.2647
     15 F         -22.6362    1.9205   26.4097 F       1  UNL1       -0.1654
     16 C         -25.7007   -0.7302   27.6252 C.3     1  UNL1        0.1209
     17 O         -24.0225    1.3853   31.1987 O.2     1  UNL1       -0.2861
     18 CL        -26.1105    0.3229   26.3856 Cl      1  UNL1       -0.1085
@<TRIPOS>BOND
     1     2     7    1
     2     4     8    1
     3     8     9    1
     4     9    10    1
     5    10    11    1
     6    11    12    2
     7    12    13    1
     8    10    14    2
     9    12    15    1
    10     3    16    1
    11     9    17    2
    12    16    18    1
    13     1     2   ar
    14     2     5   ar
    15     5     6   ar
    16     6     4   ar
    17     4     3   ar
    18     3     1   ar
