@<TRIPOS>MOLECULE
No_1469-gen_results/8p0m/2024-11-26-14-13-15/
 26 28 0 0 0
SMALL
GASTEIGER

@<TRIPOS>ATOM
      1 C         -28.0162   -0.8135   28.8779 C.ar    1  UNL1       -0.0033
      2 C         -28.4690   -0.7850   29.8287 C.ar    1  UNL1        0.0028
      3 C         -27.0871    0.2903   28.6377 C.ar    1  UNL1       -0.0067
      4 C         -26.2516    0.4114   27.4223 C.3     1  UNL1        0.1243
      5 C         -28.3913    0.1041   30.9805 C.ar    1  UNL1        0.0370
      6 C         -27.5332    1.1666   30.7866 C.ar    1  UNL1        0.1416
      7 C         -26.8281    1.2557   29.6454 C.ar    1  UNL1        0.0335
      8 C         -24.9668    0.4106   27.5252 C.ar    1  UNL1       -0.0095
      9 C         -24.2606    0.1651   28.7211 C.ar    1  UNL1       -0.0002
     10 C         -22.8025    0.3417   28.7027 C.ar    1  UNL1        0.0417
     11 C         -22.2130    1.1395   27.7293 C.ar    1  UNL1        0.1957
     12 C         -22.9458    1.6505   26.6537 C.ar    1  UNL1        0.0417
     13 C         -24.3179    1.3047   26.5366 C.ar    1  UNL1       -0.0002
     14 C         -26.9341    0.2181   26.1895 C.2     1  UNL1        0.2685
     15 N         -26.5519    0.0797   25.1212 N.am    1  UNL1       -0.0872
     16 O         -28.2288    0.6098   26.1768 O.2     1  UNL1       -0.2710
     17 O         -20.9185    1.4828   27.8684 O.3     1  UNL1       -0.2866
     18 O         -27.3586    2.0867   31.7797 O.3     1  UNL1       -0.4460
     19 C         -27.4925    3.3638   31.6253 C.3     1  UNL1        0.3511
     20 C         -26.4414    4.0759   31.8318 C.ar    1  UNL1        0.0520
     21 C         -26.3787    5.5400   31.5119 C.ar    1  UNL1        0.0020
     22 C         -25.1915    6.2899   31.7335 C.ar    1  UNL1       -0.0001
     23 C         -24.0938    5.7614   32.4763 C.ar    1  UNL1       -0.0000
     24 C         -24.1106    4.4174   32.7596 C.ar    1  UNL1       -0.0001
     25 C         -25.1692    3.6610   32.4639 C.ar    1  UNL1        0.0020
     26 F         -28.4627    3.7740   31.0317 F       1  UNL1       -0.1833
@<TRIPOS>BOND
     1     3     4    1
     2     4    14    1
     3    14    15   am
     4    14    16    2
     5    11    17    1
     6     6    18    1
     7    18    19    1
     8    19    26    1
     9     4     8    1
    10    19    20    1
    11     8     9   ar
    12     9    10   ar
    13    10    11   ar
    14    11    12   ar
    15    12    13   ar
    16    13     8   ar
    17     1     2   ar
    18     2     5   ar
    19     5     6   ar
    20     6     7   ar
    21     7     3   ar
    22     3     1   ar
    23    20    21   ar
    24    21    22   ar
    25    22    23   ar
    26    23    24   ar
    27    24    25   ar
    28    25    20   ar
