@<TRIPOS>MOLECULE
No_147-gen_results/8p0m/2024-11-26-14-13-15/
 26 28 0 0 0
SMALL
GASTEIGER

@<TRIPOS>ATOM
      1 C         -28.0162   -0.8135   28.8779 C.ar    1  UNL1        0.0064
      2 C         -27.0636   -0.1189   28.6079 C.ar    1  UNL1        0.0002
      3 C         -25.7647   -0.3897   29.0360 C.ar    1  UNL1        0.0000
      4 C         -24.5516    0.4058   28.7646 C.ar    1  UNL1        0.0000
      5 C         -23.2300    0.1178   29.2575 C.ar    1  UNL1        0.0000
      6 C         -22.1393    0.9427   28.9224 C.ar    1  UNL1        0.0000
      7 C         -27.8294   -1.9287   29.8545 C.ar    1  UNL1        0.0756
      8 C         -26.5882   -2.3272   30.2682 C.ar    1  UNL1        0.0064
      9 C         -25.4565   -1.5432   29.9146 C.ar    1  UNL1        0.0002
     10 C         -22.2302    1.9089   27.8723 C.ar    1  UNL1        0.0000
     11 C         -24.5538    1.4700   27.7617 C.ar    1  UNL1        0.0000
     12 C         -23.4471    2.1666   27.3764 C.ar    1  UNL1        0.0000
     13 C         -28.9783   -2.7708   30.2578 C.2     1  UNL1        0.3412
     14 O         -28.9057   -3.9951   30.3320 O.2     1  UNL1       -0.2449
     15 O         -30.0675   -2.2106   30.6115 O.3     1  UNL1       -0.4454
     16 C         -31.2286   -2.9189   30.8713 C.3     1  UNL1        0.2092
     17 C         -32.4503   -2.2524   30.5694 C.3     1  UNL1        0.0533
     18 C         -32.3770   -0.8933   30.5294 C.3     1  UNL1        0.0451
     19 C         -32.3841   -0.2224   31.7070 C.ar    1  UNL1       -0.0209
     20 C         -33.0098   -0.3968   32.6897 C.ar    1  UNL1       -0.0042
     21 C         -32.9040    0.3762   33.9314 C.ar    1  UNL1       -0.0003
     22 C         -31.9794    1.4125   33.9259 C.ar    1  UNL1       -0.0000
     23 C         -31.3660    0.9515   31.7389 C.ar    1  UNL1       -0.0042
     24 C         -31.2130    1.6994   32.8588 C.ar    1  UNL1       -0.0003
     25 C         -32.4401   -0.1727   29.2557 C.3     1  UNL1        0.1137
     26 N         -32.0156    0.9050   29.0675 N.3     1  UNL1       -0.1310
@<TRIPOS>BOND
     1     3     4    1
     2     7    13    1
     3    13    14    2
     4    13    15    1
     5    15    16    1
     6    16    17    1
     7    17    18    1
     8    18    19    1
     9    18    25    1
    10    25    26    1
    11     1     2   ar
    12     2     3   ar
    13     3     9   ar
    14     9     8   ar
    15     8     7   ar
    16     7     1   ar
    17     4     5   ar
    18     5     6   ar
    19     6    10   ar
    20    10    12   ar
    21    12    11   ar
    22    11     4   ar
    23    19    20   ar
    24    20    21   ar
    25    21    22   ar
    26    22    24   ar
    27    24    23   ar
    28    23    19   ar
