@<TRIPOS>MOLECULE
No_1470-gen_results/8p0m/2024-11-26-14-13-15/
 19 21 0 0 0
SMALL
GASTEIGER

@<TRIPOS>ATOM
      1 C         -28.0162   -0.8135   28.8779 C.ar    1  UNL1        0.0108
      2 C         -28.4690   -0.7850   29.8287 C.ar    1  UNL1       -0.0034
      3 C         -28.1960    0.3478   28.0550 C.ar    1  UNL1        0.0540
      4 C         -29.0191    1.3501   28.3782 C.ar    1  UNL1       -0.0075
      5 C         -29.4107    0.1803   30.3782 C.ar    1  UNL1       -0.0221
      6 C         -29.2236    2.4924   27.5425 C.3     1  UNL1        0.0535
      7 C         -29.5873    1.2242   29.6185 C.ar    1  UNL1       -0.0074
      8 C         -28.6297    3.5259   27.9871 C.ar    1  UNL1       -0.0178
      9 C         -27.7707    4.1806   27.8231 C.ar    1  UNL1       -0.0039
     10 C         -27.2250    5.4109   28.4768 C.ar    1  UNL1       -0.0003
     11 C         -27.8667    5.7399   29.6333 C.ar    1  UNL1       -0.0000
     12 C         -28.9346    5.0392   30.0016 C.ar    1  UNL1       -0.0003
     13 C         -29.1951    3.9820   29.4219 C.ar    1  UNL1       -0.0036
     14 CL        -27.3725    0.3414   26.5184 Cl      1  UNL1       -0.0826
     15 C         -30.0282    0.0314   31.7627 C.3     1  UNL1        0.0310
     16 C         -29.5613    5.3712   31.3122 C.ar    1  UNL1       -0.0000
     17 C         -30.6338    4.7277   31.7367 C.ar    1  UNL1       -0.0000
     18 C         -31.0582    3.6417   30.8945 C.ar    1  UNL1       -0.0000
     19 C         -30.4122    3.2653   29.8114 C.ar    1  UNL1       -0.0003
@<TRIPOS>BOND
     1     4     6    1
     2     6     8    1
     3     3    14    1
     4     5    15    1
     5    13    19   ar
     6    19    18   ar
     7    18    17   ar
     8    17    16   ar
     9    16    12   ar
    10     8     9   ar
    11     9    10   ar
    12    10    11   ar
    13    11    12   ar
    14    12    13   ar
    15    13     8   ar
    16     1     2   ar
    17     2     5   ar
    18     5     7   ar
    19     7     4   ar
    20     4     3   ar
    21     3     1   ar
