@<TRIPOS>MOLECULE
No_1471-gen_results/8p0m/2024-11-26-14-13-15/
 21 24 0 0 0
SMALL
GASTEIGER

@<TRIPOS>ATOM
      1 C         -28.0162   -0.8135   28.8779 C.ar    1  UNL1       -0.0023
      2 C         -27.0636   -0.1189   28.6079 C.ar    1  UNL1        0.0010
      3 C         -25.7923   -0.4302   29.0761 C.ar    1  UNL1        0.0671
      4 C         -25.5756   -1.5654   29.9363 C.ar    1  UNL1        0.0162
      5 C         -26.7354   -2.3004   30.2173 C.ar    1  UNL1        0.0013
      6 C         -27.9184   -1.9537   29.7629 C.ar    1  UNL1       -0.0002
      7 C         -27.1057    1.1023   27.7593 C.3     1  UNL1        0.0692
      8 C         -26.1219    1.4820   27.0232 C.ar    1  UNL1        0.0010
      9 C         -25.9942    2.5497   26.3269 C.ar    1  UNL1       -0.0023
     10 C         -24.7434    3.0624   25.7276 C.ar    1  UNL1       -0.0002
     11 C         -23.6015    2.2498   25.9054 C.ar    1  UNL1        0.0013
     12 C         -23.7193    1.1110   26.6916 C.ar    1  UNL1        0.0162
     13 C         -24.8576    0.7285   27.2592 C.ar    1  UNL1        0.0671
     14 N         -24.8080   -0.2520   28.2181 N.pl3   1  UNL1       -0.2131
     15 C         -28.4824    1.6316   27.5160 C.ar    1  UNL1       -0.0146
     16 C         -28.9791    2.4974   28.4726 C.ar    1  UNL1       -0.0037
     17 C         -30.2495    2.9798   28.3773 C.ar    1  UNL1       -0.0006
     18 C         -29.1634    1.2794   26.4290 C.ar    1  UNL1       -0.0079
     19 C         -30.4474    1.7663   26.2326 C.ar    1  UNL1       -0.0221
     20 C         -30.9729    2.6474   27.2115 C.ar    1  UNL1       -0.0043
     21 C         -31.2285    1.3875   25.0859 C.3     1  UNL1        0.0310
@<TRIPOS>BOND
     1     2     7    1
     2     7     8    1
     3     3    14    1
     4    13    14    1
     5     7    15    1
     6    19    21    1
     7    15    16   ar
     8    16    17   ar
     9    17    20   ar
    10    20    19   ar
    11    19    18   ar
    12    18    15   ar
    13     1     2   ar
    14     2     3   ar
    15     3     4   ar
    16     4     5   ar
    17     5     6   ar
    18     6     1   ar
    19     8     9   ar
    20     9    10   ar
    21    10    11   ar
    22    11    12   ar
    23    12    13   ar
    24    13     8   ar
