@<TRIPOS>MOLECULE
No_1473-gen_results/8p0m/2024-11-26-14-13-15/
 19 21 0 0 0
SMALL
GASTEIGER

@<TRIPOS>ATOM
      1 C         -28.0162   -0.8135   28.8779 C.ar    1  UNL1        0.0001
      2 C         -28.4690   -0.7850   29.8287 C.ar    1  UNL1        0.0000
      3 C         -27.1356    0.2359   28.5352 C.ar    1  UNL1        0.0027
      4 C         -26.8745    1.2825   29.3982 C.ar    1  UNL1        0.0001
      5 C         -27.5070    1.2380   30.6295 C.ar    1  UNL1        0.0000
      6 C         -28.3293    0.1745   30.9350 C.ar    1  UNL1        0.0000
      7 C         -26.4077    0.3070   27.2259 C.ar    1  UNL1        0.0334
      8 C         -25.0105    0.3902   27.3228 C.ar    1  UNL1        0.0044
      9 C         -27.0459    0.3289   26.0049 C.ar    1  UNL1        0.1516
     10 N         -26.2540    0.2395   24.9572 N.ar    1  UNL1       -0.2274
     11 C         -24.2138    0.6578   26.1873 C.ar    1  UNL1        0.0208
     12 C         -24.9126    0.4990   24.9659 C.ar    1  UNL1        0.1004
     13 N         -28.3163    0.1309   25.8459 N.pl3   1  UNL1       -0.1941
     14 C         -29.1840    1.0309   25.3130 C.ar    1  UNL1        0.0721
     15 C         -30.5468    0.7848   25.3022 C.ar    1  UNL1        0.0166
     16 C         -28.6652    2.2706   24.8604 C.ar    1  UNL1        0.0166
     17 C         -29.5095    3.2369   24.3443 C.ar    1  UNL1        0.0013
     18 C         -31.3849    1.7731   24.7485 C.ar    1  UNL1        0.0013
     19 C         -30.8519    3.0105   24.2733 C.ar    1  UNL1        0.0001
@<TRIPOS>BOND
     1     3     7    1
     2     9    13    1
     3    13    14    1
     4    14    15   ar
     5    15    18   ar
     6    18    19   ar
     7    19    17   ar
     8    17    16   ar
     9    16    14   ar
    10     1     2   ar
    11     2     6   ar
    12     6     5   ar
    13     5     4   ar
    14     4     3   ar
    15     3     1   ar
    16     7     8   ar
    17     8    11   ar
    18    11    12   ar
    19    12    10   ar
    20    10     9   ar
    21     9     7   ar
