@<TRIPOS>MOLECULE
No_1474-gen_results/8p0m/2024-11-26-14-13-15/
 35 38 0 0 0
SMALL
GASTEIGER

@<TRIPOS>ATOM
      1 C         -28.0162   -0.8135   28.8779 C.ar    1  UNL1       -0.0000
      2 C         -28.4690   -0.7850   29.8287 C.ar    1  UNL1       -0.0000
      3 C         -28.1960    0.3478   28.0550 C.ar    1  UNL1       -0.0001
      4 C         -29.0191    1.3501   28.3782 C.ar    1  UNL1       -0.0000
      5 C         -29.6249    1.2683   29.6012 C.ar    1  UNL1       -0.0000
      6 C         -29.3821    0.1816   30.4004 C.ar    1  UNL1       -0.0000
      7 C         -27.4591    0.3787   26.7048 C.ar    1  UNL1        0.0027
      8 C         -26.1346    0.3565   26.8185 C.ar    1  UNL1       -0.0176
      9 C         -25.3307    0.2623   28.0083 C.3     1  UNL1        0.0523
     10 C         -23.9452    0.2952   27.9570 C.ar    1  UNL1       -0.0214
     11 C         -23.1537    0.0275   29.1149 C.ar    1  UNL1       -0.0221
     12 C         -21.7671    0.0280   28.9884 C.ar    1  UNL1       -0.0043
     13 C         -21.1246    0.7902   28.0303 C.ar    1  UNL1       -0.0003
     14 C         -21.9722    1.4746   27.0813 C.ar    1  UNL1       -0.0003
     15 C         -23.3270    1.2810   27.1375 C.ar    1  UNL1       -0.0042
     16 C         -28.2120    0.3830   25.5725 C.ar    1  UNL1        0.0795
     17 C         -29.4656    0.1753   25.4833 C.2     1  UNL1        0.3877
     18 C         -27.4162    0.6069   24.3544 C.ar    1  UNL1        0.0066
     19 C         -25.3809    0.4918   25.5874 C.ar    1  UNL1       -0.0039
     20 C         -26.0407    0.5505   24.4100 C.ar    1  UNL1       -0.0001
     21 O         -30.4089    0.6789   26.0946 O.co2   1  UNL1       -0.2406
     22 O         -29.9343   -0.6945   24.5152 O.co2   1  UNL1       -0.2406
     23 C         -23.7412   -0.9515   30.0886 C.3     1  UNL1        0.0440
     24 C         -24.0087   -2.2377   29.8470 C.3     1  UNL1        0.0094
     25 C         -24.0288   -0.3180   31.3804 C.2     1  UNL1       -0.0221
     26 C         -25.2177    0.0843   31.6932 C.2     1  UNL1       -0.0040
     27 C         -25.6171    0.7573   32.8683 C.ar    1  UNL1        0.0061
     28 C         -25.9235    2.1077   32.7386 C.ar    1  UNL1        0.0798
     29 C         -26.5204    2.8386   33.8118 C.ar    1  UNL1        0.0066
     30 C         -26.9900    2.0736   34.8840 C.ar    1  UNL1        0.0002
     31 C         -26.8513    0.7280   34.9699 C.ar    1  UNL1        0.0000
     32 C         -26.2184    0.0149   33.9304 C.ar    1  UNL1        0.0002
     33 C         -25.4026    2.8997   31.6349 C.2     1  UNL1        0.3878
     34 O         -25.1981    4.0286   31.6971 O.co2   1  UNL1       -0.2406
     35 O         -25.4979    2.3588   30.4014 O.co2   1  UNL1       -0.2406
@<TRIPOS>BOND
     1     3     7    1
     2     8     9    1
     3    16    17    1
     4    17    21   ar
     5    17    22   ar
     6    11    23    1
     7    23    24    1
     8    23    25    1
     9    25    26    2
    10    26    27    1
    11    28    33    1
    12    33    34   ar
    13    33    35   ar
    14     9    10    1
    15     1     2   ar
    16     2     6   ar
    17     6     5   ar
    18     5     4   ar
    19     4     3   ar
    20     3     1   ar
    21    10    11   ar
    22    11    12   ar
    23    12    13   ar
    24    13    14   ar
    25    14    15   ar
    26    15    10   ar
    27     7     8   ar
    28     8    19   ar
    29    19    20   ar
    30    20    18   ar
    31    18    16   ar
    32    16     7   ar
    33    27    28   ar
    34    28    29   ar
    35    29    30   ar
    36    30    31   ar
    37    31    32   ar
    38    32    27   ar
