@<TRIPOS>MOLECULE
No_1475-gen_results/8p0m/2024-11-26-14-13-15/
 27 30 0 0 0
SMALL
GASTEIGER

@<TRIPOS>ATOM
      1 C         -28.0162   -0.8135   28.8779 C.ar    1  UNL1        0.0817
      2 C         -27.0636   -0.1190   28.6079 C.ar    1  UNL1        0.0025
      3 C         -26.9716    0.7139   27.5060 C.ar    1  UNL1       -0.0189
      4 C         -28.1053    0.7744   26.6421 C.ar    1  UNL1        0.0017
      5 C         -28.0677    1.4872   25.5121 C.3     1  UNL1        0.0283
      6 C         -29.2691   -0.5335   28.2245 C.ar    1  UNL1        0.0359
      7 C         -29.2230    0.1355   27.0328 C.ar    1  UNL1        0.1360
      8 F         -30.3265    0.1946   26.3497 F       1  UNL1       -0.2045
      9 C         -28.0316   -1.6666   30.1669 C.2     1  UNL1        0.3878
     10 O         -27.0859   -2.4607   30.3530 O.co2   1  UNL1       -0.2406
     11 O         -28.9716   -1.6464   30.9512 O.co2   1  UNL1       -0.2406
     12 C         -25.6766    1.3423   27.0824 C.3     1  UNL1        0.0573
     13 C         -24.5146    0.7298   27.1040 C.ar    1  UNL1       -0.0173
     14 C         -23.3259    1.4489   26.9298 C.ar    1  UNL1       -0.0039
     15 C         -22.0846    1.1220   27.4982 C.ar    1  UNL1       -0.0003
     16 C         -22.0146    0.0919   28.4612 C.ar    1  UNL1       -0.0000
     17 C         -23.2312   -0.6398   28.7229 C.ar    1  UNL1       -0.0003
     18 C         -24.4300   -0.3280   28.1449 C.ar    1  UNL1       -0.0039
     19 C         -25.9757    1.7521   25.6228 C.3     1  UNL1        0.0102
     20 C         -26.9554    2.0474   25.0124 C.3     1  UNL1        0.0055
     21 C         -25.7216    2.7720   27.8793 C.3     1  UNL1        0.1102
     22 C         -25.4557    3.9642   27.1961 C.2     1  UNL1       -0.0113
     23 C         -25.9668    2.7242   29.3159 C.2     1  UNL1       -0.0113
     24 C         -26.3139    3.9536   29.9286 C.2     1  UNL1       -0.0245
     25 C         -25.6011    5.2357   27.9422 C.2     1  UNL1       -0.0245
     26 C         -25.9621    5.2004   29.2941 C.3     1  UNL1        0.0514
     27 CL        -24.9158    3.2593   28.2458 Cl      1  UNL1       -0.1066
@<TRIPOS>BOND
     1     4     5    1
     2     7     8    1
     3     1     9    1
     4     9    10   ar
     5     9    11   ar
     6     3    12    1
     7    12    13    1
     8    12    19    1
     9    19    20    1
    10    12    21    1
    11    21    22    1
    12    21    23    1
    13    23    24    2
    14    22    25    2
    15    24    26    1
    16    25    26    1
    17    21    27    1
    18     5    20    1
    19    13    14   ar
    20    14    15   ar
    21    15    16   ar
    22    16    17   ar
    23    17    18   ar
    24    18    13   ar
    25     1     2   ar
    26     2     3   ar
    27     3     4   ar
    28     4     7   ar
    29     7     6   ar
    30     6     1   ar
