@<TRIPOS>MOLECULE
No_1476-gen_results/8p0m/2024-11-26-14-13-15/
 18 21 0 0 0
SMALL
GASTEIGER

@<TRIPOS>ATOM
      1 C         -28.0162   -0.8135   28.8779 C.3     1  UNL1        0.0948
      2 C         -27.0636   -0.1190   28.6079 C.ar    1  UNL1       -0.0104
      3 C         -27.0010    0.6913   27.4910 C.ar    1  UNL1       -0.0032
      4 C         -25.7770    1.0214   26.9135 C.ar    1  UNL1       -0.0003
      5 C         -24.5088    0.7364   27.5686 C.ar    1  UNL1       -0.0003
      6 C         -24.5930   -0.0361   28.7390 C.ar    1  UNL1       -0.0042
      7 C         -25.8114   -0.4771   29.1584 C.ar    1  UNL1       -0.0248
      8 N         -29.1846   -0.1268   29.1129 N.3     1  UNL1       -0.2151
      9 C         -30.2998   -0.7204   29.6291 C.3     1  UNL1        0.0890
     10 C         -23.2575    1.2897   27.0813 C.ar    1  UNL1       -0.0000
     11 C         -22.1233    1.1603   27.9078 C.ar    1  UNL1       -0.0000
     12 C         -22.1474    0.3016   28.9739 C.ar    1  UNL1       -0.0000
     13 C         -23.3681   -0.2772   29.4189 C.ar    1  UNL1       -0.0003
     14 C         -30.0937   -1.6241   30.5987 C.3     1  UNL1        0.0189
     15 C         -28.9120   -2.4820   30.5164 C.3     1  UNL1        0.0035
     16 C         -27.6921   -1.6554   30.2474 C.3     1  UNL1        0.0227
     17 C         -26.3021   -2.0974   29.9895 C.3     1  UNL1        0.0277
     18 C         -27.5554   -0.5559   31.4630 C.3     1  UNL1        0.0021
@<TRIPOS>BOND
     1     1     2    1
     2     1     8    1
     3     8     9    1
     4    14    15    1
     5     1    16    1
     6    15    16    1
     7     7    17    1
     8    16    17    1
     9    16    18    1
    10     9    14    1
    11     6    13   ar
    12    13    12   ar
    13    12    11   ar
    14    11    10   ar
    15    10     5   ar
    16     2     3   ar
    17     3     4   ar
    18     4     5   ar
    19     5     6   ar
    20     6     7   ar
    21     7     2   ar
