@<TRIPOS>MOLECULE
No_1477-gen_results/8p0m/2024-11-26-14-13-15/
 32 33 0 0 0
SMALL
GASTEIGER

@<TRIPOS>ATOM
      1 C         -28.0162   -0.8135   28.8779 C.ar    1  UNL1        0.0442
      2 C         -27.0636   -0.1190   28.6079 C.ar    1  UNL1        0.0828
      3 C         -25.7647   -0.3897   29.0360 C.ar    1  UNL1        0.0068
      4 C         -25.5296   -1.5302   29.9014 C.ar    1  UNL1        0.0033
      5 C         -26.6577   -2.2915   30.2035 C.ar    1  UNL1        0.0376
      6 C         -27.8548   -1.9555   29.7630 C.ar    1  UNL1        0.1492
      7 C         -24.5441    0.4126   28.7379 C.ar    1  UNL1        0.0064
      8 C         -24.0952    1.3785   29.5751 C.ar    1  UNL1        0.0756
      9 C         -22.9780    2.1448   29.2566 C.ar    1  UNL1        0.0064
     10 C         -22.2496    1.9089   28.0531 C.ar    1  UNL1        0.0002
     11 C         -23.7843    0.2749   27.5458 C.ar    1  UNL1        0.0002
     12 C         -22.7252    0.9953   27.2629 C.ar    1  UNL1        0.0000
     13 C         -24.7666    1.6262   30.9100 C.2     1  UNL1        0.3414
     14 O         -24.9337    0.7586   31.5742 O.2     1  UNL1       -0.2449
     15 O         -25.0207    2.8820   31.1767 O.3     1  UNL1       -0.4391
     16 C         -27.2105    1.0797   27.6732 C.2     1  UNL1        0.3879
     17 O         -27.5898    1.0398   26.5752 O.co2   1  UNL1       -0.2406
     18 O         -26.9832    2.3185   28.2583 O.co2   1  UNL1       -0.2406
     19 C         -25.8321    3.2209   32.2289 C.3     1  UNL1        0.2836
     20 C         -25.8478    4.5869   32.4895 C.3     1  UNL1        0.3883
     21 C         -25.4049    5.3903   31.5442 C.3     1  UNL1        0.4583
     22 F         -25.5322    4.8326   30.5060 F       1  UNL1       -0.1649
     23 F         -24.1318    5.7621   31.7290 F       1  UNL1       -0.1649
     24 F         -27.0861    4.8806   33.0656 F       1  UNL1       -0.1910
     25 F         -25.9720    6.6432   31.6344 F       1  UNL1       -0.1649
     26 F         -25.1736    4.7030   33.8032 F       1  UNL1       -0.1910
     27 O         -28.9385   -2.6828   30.1111 O.3     1  UNL1       -0.4172
     28 C         -30.0811   -2.1697   30.5852 C.2     1  UNL1        0.4146
     29 C         -31.1836   -2.7374   30.0528 C.2     1  UNL1        0.4090
     30 O         -32.1078   -2.1665   29.5870 O.2     1  UNL1       -0.2468
     31 F         -31.4573   -3.9891   30.4708 F       1  UNL1       -0.1520
     32 O         -30.0702   -1.1415   31.2723 O.2     1  UNL1       -0.2381
@<TRIPOS>BOND
     1     3     7    1
     2     8    13    1
     3    13    14    2
     4    13    15    1
     5     2    16    1
     6    16    17   ar
     7    16    18   ar
     8    15    19    1
     9    19    20    1
    10    20    21    1
    11    21    22    1
    12    21    23    1
    13    20    24    1
    14    21    25    1
    15    20    26    1
    16     6    27    1
    17    27    28    1
    18    28    29    1
    19    29    30    2
    20    29    31    1
    21    28    32    2
    22     7     8   ar
    23     8     9   ar
    24     9    10   ar
    25    10    12   ar
    26    12    11   ar
    27    11     7   ar
    28     1     2   ar
    29     2     3   ar
    30     3     4   ar
    31     4     5   ar
    32     5     6   ar
    33     6     1   ar
