@<TRIPOS>MOLECULE
No_1478-gen_results/8p0m/2024-11-26-14-13-15/
 14 14 0 0 0
SMALL
GASTEIGER

@<TRIPOS>ATOM
      1 C         -28.0162   -0.8135   28.8779 C.ar    1  UNL1        0.0035
      2 C         -28.4690   -0.7850   29.8287 C.ar    1  UNL1        0.0795
      3 C         -26.5455   -0.8762   28.8500 C.ar    1  UNL1       -0.0070
      4 C         -25.8041   -1.0324   30.0571 C.ar    1  UNL1        0.0540
      5 C         -27.9437   -0.9869   31.2075 C.ar    1  UNL1        0.0074
      6 C         -26.5825   -1.0386   31.2231 C.ar    1  UNL1        0.0113
      7 C         -30.0606   -0.7371   29.9024 C.2     1  UNL1        0.3877
      8 O         -30.5524   -0.2769   29.0111 O.co2   1  UNL1       -0.2406
      9 O         -30.7150   -1.5538   30.7949 O.co2   1  UNL1       -0.2406
     10 CL        -24.1326   -0.9763   29.8938 Cl      1  UNL1       -0.0826
     11 C         -25.6864   -0.7836   27.5922 C.3     1  UNL1        0.0528
     12 C         -25.5222    0.5960   27.1004 C.2     1  UNL1       -0.0259
     13 C         -24.6643    1.2355   27.3826 C.2     1  UNL1       -0.0300
     14 C         -23.5991    0.9636   28.4174 C.3     1  UNL1        0.0304
@<TRIPOS>BOND
     1     2     7    1
     2     7     8   ar
     3     7     9   ar
     4     4    10    1
     5     3    11    1
     6    11    12    1
     7    12    13    2
     8    13    14    1
     9     1     2   ar
    10     2     5   ar
    11     5     6   ar
    12     6     4   ar
    13     4     3   ar
    14     3     1   ar
