@<TRIPOS>MOLECULE
No_148-gen_results/8p0m/2024-11-26-14-13-15/
 14 15 0 0 0
SMALL
GASTEIGER

@<TRIPOS>ATOM
      1 C         -28.0162   -0.8135   28.8779 C.ar    1  UNL1       -0.0003
      2 C         -27.0636   -0.1189   28.6079 C.ar    1  UNL1        0.0256
      3 C         -25.7923   -0.4302   29.0761 C.ar    1  UNL1       -0.0003
      4 C         -25.5756   -1.5654   29.9363 C.ar    1  UNL1       -0.0002
      5 C         -26.7354   -2.3004   30.2173 C.ar    1  UNL1       -0.0000
      6 C         -27.9184   -1.9537   29.7629 C.ar    1  UNL1       -0.0002
      7 C         -27.1057    1.1023   27.7593 C.3     1  UNL1        0.2449
      8 N         -27.8512    1.5044   27.1726 N.3     1  UNL1       -0.2429
      9 F         -25.9292    1.8108   27.6220 F       1  UNL1       -0.2140
     10 C         -29.1581    1.2128   27.3745 C.3     1  UNL1        0.0748
     11 C         -30.0971    1.6494   26.2942 C.3     1  UNL1        0.0175
     12 C         -27.7566    2.3317   25.9472 C.3     1  UNL1        0.0748
     13 C         -28.7084    2.6214   25.0746 C.3     1  UNL1        0.0175
     14 C         -29.9685    2.3945   25.3440 C.3     1  UNL1        0.0029
@<TRIPOS>BOND
     1     2     7    1
     2     7     8    1
     3     7     9    1
     4     8    10    1
     5     8    12    1
     6    11    14    1
     7    13    14    1
     8    10    11    1
     9    13    12    1
    10     1     2   ar
    11     2     3   ar
    12     3     4   ar
    13     4     5   ar
    14     5     6   ar
    15     6     1   ar
