@<TRIPOS>MOLECULE
No_1480-gen_results/8p0m/2024-11-26-14-13-15/
 28 31 0 0 0
SMALL
GASTEIGER

@<TRIPOS>ATOM
      1 C         -28.0162   -0.8135   28.8779 C.ar    1  UNL1        0.0012
      2 C         -28.4690   -0.7850   29.8287 C.ar    1  UNL1        0.0001
      3 C         -28.1960    0.3478   28.0550 C.ar    1  UNL1        0.0141
      4 C         -27.4421    0.5100   26.7946 C.ar    1  UNL1       -0.0149
      5 C         -27.8427    1.3330   25.8056 C.ar    1  UNL1        0.0141
      6 C         -29.4956    0.1092   30.3452 C.ar    1  UNL1        0.0015
      7 C         -29.7284    1.1870   29.5687 C.ar    1  UNL1        0.0191
      8 C         -29.0420    1.3665   28.3718 C.ar    1  UNL1        0.0810
      9 C         -26.1281   -0.0671   26.6257 C.3     1  UNL1        0.0525
     10 C         -25.2466   -0.2457   27.7552 C.2     1  UNL1       -0.0169
     11 C         -24.7043    0.7314   28.5496 C.2     1  UNL1        0.0497
     12 C         -24.5183    2.0454   28.0076 C.ar    1  UNL1        0.0041
     13 C         -23.5501    2.1656   27.1948 C.ar    1  UNL1        0.0001
     14 C         -25.2854    3.1431   28.4706 C.ar    1  UNL1        0.0001
     15 C         -25.1625    4.4247   27.8818 C.ar    1  UNL1        0.0000
     16 C         -23.4132    3.5197   26.4700 C.ar    1  UNL1        0.0000
     17 C         -24.2631    4.5656   26.8516 C.ar    1  UNL1        0.0000
     18 C         -27.2586    1.5048   24.7697 C.ar    1  UNL1        0.0012
     19 C         -27.8980    2.2940   23.7643 C.ar    1  UNL1        0.0001
     20 C         -29.1801    2.8038   23.9051 C.ar    1  UNL1        0.0015
     21 C         -29.8445    2.6048   25.1117 C.ar    1  UNL1        0.0191
     22 C         -29.2468    1.8761   26.0475 C.ar    1  UNL1        0.0810
     23 N         -29.7899    1.8468   27.3163 N.ar    1  UNL1       -0.2454
     24 C         -24.5084    0.5469   29.9609 C.2     1  UNL1        0.2488
     25 N         -23.9973   -0.5185   30.3984 N.am    1  UNL1       -0.2726
     26 C         -24.2853   -1.0294   31.6185 C.3     1  UNL1        0.1152
     27 C         -23.0370   -1.2091   29.6462 C.3     1  UNL1        0.1152
     28 O         -24.8734    1.4914   30.7744 O.2     1  UNL1       -0.2699
@<TRIPOS>BOND
     1     4     9    1
     2     9    10    1
     3    10    11    2
     4    11    12    1
     5    11    24    1
     6    24    25   am
     7    25    26    1
     8    25    27    1
     9    24    28    2
    10     3     4   ar
    11     4     5   ar
    12    22    23   ar
    13    23     8   ar
    14    12    13   ar
    15    13    16   ar
    16    16    17   ar
    17    17    15   ar
    18    15    14   ar
    19    14    12   ar
    20     1     2   ar
    21     2     6   ar
    22     6     7   ar
    23     7     8   ar
    24     8     3   ar
    25     3     1   ar
    26     5    18   ar
    27    18    19   ar
    28    19    20   ar
    29    20    21   ar
    30    21    22   ar
    31    22     5   ar
