@<TRIPOS>MOLECULE
No_1481-gen_results/8p0m/2024-11-26-14-13-15/
 11 12 0 0 0
SMALL
GASTEIGER

@<TRIPOS>ATOM
      1 C         -28.0162   -0.8135   28.8779 C.ar    1  UNL1        0.0000
      2 C         -28.4690   -0.7850   29.8287 C.ar    1  UNL1        0.0000
      3 C         -26.5455   -0.8762   28.8500 C.ar    1  UNL1        0.0001
      4 C         -25.6825   -0.7773   27.6829 C.ar    1  UNL1        0.0023
      5 C         -27.9181   -1.0034   31.1877 C.ar    1  UNL1        0.0000
      6 C         -26.5308   -1.0794   31.2463 C.ar    1  UNL1        0.0001
      7 C         -25.7798   -1.0462   30.0905 C.ar    1  UNL1        0.0022
      8 C         -24.3676   -0.2501   27.7918 C.ar    1  UNL1        0.0296
      9 C         -23.6808   -0.4762   29.0175 C.ar    1  UNL1        0.1401
     10 C         -24.3689   -0.7866   30.1443 C.ar    1  UNL1        0.0296
     11 F         -22.3779   -0.2282   29.0577 F       1  UNL1       -0.2042
@<TRIPOS>BOND
     1     9    11    1
     2     1     2   ar
     3     2     5   ar
     4     5     6   ar
     5     6     7   ar
     6     3     1   ar
     7     3     4   ar
     8     4     8   ar
     9     8     9   ar
    10     9    10   ar
    11    10     7   ar
    12     7     3   ar
