@<TRIPOS>MOLECULE
No_1483-gen_results/8p0m/2024-11-26-14-13-15/
 15 17 0 0 0
SMALL
GASTEIGER

@<TRIPOS>ATOM
      1 C         -28.0162   -0.8135   28.8779 C.ar    1  UNL1        0.0058
      2 C         -28.4690   -0.7850   29.8287 C.ar    1  UNL1        0.0685
      3 C         -26.5042   -0.7777   28.8766 C.ar    1  UNL1        0.0002
      4 C         -25.9150   -0.6580   29.9230 C.ar    1  UNL1        0.0013
      5 C         -27.9691   -0.7243   31.2047 C.ar    1  UNL1        0.0715
      6 C         -26.5847   -0.6393   31.2062 C.ar    1  UNL1        0.0163
      7 C         -30.0752   -0.8832   29.9049 C.2     1  UNL1        0.2514
      8 O         -30.5929   -0.4839   28.9435 O.2     1  UNL1       -0.2698
      9 N         -30.7193   -1.4724   30.9693 N.am    1  UNL1       -0.2602
     10 C         -32.1432   -1.6018   30.9198 C.3     1  UNL1        0.0953
     11 C         -32.6113   -2.4567   31.6415 C.3     1  UNL1        0.0217
     12 C         -31.8546   -3.1496   32.7241 C.3     1  UNL1        0.0053
     13 C         -30.4529   -2.9913   32.7039 C.3     1  UNL1        0.0424
     14 C         -29.8749   -2.2733   31.8010 C.3     1  UNL1        0.1693
     15 N         -28.5591   -1.9445   31.9851 N.pl3   1  UNL1       -0.2190
@<TRIPOS>BOND
     1     2     7    1
     2     7     8    2
     3     7     9   am
     4     9    10    1
     5    11    12    1
     6     9    14    1
     7    13    14    1
     8     5    15    1
     9    14    15    1
    10    10    11    1
    11    12    13    1
    12     1     2   ar
    13     2     5   ar
    14     5     6   ar
    15     6     4   ar
    16     4     3   ar
    17     3     1   ar
