@<TRIPOS>MOLECULE
No_1485-gen_results/8p0m/2024-11-26-14-13-15/
 20 22 0 0 0
SMALL
GASTEIGER

@<TRIPOS>ATOM
      1 C         -28.0162   -0.8135   28.8779 C.ar    1  UNL1        0.0441
      2 C         -28.4690   -0.7850   29.8287 C.ar    1  UNL1        0.0501
      3 C         -26.5455   -0.8762   28.8500 C.ar    1  UNL1        0.1413
      4 C         -25.8041   -1.0324   30.0571 C.ar    1  UNL1        0.0276
      5 C         -27.9437   -0.9869   31.2075 C.ar    1  UNL1        0.0147
      6 C         -26.5825   -1.0386   31.2231 C.ar    1  UNL1        0.0035
      7 N         -29.9648   -0.7353   29.8902 N.pl3   1  UNL1       -0.3073
      8 C         -30.7710   -1.5353   30.3549 C.3     1  UNL1        0.0934
      9 C         -32.1409   -1.3743   30.1446 C.3     1  UNL1        0.0543
     10 C         -30.5359   -0.0032   28.8359 C.3     1  UNL1        0.0934
     11 C         -31.8290    0.1800   28.6251 C.3     1  UNL1        0.0543
     12 C         -32.6736   -0.6202   29.3126 C.3     1  UNL1        0.1554
     13 C         -24.3715   -1.0826   30.0647 C.ar    1  UNL1        0.0022
     14 C         -23.7248    0.2000   30.0495 C.ar    1  UNL1        0.0001
     15 C         -22.5197    0.3499   29.2912 C.ar    1  UNL1        0.0000
     16 C         -21.8674   -0.8990   28.9489 C.ar    1  UNL1        0.0000
     17 C         -22.5790   -2.0535   28.9254 C.ar    1  UNL1        0.0000
     18 C         -23.8028   -2.2006   29.4836 C.ar    1  UNL1        0.0001
     19 O         -34.0159   -0.5332   29.1473 O.3     1  UNL1       -0.2230
     20 F         -25.9198   -0.6364   27.6891 F       1  UNL1       -0.2041
@<TRIPOS>BOND
     1     2     7    1
     2     7     8    1
     3     7    10    1
     4     9    12    1
     5    11    12    1
     6     4    13    1
     7    12    19    1
     8     3    20    1
     9     8     9    1
    10    11    10    1
    11    13    14   ar
    12    14    15   ar
    13    15    16   ar
    14    16    17   ar
    15    17    18   ar
    16    18    13   ar
    17     1     2   ar
    18     2     5   ar
    19     5     6   ar
    20     6     4   ar
    21     4     3   ar
    22     3     1   ar
