@<TRIPOS>MOLECULE
No_1486-gen_results/8p0m/2024-11-26-14-13-15/
 33 39 0 0 0
SMALL
GASTEIGER

@<TRIPOS>ATOM
      1 C         -28.0162   -0.8135   28.8779 C.ar    1  UNL1        0.0296
      2 C         -27.0636   -0.1190   28.6079 C.ar    1  UNL1        0.1401
      3 C         -26.8756    1.1325   28.9134 C.ar    1  UNL1        0.0296
      4 C         -27.9014    1.8066   29.6436 C.ar    1  UNL1        0.0023
      5 C         -29.0458   -0.2316   29.7181 C.ar    1  UNL1        0.0023
      6 C         -28.9402    1.0517   30.0597 C.ar    1  UNL1        0.0001
      7 F         -26.0208   -0.6774   27.8774 F       1  UNL1       -0.2042
      8 C         -30.0213    1.6852   30.8724 C.ar    1  UNL1       -0.0003
      9 C         -31.0371    1.3473   31.0307 C.ar    1  UNL1        0.0001
     10 C         -32.0890    1.9852   31.8765 C.ar    1  UNL1        0.0042
     11 C         -31.7043    3.2054   32.4781 C.ar    1  UNL1        0.0500
     12 C         -30.4403    3.6638   32.2823 C.ar    1  UNL1       -0.0161
     13 C         -29.5185    2.9802   31.5234 C.ar    1  UNL1       -0.0041
     14 C         -32.6715    3.9236   33.2964 C.2     1  UNL1        0.2524
     15 N         -32.2460    4.5519   34.2371 N.am    1  UNL1       -0.2561
     16 O         -33.8806    3.6189   33.1636 O.2     1  UNL1       -0.2696
     17 C         -32.8657    5.2410   35.1265 C.ar    1  UNL1        0.0552
     18 C         -33.9118    5.6627   35.3258 C.ar    1  UNL1        0.0150
     19 C         -34.4913    6.4006   36.3722 C.ar    1  UNL1        0.0028
     20 C         -33.6403    6.7315   37.4272 C.ar    1  UNL1        0.0192
     21 C         -32.3245    6.3126   37.3799 C.ar    1  UNL1        0.0822
     22 C         -31.8405    5.6198   36.3028 C.ar    1  UNL1        0.0277
     23 N         -31.4534    6.6409   38.4023 N.ar    1  UNL1       -0.2437
     24 C         -30.3387    6.2120   38.5800 C.ar    1  UNL1        0.1030
     25 C         -29.7991    5.5079   37.4505 C.ar    1  UNL1        0.0704
     26 C         -30.4953    5.1412   36.3206 C.ar    1  UNL1       -0.0105
     27 C         -28.3517    4.9732   37.4734 C.2     1  UNL1        0.2660
     28 O         -27.6272    4.9387   38.2563 O.2     1  UNL1       -0.2683
     29 N         -27.9514    4.4476   36.1841 N.am    1  UNL1       -0.2012
     30 C         -28.3551    4.6445   35.0155 C.3     1  UNL1        0.1214
     31 C         -29.8038    4.7949   35.1230 C.3     1  UNL1        0.0632
     32 C         -30.6856    4.0238   34.2075 C.3     1  UNL1        0.0901
     33 C         -30.1197    3.1125   33.6176 C.3     1  UNL1        0.0470
@<TRIPOS>BOND
     1     2     7    1
     2     6     8    1
     3    11    14    1
     4    14    15   am
     5    14    16    2
     6    15    17    1
     7    25    27    1
     8    27    28    2
     9    27    29   am
    10    29    30    1
    11    26    31    1
    12    15    32    1
    13    31    32    1
    14    12    33    1
    15    32    33    1
    16    31    30    1
    17    22    26   ar
    18    26    25   ar
    19    25    24   ar
    20    24    23   ar
    21    23    21   ar
    22     1     2   ar
    23     2     3   ar
    24     3     4   ar
    25     4     6   ar
    26     6     5   ar
    27     5     1   ar
    28    17    18   ar
    29    18    19   ar
    30    19    20   ar
    31    20    21   ar
    32    21    22   ar
    33    22    17   ar
    34     8     9   ar
    35     9    10   ar
    36    10    11   ar
    37    11    12   ar
    38    12    13   ar
    39    13     8   ar
