@<TRIPOS>MOLECULE
No_1487-gen_results/8p0m/2024-11-26-14-13-15/
 11 11 0 0 0
SMALL
GASTEIGER

@<TRIPOS>ATOM
      1 C         -28.0162   -0.8135   28.8779 C.ar    1  UNL1       -0.0004
      2 C         -27.0636   -0.1189   28.6079 C.ar    1  UNL1        0.0038
      3 C         -26.9716    0.7139   27.5060 C.ar    1  UNL1        0.0711
      4 C         -28.1053    0.7744   26.6421 C.ar    1  UNL1       -0.0004
      5 C         -29.2041    0.1179   27.0477 C.ar    1  UNL1       -0.0219
      6 C         -29.2127   -0.6088   28.1281 C.ar    1  UNL1       -0.0043
      7 C         -25.7106    1.4518   27.1380 C.3     1  UNL1        0.4186
      8 F         -25.6101    1.7668   25.9702 F       1  UNL1       -0.1659
      9 F         -25.6786    2.6483   27.8513 F       1  UNL1       -0.1659
     10 F         -24.6118    0.8303   27.6265 F       1  UNL1       -0.1659
     11 C         -30.3888    0.2260   26.1618 C.3     1  UNL1        0.0310
@<TRIPOS>BOND
     1     3     7    1
     2     7     8    1
     3     7     9    1
     4     7    10    1
     5     5    11    1
     6     1     2   ar
     7     2     3   ar
     8     3     4   ar
     9     4     5   ar
    10     5     6   ar
    11     6     1   ar
