@<TRIPOS>MOLECULE
No_1488-gen_results/8p0m/2024-11-26-14-13-15/
 8 8 0 0 0
SMALL
GASTEIGER

@<TRIPOS>ATOM
      1 C         -28.0162   -0.8135   28.8779 C.ar    1  UNL1        0.0210
      2 C         -28.4690   -0.7850   29.8287 C.2     1  UNL1        0.1221
      3 C         -28.1816    0.4277   28.1134 C.ar    1  UNL1        0.0016
      4 C         -27.4498    0.6435   26.8500 C.ar    1  UNL1        0.0000
      5 C         -26.1815    0.0357   26.7145 C.ar    1  UNL1        0.0000
      6 C         -25.7530   -0.9101   27.6815 C.ar    1  UNL1        0.0000
      7 C         -26.5502   -1.2250   28.7228 C.ar    1  UNL1        0.0016
      8 N         -29.5916   -0.3127   30.1968 N.2     1  UNL1       -0.1464
@<TRIPOS>BOND
     1     1     2    1
     2     2     8    2
     3     1     3   ar
     4     3     4   ar
     5     4     5   ar
     6     5     6   ar
     7     6     7   ar
     8     7     1   ar
