@<TRIPOS>MOLECULE
No_1489-gen_results/8p0m/2024-11-26-14-13-15/
 11 11 0 0 0
SMALL
GASTEIGER

@<TRIPOS>ATOM
      1 C         -28.0162   -0.8135   28.8779 C.3     1  UNL1        0.1150
      2 C         -27.0636   -0.1189   28.6079 C.ar    1  UNL1       -0.0048
      3 C         -27.0010    0.6913   27.4910 C.ar    1  UNL1       -0.0028
      4 C         -25.8548    1.4825   27.0830 C.ar    1  UNL1        0.0013
      5 C         -24.6901    1.4526   27.8807 C.ar    1  UNL1        0.0209
      6 C         -24.7379    0.6010   29.0416 C.ar    1  UNL1        0.0013
      7 C         -25.8234   -0.1688   29.3887 C.ar    1  UNL1       -0.0028
      8 N         -29.2075   -0.1514   29.0660 N.3     1  UNL1       -0.2118
      9 C         -30.2318   -0.7607   29.6957 C.3     1  UNL1        0.1079
     10 C         -23.5223    2.2141   27.5499 C.2     1  UNL1        0.1221
     11 N         -22.5010    2.1782   28.3439 N.2     1  UNL1       -0.1464
@<TRIPOS>BOND
     1     1     2    1
     2     1     8    1
     3     8     9    1
     4     5    10    1
     5    10    11    2
     6     2     3   ar
     7     3     4   ar
     8     4     5   ar
     9     5     6   ar
    10     6     7   ar
    11     7     2   ar
