@<TRIPOS>MOLECULE
No_1491-gen_results/8p0m/2024-11-26-14-13-15/
 23 25 0 0 0
SMALL
GASTEIGER

@<TRIPOS>ATOM
      1 C         -28.0162   -0.8135   28.8779 C.ar    1  UNL1        0.0204
      2 C         -27.0636   -0.1189   28.6079 C.ar    1  UNL1        0.0727
      3 C         -25.7923   -0.4302   29.0761 C.ar    1  UNL1        0.0039
      4 C         -25.5756   -1.5654   29.9363 C.ar    1  UNL1        0.0013
      5 C         -26.7354   -2.3004   30.2173 C.ar    1  UNL1        0.0166
      6 C         -27.9184   -1.9537   29.7629 C.ar    1  UNL1        0.0734
      7 C         -27.1057    1.1023   27.7593 C.3     1  UNL1        0.4186
      8 F         -28.1026    1.2424   27.1566 F       1  UNL1       -0.1659
      9 F         -26.9077    2.2808   28.5196 F       1  UNL1       -0.1659
     10 F         -25.9872    1.1458   26.8902 F       1  UNL1       -0.1659
     11 N         -28.9938   -2.7101   30.1654 N.am    1  UNL1       -0.1778
     12 C         -29.6877   -2.4928   31.1392 C.2     1  UNL1        0.2643
     13 O         -29.5560   -1.5014   31.7905 O.2     1  UNL1       -0.2712
     14 C         -30.4763   -3.6628   31.6331 C.3     1  UNL1        0.1597
     15 N         -30.1364   -4.3503   32.4652 N.3     1  UNL1       -0.2579
     16 C         -31.7811   -3.8032   31.0258 C.ar    1  UNL1       -0.0016
     17 C         -32.3740   -2.9640   30.3094 C.ar    1  UNL1       -0.0028
     18 C         -33.6119   -3.2157   29.6560 C.ar    1  UNL1       -0.0003
     19 C         -34.1522   -4.4719   29.8556 C.ar    1  UNL1       -0.0003
     20 C         -33.5226   -5.4335   30.5875 C.ar    1  UNL1       -0.0032
     21 C         -32.3161   -5.1401   31.2025 C.ar    1  UNL1       -0.0084
     22 C         -29.4632   -4.6331   33.1894 C.3     1  UNL1        0.0905
     23 C         -31.3435   -5.4362   32.6901 C.3     1  UNL1        0.0995
@<TRIPOS>BOND
     1     2     7    1
     2     7     8    1
     3     7     9    1
     4     7    10    1
     5     6    11    1
     6    11    12   am
     7    12    13    2
     8    12    14    1
     9    14    15    1
    10    14    16    1
    11    15    22    1
    12    15    23    1
    13    21    23    1
    14     1     2   ar
    15     2     3   ar
    16     3     4   ar
    17     4     5   ar
    18     5     6   ar
    19     6     1   ar
    20    16    17   ar
    21    17    18   ar
    22    18    19   ar
    23    19    20   ar
    24    20    21   ar
    25    21    16   ar
