@<TRIPOS>MOLECULE
No_1492-gen_results/8p0m/2024-11-26-14-13-15/
 15 15 0 0 0
SMALL
GASTEIGER

@<TRIPOS>ATOM
      1 C         -28.0162   -0.8135   28.8779 C.ar    1  UNL1        0.0001
      2 C         -27.0636   -0.1189   28.6079 C.ar    1  UNL1        0.0000
      3 C         -26.9716    0.7139   27.5060 C.ar    1  UNL1        0.0001
      4 C         -28.1053    0.7744   26.6421 C.ar    1  UNL1        0.0046
      5 C         -29.2041    0.1179   27.0477 C.ar    1  UNL1        0.0567
      6 C         -29.2127   -0.6088   28.1281 C.ar    1  UNL1        0.0046
      7 C         -30.3709    0.2326   26.1381 C.2     1  UNL1        0.2842
      8 N         -30.2836    0.1310   24.9011 N.am    1  UNL1       -0.0837
      9 O         -31.5507    0.2259   26.6449 O.2     1  UNL1       -0.2667
     10 C         -25.6738    1.4026   27.1107 C.2     1  UNL1        0.0000
     11 C         -24.5450    1.0613   27.7697 C.2     1  UNL1        0.0000
     12 C         -23.6271    1.7173   28.2174 C.2     1  UNL1        0.0000
     13 C         -22.5266    1.6063   28.4861 C.2     1  UNL1        0.0000
     14 C         -22.0602    0.1963   28.7153 C.2     1  UNL1        0.0000
     15 C         -23.0197   -0.7898   28.4970 C.2     1  UNL1        0.0000
@<TRIPOS>BOND
     1     5     7    1
     2     7     8   am
     3     7     9    2
     4     3    10    1
     5    10    11    2
     6    11    12    1
     7    12    13    2
     8    13    14    1
     9    14    15    2
    10     1     2   ar
    11     2     3   ar
    12     3     4   ar
    13     4     5   ar
    14     5     6   ar
    15     6     1   ar
