@<TRIPOS>MOLECULE
No_1494-gen_results/8p0m/2024-11-26-14-13-15/
 8 8 0 0 0
SMALL
GASTEIGER

@<TRIPOS>ATOM
      1 C         -28.0162   -0.8135   28.8779 C.ar    1  UNL1        0.0000
      2 C         -27.0636   -0.1189   28.6079 C.ar    1  UNL1        0.0000
      3 C         -26.9716    0.7139   27.5060 C.ar    1  UNL1        0.0000
      4 C         -28.1053    0.7744   26.6421 C.ar    1  UNL1        0.0016
      5 C         -29.2041    0.1179   27.0477 C.ar    1  UNL1        0.0210
      6 C         -30.3488    0.2568   26.2203 C.2     1  UNL1        0.1221
      7 C         -29.1817   -0.6758   28.1173 C.ar    1  UNL1        0.0016
      8 N         -30.8575    1.2554   25.9148 N.2     1  UNL1       -0.1464
@<TRIPOS>BOND
     1     5     6    1
     2     6     8    2
     3     1     2   ar
     4     2     3   ar
     5     3     4   ar
     6     4     5   ar
     7     5     7   ar
     8     7     1   ar
