@<TRIPOS>MOLECULE
No_1495-gen_results/8p0m/2024-11-26-14-13-15/
 8 7 0 0 0
SMALL
GASTEIGER

@<TRIPOS>ATOM
      1 F         -28.0727   -1.2542   28.5316 F       1  UNL1       -0.1700
      2 C         -27.3591   -0.3792   28.7224 C.3     1  UNL1        0.3981
      3 F         -26.9761   -0.0935   27.6617 F       1  UNL1       -0.1700
      4 F         -27.9492    0.6817   29.3005 F       1  UNL1       -0.1700
      5 C         -26.1865   -0.8372   29.5966 C.3     1  UNL1        0.1080
      6 C         -25.4080    0.1754   30.1801 C.3     1  UNL1        0.0348
      7 C         -24.5037    0.7437   29.3967 C.2     1  UNL1       -0.0259
      8 C         -24.4293    0.7189   28.1157 C.2     1  UNL1       -0.0049
@<TRIPOS>BOND
     1     1     2    1
     2     2     3    1
     3     2     4    1
     4     2     5    1
     5     5     6    1
     6     6     7    1
     7     7     8    2
