@<TRIPOS>MOLECULE
No_1496-gen_results/8p0m/2024-11-26-14-13-15/
 35 37 0 0 0
SMALL
GASTEIGER

@<TRIPOS>ATOM
      1 C         -28.0162   -0.8135   28.8779 C.ar    1  UNL1        0.0022
      2 C         -28.4690   -0.7850   29.8287 C.ar    1  UNL1        0.0753
      3 C         -26.5042   -0.7777   28.8766 C.ar    1  UNL1       -0.0215
      4 C         -25.6540   -0.6597   27.7191 C.3     1  UNL1        0.0523
      5 C         -27.9180   -0.9374   31.1824 C.ar    1  UNL1        0.0061
      6 C         -26.5423   -0.9399   31.2606 C.ar    1  UNL1       -0.0044
      7 C         -25.7832   -0.8935   30.1201 C.ar    1  UNL1       -0.0261
      8 C         -25.2134    0.6923   27.3830 C.ar    1  UNL1       -0.0178
      9 C         -25.8817    1.6334   27.4301 C.ar    1  UNL1       -0.0039
     10 C         -25.3068    2.9659   27.1011 C.ar    1  UNL1       -0.0003
     11 C         -23.9644    3.0790   26.7144 C.ar    1  UNL1       -0.0000
     12 C         -23.7686    0.8240   27.0703 C.ar    1  UNL1       -0.0039
     13 C         -23.2207    2.0137   26.7255 C.ar    1  UNL1       -0.0003
     14 C         -24.3680   -0.9301   30.2112 C.3     1  UNL1        0.0240
     15 C         -23.4998    0.1700   30.3012 C.3     1  UNL1        0.0284
     16 C         -23.7754   -2.2473   29.9192 C.3     1  UNL1        0.0047
     17 C         -23.9282    1.3524   31.0166 C.3     1  UNL1        0.0024
     18 C         -22.1307    0.0855   29.8108 C.3     1  UNL1        0.1259
     19 N         -21.7774   -0.2031   28.7870 N.2     1  UNL1       -0.2673
     20 C         -20.5087    0.0182   28.2850 C.2     1  UNL1        0.1133
     21 C         -30.0647   -0.8269   29.8425 C.2     1  UNL1        0.3412
     22 O         -30.7360   -1.6136   30.3152 O.2     1  UNL1       -0.2449
     23 O         -30.5975    0.1550   29.1479 O.3     1  UNL1       -0.4449
     24 C         -31.7220    0.4660   28.9688 C.3     1  UNL1        0.2184
     25 C         -31.9701    1.4807   28.0436 C.3     1  UNL1        0.1329
     26 C         -31.2033    2.5396   28.1372 C.2     1  UNL1        0.2332
     27 O         -30.2198    2.5260   27.5201 O.2     1  UNL1       -0.2744
     28 N         -31.5842    3.7164   28.7975 N.am    1  UNL1       -0.2568
     29 C         -30.7255    4.8913   28.8950 C.3     1  UNL1        0.1200
     30 C         -32.7973    3.7474   29.5232 C.ar    1  UNL1        0.0539
     31 C         -33.3188    4.5548   29.9747 C.ar    1  UNL1        0.0149
     32 C         -34.5305    4.5936   30.7652 C.ar    1  UNL1        0.0013
     33 C         -35.1632    3.3322   30.7880 C.ar    1  UNL1        0.0001
     34 C         -34.5946    2.2613   30.1916 C.ar    1  UNL1        0.0013
     35 C         -33.4120    2.4005   29.6283 C.ar    1  UNL1        0.0149
@<TRIPOS>BOND
     1     3     4    1
     2     4     8    1
     3     7    14    1
     4    14    15    1
     5    14    16    1
     6    15    17    1
     7    15    18    1
     8    18    19    1
     9    19    20    2
    10     2    21    1
    11    21    22    2
    12    21    23    1
    13    23    24    1
    14    24    25    1
    15    25    26    1
    16    26    27    2
    17    26    28   am
    18    28    29    1
    19    28    30    1
    20    30    31   ar
    21    31    32   ar
    22    32    33   ar
    23    33    34   ar
    24    34    35   ar
    25    35    30   ar
    26     1     2   ar
    27     2     5   ar
    28     5     6   ar
    29     6     7   ar
    30     7     3   ar
    31     3     1   ar
    32     8     9   ar
    33     9    10   ar
    34    10    11   ar
    35    11    13   ar
    36    13    12   ar
    37    12     8   ar
