@<TRIPOS>MOLECULE
No_1499-gen_results/8p0m/2024-11-26-14-13-15/
 10 10 0 0 0
SMALL
GASTEIGER

@<TRIPOS>ATOM
      1 C         -28.0162   -0.8135   28.8779 C.ar    1  UNL1        0.0421
      2 C         -27.0636   -0.1189   28.6079 C.ar    1  UNL1        0.0048
      3 C         -25.7923   -0.4302   29.0761 C.ar    1  UNL1        0.0189
      4 C         -25.5756   -1.5654   29.9363 C.ar    1  UNL1        0.0048
      5 C         -26.7354   -2.3004   30.2173 C.ar    1  UNL1        0.0421
      6 C         -27.9184   -1.9537   29.7629 C.ar    1  UNL1        0.1957
      7 O         -29.0001   -2.7012   30.1151 O.3     1  UNL1       -0.2866
      8 C         -24.5290    0.3490   28.7998 C.2     1  UNL1        0.0932
      9 N         -23.3792   -0.0463   29.0486 N.2     1  UNL1       -0.2668
     10 C         -22.2873    0.7424   28.6892 C.3     1  UNL1        0.1517
@<TRIPOS>BOND
     1     6     7    1
     2     3     8    1
     3     8     9    2
     4     9    10    1
     5     1     2   ar
     6     2     3   ar
     7     3     4   ar
     8     4     5   ar
     9     5     6   ar
    10     6     1   ar
