@<TRIPOS>MOLECULE
No_15-gen_results/8p0m/2024-11-26-14-13-15/
 17 18 0 0 0
SMALL
GASTEIGER

@<TRIPOS>ATOM
      1 C         -28.0162   -0.8135   28.8779 C.ar    1  UNL1       -0.0043
      2 C         -28.4690   -0.7850   29.8287 C.ar    1  UNL1       -0.0003
      3 C         -28.1960    0.3478   28.0550 C.ar    1  UNL1       -0.0222
      4 C         -27.4421    0.5100   26.7946 C.3     1  UNL1        0.0264
      5 C         -27.8427    1.3330   25.8056 C.3     1  UNL1        0.0047
      6 C         -29.4956    0.1092   30.3452 C.ar    1  UNL1       -0.0000
      7 C         -29.7284    1.1870   29.5687 C.ar    1  UNL1       -0.0003
      8 C         -29.0420    1.3665   28.3718 C.ar    1  UNL1       -0.0043
      9 C         -26.1281   -0.0671   26.6257 C.3     1  UNL1        0.0264
     10 C         -25.2466   -0.2457   27.7552 C.ar    1  UNL1       -0.0222
     11 C         -24.2715    0.4354   28.2098 C.ar    1  UNL1       -0.0043
     12 C         -23.4094    0.0736   29.2523 C.ar    1  UNL1       -0.0003
     13 C         -23.5515   -1.2086   29.7706 C.ar    1  UNL1       -0.0000
     14 C         -25.1747   -1.6490   28.4107 C.ar    1  UNL1       -0.0043
     15 C         -24.4006   -2.0483   29.3238 C.ar    1  UNL1       -0.0003
     16 C         -28.0482    0.6936   24.5735 C.3     1  UNL1        0.0004
     17 C         -25.5349   -0.0415   25.3818 C.3     1  UNL1        0.0050
@<TRIPOS>BOND
     1     3     4    1
     2     4     5    1
     3     4     9    1
     4     9    10    1
     5     5    16    1
     6     9    17    1
     7    10    11   ar
     8    11    12   ar
     9    12    13   ar
    10    13    15   ar
    11    15    14   ar
    12    14    10   ar
    13     1     2   ar
    14     2     6   ar
    15     6     7   ar
    16     7     8   ar
    17     8     3   ar
    18     3     1   ar
