@<TRIPOS>MOLECULE
No_150-gen_results/8p0m/2024-11-26-14-13-15/
 11 10 0 0 0
SMALL
GASTEIGER

@<TRIPOS>ATOM
      1 CL        -28.1493   -0.8198   28.9079 Cl      1  UNL1       -0.0413
      2 C         -28.5324   -0.0471   29.7727 C.3     1  UNL1        0.3932
      3 F         -29.6682   -0.0995   30.1894 F       1  UNL1       -0.1804
      4 C         -27.5674   -0.0766   31.0006 C.3     1  UNL1        0.4169
      5 F         -28.3579    1.2470   29.2780 F       1  UNL1       -0.1804
      6 C         -26.7230   -0.9630   31.1936 C.3     1  UNL1        0.4615
      7 F         -25.9457   -0.9721   32.2383 F       1  UNL1       -0.1648
      8 F         -25.7823   -1.0476   30.1236 F       1  UNL1       -0.1648
      9 F         -27.2779   -2.2334   31.2497 F       1  UNL1       -0.1648
     10 F         -27.8136    0.7939   32.0083 F       1  UNL1       -0.1876
     11 F         -27.2097    0.8600   31.0576 F       1  UNL1       -0.1876
@<TRIPOS>BOND
     1     1     2    1
     2     2     3    1
     3     2     4    1
     4     2     5    1
     5     4     6    1
     6     6     7    1
     7     6     8    1
     8     6     9    1
     9     4    10    1
    10     4    11    1
