@<TRIPOS>MOLECULE
No_1500-gen_results/8p0m/2024-11-26-14-13-15/
 24 26 0 0 0
SMALL
GASTEIGER

@<TRIPOS>ATOM
      1 C         -28.0162   -0.8135   28.8779 C.ar    1  UNL1        0.0366
      2 C         -27.0636   -0.1189   28.6079 C.ar    1  UNL1       -0.0011
      3 C         -25.7647   -0.3897   29.0360 C.ar    1  UNL1       -0.0206
      4 C         -25.5296   -1.5302   29.9014 C.ar    1  UNL1       -0.0011
      5 C         -26.6888   -2.2893   30.1810 C.ar    1  UNL1        0.0366
      6 C         -27.8727   -1.9508   29.7373 C.ar    1  UNL1        0.1394
      7 C         -24.7078    0.5670   28.7015 C.3     1  UNL1        0.0427
      8 C         -24.6780    1.8401   29.1492 C.3     1  UNL1        0.1039
      9 N         -24.7031    2.7747   28.6591 N.am    1  UNL1       -0.2028
     10 C         -24.6321    1.9142   30.7414 C.3     1  UNL1        0.0485
     11 C         -24.9119    3.1357   31.3205 C.ar    1  UNL1       -0.0160
     12 C         -24.9351    3.1564   32.7711 C.ar    1  UNL1       -0.0041
     13 C         -25.2801    4.4536   33.3069 C.ar    1  UNL1       -0.0003
     14 C         -25.3385    5.5917   32.4342 C.ar    1  UNL1        0.0001
     15 C         -25.2552    5.4645   31.0964 C.ar    1  UNL1        0.0042
     16 C         -24.9822    4.2636   30.5603 C.ar    1  UNL1        0.0511
     17 C         -24.9861    4.1159   29.1070 C.2     1  UNL1        0.2644
     18 O         -25.0559    5.0747   28.3209 O.2     1  UNL1       -0.2684
     19 C         -23.6411    0.0972   27.8497 C.3     1  UNL1        0.0065
     20 O         -28.9487   -2.7468   30.0356 O.3     1  UNL1       -0.4637
     21 C         -29.3068   -2.8718   31.3945 C.3     1  UNL1        0.3186
     22 C         -29.7194   -4.1999   31.6841 C.2     1  UNL1        0.4084
     23 O         -29.6811   -4.4910   32.8854 O.co2   1  UNL1       -0.2415
     24 O         -30.0010   -5.0123   30.8219 O.co2   1  UNL1       -0.2415
@<TRIPOS>BOND
     1     3     7    1
     2     7     8    1
     3     8    10    1
     4    10    11    1
     5     9    17   am
     6    16    17    1
     7    17    18    2
     8     7    19    1
     9     6    20    1
    10    20    21    1
    11    21    22    1
    12    22    23   ar
    13    22    24   ar
    14     9     8    1
    15    11    12   ar
    16    12    13   ar
    17    13    14   ar
    18    14    15   ar
    19    15    16   ar
    20    16    11   ar
    21     1     2   ar
    22     2     3   ar
    23     3     4   ar
    24     4     5   ar
    25     5     6   ar
    26     6     1   ar
