@<TRIPOS>MOLECULE
No_1501-gen_results/8p0m/2024-11-26-14-13-15/
 35 38 0 0 0
SMALL
GASTEIGER

@<TRIPOS>ATOM
      1 C         -28.0162   -0.8135   28.8779 C.3     1  UNL1        0.1210
      2 C         -27.0636   -0.1189   28.6079 C.ar    1  UNL1       -0.0052
      3 C         -25.7647   -0.3897   29.0360 C.ar    1  UNL1       -0.0208
      4 C         -24.5516    0.4058   28.7646 C.ar    1  UNL1       -0.0004
      5 C         -24.6957    1.4480   27.7988 C.ar    1  UNL1        0.0712
      6 C         -25.9755    1.7250   27.3077 C.ar    1  UNL1        0.0081
      7 C         -27.0718    1.0134   27.6535 C.ar    1  UNL1        0.0505
      8 CL        -28.6072   -0.7453   30.2000 Cl      1  UNL1       -0.1085
      9 C         -23.4875    2.1785   27.4801 C.3     1  UNL1        0.4186
     10 F         -22.5457    1.8814   27.8490 F       1  UNL1       -0.1659
     11 F         -23.3916    2.1869   26.0112 F       1  UNL1       -0.1659
     12 F         -23.7829    3.5555   27.7376 F       1  UNL1       -0.1659
     13 C         -25.4538   -1.5159   29.9374 C.3     1  UNL1        0.0480
     14 C         -25.1145   -1.3588   31.0197 C.2     1  UNL1       -0.0260
     15 C         -25.6567   -2.8219   29.3516 C.3     1  UNL1        0.0344
     16 C         -24.5722   -3.4790   28.8457 C.2     1  UNL1       -0.0297
     17 C         -23.4189   -2.7223   28.9602 C.2     1  UNL1       -0.0260
     18 C         -22.8491   -1.9665   30.0207 C.3     1  UNL1        0.0513
     19 C         -23.6041   -1.1559   30.8777 C.2     1  UNL1       -0.0257
     20 C         -28.3292    1.3799   27.0082 C.2     1  UNL1        0.2488
     21 N         -29.0111    2.2442   27.5621 N.am    1  UNL1       -0.2747
     22 C         -28.6202    3.2598   28.1226 C.3     1  UNL1        0.1096
     23 C         -29.5922    4.1857   28.8028 C.3     1  UNL1        0.0777
     24 C         -30.4904    2.1056   27.4831 C.3     1  UNL1        0.0938
     25 C         -31.3591    2.9191   28.1586 C.3     1  UNL1        0.0230
     26 C         -30.8723    4.0581   28.7688 C.3     1  UNL1        0.0195
     27 O         -28.4550    0.9550   25.8339 O.2     1  UNL1       -0.2699
     28 N         -28.9845    5.3700   29.4986 N.3     1  UNL1       -0.2683
     29 C         -27.7552    5.4184   29.8326 C.3     1  UNL1        0.0989
     30 C         -27.3443    5.1812   31.1403 C.2     1  UNL1       -0.0091
     31 C         -27.8032    5.3475   32.0824 C.2     1  UNL1       -0.0074
     32 C         -29.1069    5.9814   32.1887 C.2     1  UNL1       -0.0211
     33 C         -29.7808    5.9916   33.4749 C.2     1  UNL1       -0.0046
     34 C         -29.8502    6.3240   30.0517 C.3     1  UNL1        0.0771
     35 C         -30.1197    6.1241   31.4503 C.3     1  UNL1        0.0437
@<TRIPOS>BOND
     1     1     8    1
     2     5     9    1
     3     9    10    1
     4     9    11    1
     5     9    12    1
     6     3    13    1
     7    13    14    1
     8    13    15    1
     9    15    16    1
    10    16    17    2
    11    17    18    1
    12    14    19    2
    13    18    19    1
    14     7    20    1
    15    20    21   am
    16    21    22    1
    17    21    24    1
    18    23    26    1
    19    25    26    1
    20    20    27    2
    21    23    28    1
    22    28    29    1
    23    29    30    1
    24    30    31    2
    25    31    32    1
    26    32    33    2
    27    28    34    1
    28    32    35    1
    29    34    35    1
    30     1     2    1
    31    22    23    1
    32    25    24    1
    33     2     3   ar
    34     3     4   ar
    35     4     5   ar
    36     5     6   ar
    37     6     7   ar
    38     7     2   ar
