@<TRIPOS>MOLECULE
No_1503-gen_results/8p0m/2024-11-26-14-13-15/
 27 30 0 0 0
SMALL
GASTEIGER

@<TRIPOS>ATOM
      1 C         -28.0162   -0.8135   28.8779 C.ar    1  UNL1        0.0384
      2 C         -27.0636   -0.1190   28.6079 C.ar    1  UNL1        0.0207
      3 C         -25.7923   -0.4302   29.0761 C.ar    1  UNL1        0.0017
      4 C         -25.5756   -1.5654   29.9363 C.ar    1  UNL1        0.0032
      5 C         -26.7354   -2.3004   30.2173 C.ar    1  UNL1        0.0369
      6 C         -27.9184   -1.9537   29.7629 C.ar    1  UNL1        0.1392
      7 C         -27.1057    1.1023   27.7593 C.ar    1  UNL1        0.0814
      8 N         -26.2345    1.4562   27.0152 N.ar    1  UNL1       -0.2438
      9 C         -28.3525    1.8564   27.7125 C.ar    1  UNL1        0.0191
     10 C         -26.2637    2.5499   26.1875 C.ar    1  UNL1        0.0988
     11 C         -28.4528    2.9959   26.9286 C.ar    1  UNL1        0.0031
     12 C         -27.3605    3.3778   26.1556 C.ar    1  UNL1        0.0207
     13 O         -28.9755   -2.7185   30.1604 O.3     1  UNL1       -0.4745
     14 C         -30.1009   -2.1746   30.5369 C.3     1  UNL1        0.1705
     15 C         -31.1819   -2.8896   30.1204 C.ar    1  UNL1        0.0175
     16 C         -32.2460   -2.2065   29.6111 C.ar    1  UNL1       -0.0006
     17 C         -33.2386   -2.8575   28.9016 C.ar    1  UNL1       -0.0002
     18 C         -33.2235   -4.2846   28.8240 C.ar    1  UNL1       -0.0000
     19 C         -32.1309   -4.9796   29.3449 C.ar    1  UNL1       -0.0002
     20 C         -31.0905   -4.2592   29.9070 C.ar    1  UNL1       -0.0006
     21 C         -30.0348   -2.1304   32.1258 C.ar    1  UNL1        0.0175
     22 C         -29.9797   -0.8783   32.6930 C.ar    1  UNL1       -0.0006
     23 C         -30.1596   -3.2728   32.8385 C.ar    1  UNL1       -0.0006
     24 C         -29.9511   -0.7915   34.0902 C.ar    1  UNL1       -0.0002
     25 C         -30.1126   -3.1797   34.2729 C.ar    1  UNL1       -0.0002
     26 C         -30.0196   -1.9567   34.8791 C.ar    1  UNL1       -0.0000
     27 C         -30.2928   -0.6651   30.1742 C.3     1  UNL1        0.0530
@<TRIPOS>BOND
     1     2     7    1
     2     6    13    1
     3    13    14    1
     4    14    15    1
     5    14    21    1
     6    14    27    1
     7    15    16   ar
     8    16    17   ar
     9    17    18   ar
    10    18    19   ar
    11    19    20   ar
    12    20    15   ar
    13     1     2   ar
    14     2     3   ar
    15     3     4   ar
    16     4     5   ar
    17     5     6   ar
    18     6     1   ar
    19    21    22   ar
    20    22    24   ar
    21    24    26   ar
    22    26    25   ar
    23    25    23   ar
    24    23    21   ar
    25     7     8   ar
    26     8    10   ar
    27    10    12   ar
    28    12    11   ar
    29    11     9   ar
    30     9     7   ar
