@<TRIPOS>MOLECULE
No_1504-gen_results/8p0m/2024-11-26-14-13-15/
 16 16 0 0 0
SMALL
GASTEIGER

@<TRIPOS>ATOM
      1 P         -27.9505   -0.5786   29.0402 P.3     1  UNL1        0.5888
      2 O         -27.2401    0.0613   28.4283 O.3     1  UNL1       -0.3965
      3 O         -27.2444   -1.9817   29.3768 O.3     1  UNL1       -0.1039
      4 O         -28.1843   -0.0275   30.5202 O.3     1  UNL1       -0.1039
      5 O         -29.3836   -0.9386   28.6565 O.2     1  UNL1       -0.2114
      6 C         -25.9466    0.3168   28.6079 C.ar    1  UNL1        0.1876
      7 C         -25.1417    0.7461   27.5755 C.ar    1  UNL1        0.0407
      8 C         -23.7727    0.8311   27.8629 C.ar    1  UNL1        0.0072
      9 C         -23.1181   -0.0116   28.7971 C.ar    1  UNL1        0.0748
     10 C         -23.9323   -0.7070   29.7392 C.ar    1  UNL1        0.0491
     11 C         -25.2922   -0.5901   29.5880 C.ar    1  UNL1        0.2297
     12 C         -21.6569    0.0838   28.9586 C.3     1  UNL1        0.4187
     13 F         -21.1317   -0.8433   29.6170 F       1  UNL1       -0.1659
     14 F         -21.0507    0.0869   27.7048 F       1  UNL1       -0.1659
     15 F         -21.3623    1.2929   29.4667 F       1  UNL1       -0.1659
     16 O         -25.6295   -0.4234   30.9506 O.3     1  UNL1       -0.2833
@<TRIPOS>BOND
     1     1     2    1
     2     1     3    1
     3     1     4    1
     4     1     5    2
     5     2     6    1
     6     9    12    1
     7    12    13    1
     8    12    14    1
     9    12    15    1
    10    11    16    1
    11     6     7   ar
    12     7     8   ar
    13     8     9   ar
    14     9    10   ar
    15    10    11   ar
    16    11     6   ar
