@<TRIPOS>MOLECULE
No_1505-gen_results/8p0m/2024-11-26-14-13-15/
 8 8 0 0 0
SMALL
GASTEIGER

@<TRIPOS>ATOM
      1 C         -28.0162   -0.8135   28.8779 C.3     1  UNL1        0.0051
      2 C         -28.4690   -0.7850   29.8287 C.3     1  UNL1        0.0329
      3 C         -26.5042   -0.7777   28.8766 C.3     1  UNL1        0.0007
      4 C         -25.8305   -1.6807   29.6849 C.3     1  UNL1        0.0051
      5 C         -28.1490   -1.8854   30.9031 C.2     1  UNL1        0.0304
      6 C         -28.9302   -2.0829   32.0356 C.1     1  UNL1        0.1246
      7 C         -26.7271   -2.2585   30.7986 C.3     1  UNL1        0.0329
      8 O         -28.7029   -1.6824   33.0542 O.2     1  UNL1       -0.2318
@<TRIPOS>BOND
     1     1     2    1
     2     1     3    1
     3     3     4    1
     4     2     5    1
     5     5     6    2
     6     4     7    1
     7     5     7    1
     8     6     8    2
