@<TRIPOS>MOLECULE
No_1506-gen_results/8p0m/2024-11-26-14-13-15/
 31 33 0 0 0
SMALL
GASTEIGER

@<TRIPOS>ATOM
      1 C         -28.0162   -0.8135   28.8779 C.ar    1  UNL1        0.0417
      2 C         -28.4690   -0.7850   29.8287 C.ar    1  UNL1        0.0584
      3 C         -26.5455   -0.8762   28.8500 C.ar    1  UNL1        0.1417
      4 C         -25.8041   -1.0324   30.0571 C.ar    1  UNL1        0.0161
      5 C         -27.9437   -0.9869   31.2075 C.ar    1  UNL1        0.0045
      6 C         -24.4008   -1.0969   30.0965 C.3     1  UNL1        0.0477
      7 C         -26.5612   -1.0746   31.2270 C.ar    1  UNL1       -0.0008
      8 C         -23.7342    0.1405   29.9379 C.ar    1  UNL1       -0.0151
      9 C         -23.9870    1.2852   30.4777 C.ar    1  UNL1       -0.0038
     10 C         -23.3758    2.5002   30.0628 C.ar    1  UNL1        0.0030
     11 C         -22.5814    2.3872   28.9177 C.ar    1  UNL1        0.0420
     12 C         -22.7722    0.3574   28.8023 C.ar    1  UNL1        0.0381
     13 C         -22.1977    1.3535   28.3892 C.ar    1  UNL1        0.1954
     14 O         -25.8288   -0.7824   27.7087 O.3     1  UNL1       -0.4538
     15 C         -25.8118    0.4022   26.9395 C.ar    1  UNL1        0.1453
     16 C         -25.2892    0.3048   25.6825 C.ar    1  UNL1        0.0375
     17 C         -26.2634    1.6353   27.4470 C.ar    1  UNL1        0.0375
     18 C         -26.1567    2.8050   26.7586 C.ar    1  UNL1        0.0031
     19 C         -25.0496    1.5160   24.9770 C.ar    1  UNL1        0.0031
     20 C         -25.4981    2.7277   25.5064 C.ar    1  UNL1        0.0002
     21 C         -23.7204   -2.2874   30.3656 C.3     1  UNL1        0.0095
     22 O         -21.4020    1.3946   27.3051 O.3     1  UNL1       -0.2866
     23 C         -30.0920   -0.7538   29.8896 C.2     1  UNL1        0.2691
     24 O         -30.6410   -1.7576   30.0602 O.2     1  UNL1       -0.2680
     25 N         -30.6675    0.4194   29.6223 N.am    1  UNL1       -0.1745
     26 C         -30.0281    1.6933   29.4242 C.2     1  UNL1        0.0847
     27 C         -30.5776    2.7434   29.2553 C.2     1  UNL1       -0.0035
     28 C         -31.6175    3.0423   29.8568 C.3     1  UNL1        0.0531
     29 C         -32.3383    4.2245   29.6879 C.2     1  UNL1       -0.0259
     30 C         -31.8232    5.1725   28.8098 C.2     1  UNL1       -0.0300
     31 C         -30.6500    4.9464   28.1189 C.3     1  UNL1        0.0304
@<TRIPOS>BOND
     1     4     6    1
     2     6     8    1
     3     3    14    1
     4    14    15    1
     5     6    21    1
     6    13    22    1
     7     2    23    1
     8    23    24    2
     9    23    25   am
    10    25    26    1
    11    26    27    2
    12    27    28    1
    13    28    29    1
    14    29    30    2
    15    30    31    1
    16     8     9   ar
    17     9    10   ar
    18    10    11   ar
    19    11    13   ar
    20    13    12   ar
    21    12     8   ar
    22    15    16   ar
    23    16    19   ar
    24    19    20   ar
    25    20    18   ar
    26    18    17   ar
    27    17    15   ar
    28     1     2   ar
    29     2     5   ar
    30     5     7   ar
    31     7     4   ar
    32     4     3   ar
    33     3     1   ar
