@<TRIPOS>MOLECULE
No_1507-gen_results/8p0m/2024-11-26-14-13-15/
 30 32 0 0 0
SMALL
GASTEIGER

@<TRIPOS>ATOM
      1 C         -28.0162   -0.8135   28.8779 C.ar    1  UNL1        0.0047
      2 C         -27.0636   -0.1190   28.6079 C.ar    1  UNL1        0.0065
      3 C         -25.7923   -0.4302   29.0761 C.ar    1  UNL1        0.0004
      4 C         -24.5456    0.3494   28.8225 C.ar    1  UNL1        0.0046
      5 C         -24.6586    1.4196   27.8878 C.ar    1  UNL1        0.0552
      6 C         -25.9471    1.6811   27.3792 C.ar    1  UNL1        0.0111
      7 C         -26.8806    0.9300   27.7124 C.ar    1  UNL1        0.0799
      8 C         -28.0928   -1.4808   30.2234 C.ar    1  UNL1        0.0536
      9 C         -26.8687   -2.1329   30.6068 C.ar    1  UNL1        0.0045
     10 C         -25.6382   -1.4303   30.2236 C.ar    1  UNL1        0.0002
     11 C         -23.4172    2.1685   27.5480 C.2     1  UNL1        0.2648
     12 N         -22.2485    1.7529   27.9846 N.am    1  UNL1       -0.2017
     13 O         -23.5637    3.1538   26.7717 O.2     1  UNL1       -0.2684
     14 C         -29.2925   -2.2308   30.6517 C.2     1  UNL1        0.2490
     15 N         -30.4205   -1.5468   30.6424 N.am    1  UNL1       -0.2761
     16 C         -30.4074   -0.2878   30.7336 C.3     1  UNL1        0.0939
     17 C         -31.6621   -2.2678   30.4706 C.3     1  UNL1        0.0939
     18 O         -29.1645   -3.2524   31.3346 O.2     1  UNL1       -0.2699
     19 C         -31.6061    0.4974   30.4097 C.3     1  UNL1        0.0284
     20 C         -32.7787   -1.5191   30.0005 C.3     1  UNL1        0.0284
     21 C         -32.7734   -0.1484   30.1584 C.3     1  UNL1        0.0801
     22 C         -33.9881    0.6233   29.8310 C.3     1  UNL1        0.3298
     23 CL        -34.2277    2.0268   30.5928 Cl      1  UNL1       -0.0470
     24 F         -34.0822    0.6451   28.4700 F       1  UNL1       -0.1868
     25 C         -28.2755    1.3486   27.0323 C.2     1  UNL1        0.3878
     26 O         -28.4273    1.4784   25.9179 O.co2   1  UNL1       -0.2406
     27 O         -29.2879    1.4896   27.8638 O.co2   1  UNL1       -0.2406
     28 C         -21.4590    1.1437   27.8100 C.3     1  UNL1        0.1155
     29 C         -21.1419   -0.0323   28.6567 C.3     1  UNL1        0.0253
     30 F         -35.0485   -0.1676   30.2629 F       1  UNL1       -0.1868
@<TRIPOS>BOND
     1     5    11    1
     2    11    12   am
     3    11    13    2
     4     8    14    1
     5    14    15   am
     6    15    16    1
     7    15    17    1
     8    14    18    2
     9    19    21    1
    10    20    21    1
    11    21    22    1
    12    22    23    1
    13    22    24    1
    14     7    25    1
    15    25    26   ar
    16    25    27   ar
    17    12    28    1
    18    28    29    1
    19    22    30    1
    20    16    19    1
    21    20    17    1
    22     3     4   ar
    23     4     5   ar
    24     5     6   ar
    25     6     7   ar
    26     7     2   ar
    27     1     2   ar
    28     2     3   ar
    29     3    10   ar
    30    10     9   ar
    31     9     8   ar
    32     8     1   ar
