@<TRIPOS>MOLECULE
No_1508-gen_results/8p0m/2024-11-26-14-13-15/
 27 29 0 0 0
SMALL
GASTEIGER

@<TRIPOS>ATOM
      1 C         -28.0162   -0.8135   28.8779 C.ar    1  UNL1       -0.0036
      2 C         -28.4690   -0.7850   29.8287 C.ar    1  UNL1       -0.0003
      3 C         -28.1816    0.4277   28.1134 C.ar    1  UNL1       -0.0128
      4 C         -28.9841    1.4155   28.5154 C.ar    1  UNL1       -0.0036
      5 C         -29.3802    0.1384   30.4612 C.ar    1  UNL1       -0.0000
      6 C         -29.5415    1.2736   29.7242 C.ar    1  UNL1       -0.0003
      7 C         -27.4586    0.4934   26.7701 C.3     1  UNL1        0.0854
      8 C         -26.0264    0.3840   26.7617 C.ar    1  UNL1       -0.0126
      9 C         -25.2370    0.2056   27.9261 C.ar    1  UNL1        0.0010
     10 C         -23.8683    0.2883   27.8607 C.ar    1  UNL1        0.0547
     11 C         -23.2742    0.9710   26.8042 C.ar    1  UNL1        0.0045
     12 C         -24.0368    1.4183   25.7266 C.ar    1  UNL1       -0.0002
     13 C         -25.3854    1.1654   25.6866 C.ar    1  UNL1       -0.0036
     14 C         -28.1918    0.3603   25.6210 C.2     1  UNL1        0.0751
     15 N         -28.5618    1.0381   24.8126 N.2     1  UNL1       -0.2725
     16 C         -28.4722    2.4553   25.1049 C.3     1  UNL1        0.1298
     17 C         -22.8170   -0.0122   28.8939 C.2     1  UNL1        0.2648
     18 N         -23.2395   -0.6144   30.0135 N.am    1  UNL1       -0.1998
     19 O         -21.6280    0.4109   28.8828 O.2     1  UNL1       -0.2684
     20 C         -22.3888   -1.0079   31.1742 C.3     1  UNL1        0.1388
     21 C         -29.6391    3.2387   24.5170 C.3     1  UNL1        0.0526
     22 C         -30.8545    2.9785   25.1239 C.ar    1  UNL1       -0.0202
     23 C         -31.9454    3.5643   24.4540 C.ar    1  UNL1       -0.0042
     24 C         -33.1663    3.7179   25.0590 C.ar    1  UNL1       -0.0003
     25 C         -33.3247    3.0884   26.3338 C.ar    1  UNL1       -0.0000
     26 C         -32.3771    2.4966   26.8387 C.ar    1  UNL1       -0.0003
     27 C         -31.0624    2.5236   26.4131 C.ar    1  UNL1       -0.0042
@<TRIPOS>BOND
     1     3     7    1
     2     7    14    1
     3    14    15    2
     4    15    16    1
     5    10    17    1
     6    17    18   am
     7    17    19    2
     8    18    20    1
     9    16    21    1
    10    21    22    1
    11     7     8    1
    12    22    23   ar
    13    23    24   ar
    14    24    25   ar
    15    25    26   ar
    16    26    27   ar
    17    27    22   ar
    18     8     9   ar
    19     9    10   ar
    20    10    11   ar
    21    11    12   ar
    22    12    13   ar
    23    13     8   ar
    24     1     2   ar
    25     2     5   ar
    26     5     6   ar
    27     6     4   ar
    28     4     3   ar
    29     3     1   ar
