@<TRIPOS>MOLECULE
No_1509-gen_results/8p0m/2024-11-26-14-13-15/
 11 12 0 0 0
SMALL
GASTEIGER

@<TRIPOS>ATOM
      1 C         -28.0162   -0.8135   28.8779 C.ar    1  UNL1        0.0810
      2 C         -28.4690   -0.7850   29.8287 C.ar    1  UNL1        0.0191
      3 N         -28.3026    0.2475   28.0344 N.ar    1  UNL1       -0.2438
      4 C         -27.3575    0.7612   27.1787 C.ar    1  UNL1        0.0988
      5 C         -26.0117    0.3290   27.2875 C.ar    1  UNL1        0.0207
      6 C         -25.6404   -0.6325   28.2706 C.ar    1  UNL1        0.0028
      7 C         -26.5825   -1.0103   29.1465 C.ar    1  UNL1        0.0137
      8 C         -28.2939   -1.8921   30.8736 C.ar    1  UNL1        0.0012
      9 C         -27.0135   -2.3968   31.0435 C.ar    1  UNL1       -0.0042
     10 C         -26.1028   -1.9778   30.1346 C.ar    1  UNL1       -0.0204
     11 C         -24.7766   -2.5430   30.0756 C.3     1  UNL1        0.0311
@<TRIPOS>BOND
     1    10    11    1
     2     1     2   ar
     3     2     8   ar
     4     8     9   ar
     5     9    10   ar
     6    10     7   ar
     7     1     3   ar
     8     3     4   ar
     9     4     5   ar
    10     5     6   ar
    11     6     7   ar
    12     7     1   ar
