@<TRIPOS>MOLECULE
No_151-gen_results/8p0m/2024-11-26-14-13-15/
 13 14 0 0 0
SMALL
GASTEIGER

@<TRIPOS>ATOM
      1 C         -28.0162   -0.8135   28.8779 C.ar    1  UNL1        0.0067
      2 C         -28.4690   -0.7850   29.8287 C.ar    1  UNL1        0.0346
      3 C         -26.5042   -0.7777   28.8766 C.ar    1  UNL1        0.0005
      4 C         -25.8103   -0.8531   30.1028 C.ar    1  UNL1        0.0000
      5 C         -27.9906   -0.8916   31.2257 C.ar    1  UNL1        0.0067
      6 C         -26.6042   -0.8676   31.2652 C.ar    1  UNL1        0.0005
      7 C         -24.3894   -0.8049   30.1638 C.ar    1  UNL1        0.0000
      8 C         -23.7660   -0.9500   31.0679 C.ar    1  UNL1        0.0000
      9 C         -23.6669   -0.5949   28.8837 C.ar    1  UNL1        0.0000
     10 C         -22.2646   -0.4068   28.9326 C.ar    1  UNL1        0.0000
     11 C         -22.2701   -0.8431   31.2960 C.ar    1  UNL1        0.0000
     12 C         -21.5958   -0.5414   30.1031 C.ar    1  UNL1        0.0000
     13 BR        -30.4354   -0.6405   29.6461 Br      1  UNL1       -0.0490
@<TRIPOS>BOND
     1     4     7    1
     2     2    13    1
     3     7     8   ar
     4     8    11   ar
     5    11    12   ar
     6    12    10   ar
     7    10     9   ar
     8     9     7   ar
     9     1     2   ar
    10     2     5   ar
    11     5     6   ar
    12     6     4   ar
    13     4     3   ar
    14     3     1   ar
