@<TRIPOS>MOLECULE
No_1511-gen_results/8p0m/2024-11-26-14-13-15/
 28 30 0 0 0
SMALL
GASTEIGER

@<TRIPOS>ATOM
      1 C         -28.0162   -0.8135   28.8779 C.ar    1  UNL1        0.0046
      2 C         -27.0636   -0.1189   28.6079 C.ar    1  UNL1        0.0001
      3 C         -25.7923   -0.4302   29.0761 C.ar    1  UNL1        0.0001
      4 C         -24.5456    0.3494   28.8225 C.ar    1  UNL1        0.0046
      5 C         -24.6586    1.4196   27.8878 C.ar    1  UNL1        0.0567
      6 C         -25.9471    1.6811   27.3792 C.ar    1  UNL1        0.0046
      7 C         -27.0439    0.9739   27.6871 C.ar    1  UNL1        0.0001
      8 C         -28.0241   -1.6475   30.1262 C.ar    1  UNL1        0.0551
      9 C         -26.7278   -2.0846   30.5807 C.ar    1  UNL1        0.0046
     10 C         -25.5915   -1.4064   30.1489 C.ar    1  UNL1        0.0001
     11 C         -23.4486    2.1675   27.5241 C.2     1  UNL1        0.2842
     12 N         -23.5972    3.3225   27.0840 N.am    1  UNL1       -0.0837
     13 O         -22.2880    1.7287   27.7330 O.2     1  UNL1       -0.2667
     14 C         -29.1605   -2.4709   30.5313 C.2     1  UNL1        0.2673
     15 N         -29.1464   -3.6279   30.8863 N.am    1  UNL1       -0.1652
     16 O         -30.2986   -1.8495   30.5232 O.2     1  UNL1       -0.2683
     17 C         -30.2640   -4.4988   31.2519 C.3     1  UNL1        0.2789
     18 C         -30.8730   -5.1428   30.3689 C.ar    1  UNL1        0.0308
     19 C         -30.6406   -4.9569   29.0536 C.ar    1  UNL1        0.0001
     20 C         -31.2146   -5.7346   27.9659 C.ar    1  UNL1        0.0037
     21 C         -32.0180   -6.8126   28.3036 C.ar    1  UNL1        0.0714
     22 C         -32.2483   -7.0877   29.6462 C.ar    1  UNL1        0.0037
     23 C         -31.6668   -6.3390   30.6506 C.ar    1  UNL1        0.0001
     24 F         -30.5009   -4.4362   32.5213 F       1  UNL1       -0.2080
     25 C         -32.6327   -7.5409   27.2176 C.3     1  UNL1        0.4186
     26 F         -31.9567   -7.8886   26.3339 F       1  UNL1       -0.1659
     27 F         -33.1498   -8.7127   27.7488 F       1  UNL1       -0.1659
     28 F         -33.6608   -6.7954   26.7575 F       1  UNL1       -0.1659
@<TRIPOS>BOND
     1     5    11    1
     2    11    12   am
     3    11    13    2
     4     8    14    1
     5    14    15   am
     6    14    16    2
     7    15    17    1
     8    17    18    1
     9    17    24    1
    10    21    25    1
    11    25    26    1
    12    25    27    1
    13    25    28    1
    14    18    19   ar
    15    19    20   ar
    16    20    21   ar
    17    21    22   ar
    18    22    23   ar
    19    23    18   ar
    20     3     4   ar
    21     4     5   ar
    22     5     6   ar
    23     6     7   ar
    24     7     2   ar
    25     1     2   ar
    26     2     3   ar
    27     3    10   ar
    28    10     9   ar
    29     9     8   ar
    30     8     1   ar
