@<TRIPOS>MOLECULE
No_1512-gen_results/8p0m/2024-11-26-14-13-15/
 15 15 0 0 0
SMALL
GASTEIGER

@<TRIPOS>ATOM
      1 O         -28.1229   -1.3353   28.4874 O.2     1  UNL1       -0.2745
      2 C         -28.5208   -0.4363   29.0779 C.2     1  UNL1        0.2302
      3 C         -28.5894    0.5916   28.9464 C.3     1  UNL1        0.1116
      4 N         -29.3752   -0.9434   30.2659 N.am    1  UNL1       -0.2758
      5 C         -27.5822    1.2649   28.1478 C.ar    1  UNL1       -0.0131
      6 C         -26.2743    1.0474   28.5730 C.ar    1  UNL1       -0.0038
      7 C         -25.1236    1.5178   27.7476 C.ar    1  UNL1       -0.0003
      8 C         -25.3959    2.2327   26.6025 C.ar    1  UNL1       -0.0003
      9 C         -26.6880    2.4873   26.2017 C.ar    1  UNL1       -0.0003
     10 C         -27.7148    2.0284   26.9597 C.ar    1  UNL1       -0.0038
     11 C         -30.0299   -0.1354   31.1879 C.3     1  UNL1        0.1149
     12 C         -29.3105   -2.4182   30.6342 C.3     1  UNL1        0.1149
     13 C         -24.1704    2.7777   25.8989 C.2     1  UNL1       -0.0046
     14 C         -23.1030    1.8005   25.7455 C.2     1  UNL1       -0.0258
     15 C         -22.8413    1.1190   26.9763 C.3     1  UNL1        0.0307
@<TRIPOS>BOND
     1     1     2    2
     2     2     3    1
     3     2     4   am
     4     3     5    1
     5     4    11    1
     6     4    12    1
     7     8    13    1
     8    13    14    2
     9    14    15    1
    10     5     6   ar
    11     6     7   ar
    12     7     8   ar
    13     8     9   ar
    14     9    10   ar
    15    10     5   ar
