@<TRIPOS>MOLECULE
No_1513-gen_results/8p0m/2024-11-26-14-13-15/
 18 18 0 0 0
SMALL
GASTEIGER

@<TRIPOS>ATOM
      1 C         -28.0162   -0.8135   28.8779 C.ar    1  UNL1        0.0131
      2 C         -28.4690   -0.7850   29.8287 C.ar    1  UNL1        0.0798
      3 C         -27.0871    0.2903   28.6377 C.ar    1  UNL1        0.0798
      4 C         -26.2516    0.4114   27.4223 C.2     1  UNL1        0.3877
      5 C         -28.3913    0.1041   30.9805 C.ar    1  UNL1        0.0069
      6 C         -27.5332    1.1666   30.7866 C.ar    1  UNL1        0.0337
      7 C         -26.8281    1.2557   29.6454 C.ar    1  UNL1        0.0069
      8 O         -25.9361    1.5378   27.1650 O.co2   1  UNL1       -0.2406
      9 O         -26.0001   -0.5965   26.7376 O.co2   1  UNL1       -0.2406
     10 C         -29.4637   -2.0043   30.2582 C.2     1  UNL1        0.3877
     11 O         -30.1295   -1.9588   31.2474 O.co2   1  UNL1       -0.2406
     12 O         -29.0721   -3.1717   29.9268 O.co2   1  UNL1       -0.2406
     13 C         -27.3580    2.2042   31.8447 C.3     1  UNL1        0.2866
     14 N         -26.5536    2.8506   32.0009 N.2     1  UNL1       -0.2335
     15 C         -26.3302    3.8570   32.9795 C.2     1  UNL1        0.0964
     16 C         -27.2501    3.9097   33.9659 C.2     1  UNL1        0.0203
     17 F         -28.5682    1.9949   32.7148 F       1  UNL1       -0.2051
     18 C         -27.0473    4.9137   34.9347 C.2     1  UNL1        0.0016
@<TRIPOS>BOND
     1     3     4    1
     2     4     8   ar
     3     4     9   ar
     4     2    10    1
     5    10    11   ar
     6    10    12   ar
     7     6    13    1
     8    13    14    1
     9    14    15    2
    10    15    16    1
    11    13    17    1
    12    16    18    2
    13     1     2   ar
    14     2     5   ar
    15     5     6   ar
    16     6     7   ar
    17     7     3   ar
    18     3     1   ar
