@<TRIPOS>MOLECULE
No_1515-gen_results/8p0m/2024-11-26-14-13-15/
 11 11 0 0 0
SMALL
GASTEIGER

@<TRIPOS>ATOM
      1 C         -28.0162   -0.8135   28.8779 C.3     1  UNL1        0.0468
      2 C         -27.0636   -0.1189   28.6079 C.ar    1  UNL1       -0.0207
      3 C         -26.9716    0.7139   27.5060 C.ar    1  UNL1       -0.0042
      4 C         -25.8205    1.4910   27.1160 C.ar    1  UNL1        0.0013
      5 C         -24.6562    1.4242   27.9180 C.ar    1  UNL1        0.0209
      6 C         -24.7114    0.5419   29.0507 C.ar    1  UNL1        0.0013
      7 C         -25.8042   -0.2058   29.3881 C.ar    1  UNL1       -0.0042
      8 C         -28.7426   -0.4419   30.1405 C.3     1  UNL1        0.1140
      9 N         -29.7839   -1.2426   30.5802 N.3     1  UNL1       -0.1310
     10 C         -23.4611    2.1604   27.6139 C.2     1  UNL1        0.1221
     11 N         -22.4998    2.1604   28.5240 N.2     1  UNL1       -0.1464
@<TRIPOS>BOND
     1     1     8    1
     2     8     9    1
     3     5    10    1
     4    10    11    2
     5     1     2    1
     6     2     3   ar
     7     3     4   ar
     8     4     5   ar
     9     5     6   ar
    10     6     7   ar
    11     7     2   ar
