@<TRIPOS>MOLECULE
No_1516-gen_results/8p0m/2024-11-26-14-13-15/
 20 21 0 0 0
SMALL
GASTEIGER

@<TRIPOS>ATOM
      1 F         -28.0727   -1.2542   28.5316 F       1  UNL1       -0.2368
      2 C         -28.2662   -0.4214   29.1931 C.3     1  UNL1        0.1681
      3 C         -29.4445    0.0759   29.3394 C.3     1  UNL1        0.0362
      4 C         -29.7073    1.1743   30.2277 C.3     1  UNL1        0.0106
      5 C         -28.5970    1.7109   30.9109 C.3     1  UNL1        0.0647
      6 C         -27.3024    1.1821   30.7905 C.2     1  UNL1        0.1532
      7 C         -27.1217    0.1218   29.9802 C.3     1  UNL1        0.0941
      8 C         -25.7978   -0.4263   29.8450 C.3     1  UNL1        0.0319
      9 C         -24.8604    0.1867   29.2584 C.ar    1  UNL1       -0.0221
     10 C         -24.7985    0.9207   28.2502 C.ar    1  UNL1       -0.0004
     11 C         -23.6516    1.6433   27.7569 C.ar    1  UNL1        0.0711
     12 C         -22.4549    1.4369   28.3587 C.ar    1  UNL1        0.0038
     13 C         -23.4541    0.0634   29.9422 C.ar    1  UNL1       -0.0043
     14 C         -22.3632    0.6994   29.4769 C.ar    1  UNL1       -0.0004
     15 C         -25.6903   -1.8580   30.2515 C.3     1  UNL1        0.0052
     16 C         -23.9062    2.5535   26.6353 C.3     1  UNL1        0.4186
     17 F         -23.1453    3.3183   26.2765 F       1  UNL1       -0.1659
     18 F         -25.0851    3.3006   26.9007 F       1  UNL1       -0.1659
     19 F         -24.3052    1.7692   25.5494 F       1  UNL1       -0.1659
     20 O         -26.3426    1.7705   31.4453 O.2     1  UNL1       -0.2960
@<TRIPOS>BOND
     1     1     2    1
     2     3     4    1
     3     5     6    1
     4     2     7    1
     5     6     7    1
     6     7     8    1
     7     8     9    1
     8     8    15    1
     9    11    16    1
    10    16    17    1
    11    16    18    1
    12    16    19    1
    13     6    20    2
    14     5     4    1
    15     3     2    1
    16     9    10   ar
    17    10    11   ar
    18    11    12   ar
    19    12    14   ar
    20    14    13   ar
    21    13     9   ar
