@<TRIPOS>MOLECULE
No_1518-gen_results/8p0m/2024-11-26-14-13-15/
 20 21 0 0 0
SMALL
GASTEIGER

@<TRIPOS>ATOM
      1 C         -28.0162   -0.8135   28.8779 C.ar    1  UNL1       -0.0003
      2 C         -28.4690   -0.7850   29.8287 C.ar    1  UNL1       -0.0000
      3 C         -27.1356    0.2359   28.5352 C.ar    1  UNL1       -0.0043
      4 C         -26.8745    1.2825   29.3982 C.ar    1  UNL1       -0.0003
      5 C         -28.3613    0.1987   30.9244 C.ar    1  UNL1       -0.0000
      6 C         -27.5277    1.2234   30.6356 C.ar    1  UNL1       -0.0000
      7 C         -26.3987    0.2949   27.2279 C.2     1  UNL1       -0.0261
      8 C         -26.9022    0.7280   26.2134 C.2     1  UNL1       -0.0258
      9 C         -28.2290    1.2592   26.1972 C.ar    1  UNL1       -0.0043
     10 C         -28.8634    1.6436   27.2291 C.ar    1  UNL1       -0.0003
     11 C         -29.9147    2.2337   27.2525 C.ar    1  UNL1       -0.0000
     12 C         -30.5843    2.5094   25.9403 C.ar    1  UNL1       -0.0000
     13 C         -29.9256    2.1855   24.7780 C.ar    1  UNL1       -0.0000
     14 C         -28.7068    1.6682   24.8444 C.ar    1  UNL1       -0.0003
     15 C         -26.1457    0.5166   24.9213 C.3     1  UNL1        0.0307
     16 C         -25.0015    0.0371   27.2898 C.3     1  UNL1        0.0260
     17 C         -24.1776    0.7914   28.1780 C.3     1  UNL1        0.0043
     18 C         -23.5912    1.8839   27.7660 C.3     1  UNL1        0.0003
     19 C         -23.8471    0.1941   29.4575 C.3     1  UNL1        0.0003
     20 C         -23.1531   -0.8037   29.6430 C.3     1  UNL1        0.0000
@<TRIPOS>BOND
     1     3     7    1
     2     7     8    2
     3     8     9    1
     4     8    15    1
     5     7    16    1
     6    16    17    1
     7    17    18    1
     8    17    19    1
     9    19    20    1
    10     9    10   ar
    11    10    11   ar
    12    11    12   ar
    13    12    13   ar
    14    13    14   ar
    15    14     9   ar
    16     1     2   ar
    17     2     5   ar
    18     5     6   ar
    19     6     4   ar
    20     4     3   ar
    21     3     1   ar
