@<TRIPOS>MOLECULE
No_152-gen_results/8p0m/2024-11-26-14-13-15/
 26 29 0 0 0
SMALL
GASTEIGER

@<TRIPOS>ATOM
      1 C         -28.0162   -0.8135   28.8779 C.ar    1  UNL1        0.0075
      2 C         -27.0636   -0.1190   28.6079 C.ar    1  UNL1        0.0366
      3 C         -25.7923   -0.4302   29.0761 C.ar    1  UNL1        0.0027
      4 C         -24.5456    0.3494   28.8225 C.ar    1  UNL1        0.0008
      5 C         -23.2409    0.0217   29.3323 C.ar    1  UNL1       -0.0001
      6 C         -22.1362    0.7695   29.0059 C.ar    1  UNL1        0.0031
      7 C         -27.9050   -1.8984   29.8729 C.ar    1  UNL1        0.0551
      8 C         -26.6795   -2.3145   30.3184 C.ar    1  UNL1        0.0046
      9 C         -25.5203   -1.5564   29.9775 C.ar    1  UNL1        0.0002
     10 C         -22.1155    1.7338   28.0257 C.ar    1  UNL1        0.0367
     11 C         -24.5222    1.3908   27.7909 C.ar    1  UNL1        0.0350
     12 C         -23.3248    2.0519   27.4472 C.ar    1  UNL1        0.1382
     13 C         -29.0635   -2.7190   30.2976 C.2     1  UNL1        0.2650
     14 N         -28.9711   -4.0009   30.4941 N.am    1  UNL1       -0.1925
     15 C         -29.9974   -4.8792   30.2024 C.3     1  UNL1        0.2182
     16 C         -30.4154   -5.7136   31.2714 C.3     1  UNL1        0.4175
     17 F         -31.4703   -5.2312   31.8967 F       1  UNL1       -0.1681
     18 F         -29.4192   -5.7441   32.2193 F       1  UNL1       -0.1681
     19 F         -30.6831   -6.9963   30.8989 F       1  UNL1       -0.1681
     20 O         -30.1821   -2.1797   30.4178 O.2     1  UNL1       -0.2684
     21 O         -23.4197    2.9869   26.4860 O.3     1  UNL1       -0.4573
     22 C         -24.7476    3.3977   26.1567 C.3     1  UNL1        0.2996
     23 C         -25.6855    1.7298   27.1104 C.3     1  UNL1        0.1629
     24 N         -25.7018    2.8177   26.3554 N.3     1  UNL1       -0.1646
     25 C         -26.9617    1.0995   27.4216 C.2     1  UNL1        0.1931
     26 O         -28.0993    1.2482   26.9263 O.2     1  UNL1       -0.2895
@<TRIPOS>BOND
     1     3     4    1
     2     7    13    1
     3    13    14   am
     4    14    15    1
     5    15    16    1
     6    16    17    1
     7    16    18    1
     8    16    19    1
     9    13    20    2
    10    12    21    1
    11    21    22    1
    12    11    23    1
    13    22    24    1
    14    23    24    1
    15     2    25    1
    16    23    25    1
    17    25    26    2
    18     1     2   ar
    19     2     3   ar
    20     3     9   ar
    21     9     8   ar
    22     8     7   ar
    23     7     1   ar
    24     4     5   ar
    25     5     6   ar
    26     6    10   ar
    27    10    12   ar
    28    12    11   ar
    29    11     4   ar
