@<TRIPOS>MOLECULE
No_1520-gen_results/8p0m/2024-11-26-14-13-15/
 35 38 0 0 0
SMALL
GASTEIGER

@<TRIPOS>ATOM
      1 C         -28.0162   -0.8135   28.8779 C.3     1  UNL1        0.0554
      2 C         -27.0636   -0.1190   28.6079 C.ar    1  UNL1        0.0161
      3 C         -25.7923   -0.4302   29.0761 C.ar    1  UNL1        0.1350
      4 C         -24.5456    0.3494   28.8225 C.ar    1  UNL1        0.0404
      5 C         -24.6586    1.4196   27.8878 C.ar    1  UNL1        0.0744
      6 C         -25.9471    1.6811   27.3792 C.ar    1  UNL1        0.0037
      7 C         -27.0439    0.9739   27.6871 C.ar    1  UNL1       -0.0010
      8 C         -29.2096   -0.0265   29.3432 C.ar    1  UNL1       -0.0210
      9 C         -29.4825   -0.0930   30.5632 C.ar    1  UNL1       -0.0180
     10 C         -30.0267    0.4327   28.3038 C.ar    1  UNL1       -0.0042
     11 C         -31.2526    1.0398   28.6679 C.ar    1  UNL1       -0.0003
     12 C         -28.7029   -0.6463   31.6723 C.3     1  UNL1        0.0664
     13 C         -31.5489    1.0642   30.0472 C.ar    1  UNL1       -0.0003
     14 C         -30.7237    0.5685   30.9920 C.ar    1  UNL1       -0.0039
     15 C         -23.4839    2.1809   27.5981 C.3     1  UNL1        0.4187
     16 F         -23.6561    3.3393   27.3085 F       1  UNL1       -0.1659
     17 F         -22.7266    1.5658   26.5540 F       1  UNL1       -0.1659
     18 F         -22.5798    2.2266   28.6311 F       1  UNL1       -0.1659
     19 C         -29.0263   -1.7939   32.1869 C.ar    1  UNL1       -0.0143
     20 C         -27.5995    0.1091   32.1487 C.ar    1  UNL1       -0.0141
     21 C         -26.7347   -0.3818   33.1072 C.ar    1  UNL1       -0.0036
     22 C         -27.3715    1.4935   31.6839 C.ar    1  UNL1        0.0029
     23 C         -26.1454    2.1419   32.0568 C.ar    1  UNL1        0.0795
     24 C         -25.5311    0.3046   33.5208 C.ar    1  UNL1       -0.0001
     25 C         -25.3169    1.6078   33.0047 C.ar    1  UNL1        0.0066
     26 C         -25.8975    3.5226   31.5542 C.2     1  UNL1        0.3877
     27 O         -26.6203    4.1369   31.0956 O.co2   1  UNL1       -0.2406
     28 O         -24.6494    3.9511   31.8662 O.co2   1  UNL1       -0.2406
     29 O         -25.5613   -1.4445   29.9321 O.3     1  UNL1       -0.4717
     30 C         -24.3550   -1.8439   30.3687 C.3     1  UNL1        0.2525
     31 C         -28.8299   -3.0518   31.4390 C.ar    1  UNL1       -0.0036
     32 C         -29.3268   -4.2621   31.9025 C.ar    1  UNL1       -0.0003
     33 C         -29.8754   -4.3463   33.1886 C.ar    1  UNL1       -0.0000
     34 C         -30.0426   -3.2048   33.9667 C.ar    1  UNL1       -0.0003
     35 C         -29.6735   -1.9485   33.4945 C.ar    1  UNL1       -0.0036
@<TRIPOS>BOND
     1     1     2    1
     2     1     8    1
     3     9    12    1
     4     5    15    1
     5    15    16    1
     6    15    17    1
     7    15    18    1
     8    12    20    1
     9    23    26    1
    10    26    27   ar
    11    26    28   ar
    12     3    29    1
    13    29    30    1
    14    12    19    1
    15     2     3   ar
    16     3     4   ar
    17     4     5   ar
    18     5     6   ar
    19     6     7   ar
    20     7     2   ar
    21    19    31   ar
    22    31    32   ar
    23    32    33   ar
    24    33    34   ar
    25    34    35   ar
    26    35    19   ar
    27     8     9   ar
    28     9    14   ar
    29    14    13   ar
    30    13    11   ar
    31    11    10   ar
    32    10     8   ar
    33    20    21   ar
    34    21    24   ar
    35    24    25   ar
    36    25    23   ar
    37    23    22   ar
    38    22    20   ar
