@<TRIPOS>MOLECULE
No_1521-gen_results/8p0m/2024-11-26-14-13-15/
 22 23 0 0 0
SMALL
GASTEIGER

@<TRIPOS>ATOM
      1 C         -28.0162   -0.8135   28.8779 C.ar    1  UNL1        0.0046
      2 C         -27.0636   -0.1189   28.6079 C.ar    1  UNL1       -0.0001
      3 C         -25.7647   -0.3897   29.0360 C.ar    1  UNL1       -0.0027
      4 C         -24.5516    0.4058   28.7646 C.ar    1  UNL1       -0.0061
      5 C         -23.2300    0.1178   29.2575 C.ar    1  UNL1       -0.0029
      6 C         -23.0942   -1.1309   29.8730 C.ar    1  UNL1       -0.0003
      7 C         -27.7980   -1.9341   29.8560 C.ar    1  UNL1        0.0550
      8 C         -26.5420   -2.3269   30.2580 C.ar    1  UNL1        0.0046
      9 C         -25.4514   -1.5516   29.9079 C.ar    1  UNL1       -0.0001
     10 C         -24.1562   -1.9097   30.2809 C.ar    1  UNL1       -0.0000
     11 C         -24.6450    1.6582   27.9464 C.3     1  UNL1        0.0992
     12 N         -23.7227    1.8820   27.0720 N.3     1  UNL1       -0.2665
     13 C         -22.4631    1.9521   27.3851 C.3     1  UNL1        0.0899
     14 C         -24.0269    2.0812   25.7134 C.3     1  UNL1        0.0899
     15 C         -29.0178   -2.7388   30.2752 C.2     1  UNL1        0.2650
     16 N         -30.1458   -2.1551   30.3246 N.am    1  UNL1       -0.1925
     17 O         -28.8534   -3.9366   30.6093 O.2     1  UNL1       -0.2684
     18 C         -31.3514   -2.9037   30.7138 C.3     1  UNL1        0.2182
     19 C         -32.3887   -2.5966   30.0283 C.3     1  UNL1        0.4175
     20 F         -32.4436   -1.6575   29.6721 F       1  UNL1       -0.1681
     21 F         -32.4460   -3.5211   28.8894 F       1  UNL1       -0.1681
     22 F         -33.5493   -3.0737   30.6737 F       1  UNL1       -0.1681
@<TRIPOS>BOND
     1     4    11    1
     2    11    12    1
     3    12    13    1
     4    12    14    1
     5     7    15    1
     6    15    16   am
     7    15    17    2
     8    16    18    1
     9    18    19    1
    10    19    20    1
    11    19    21    1
    12    19    22    1
    13     1     2   ar
    14     2     3   ar
    15     9     8   ar
    16     8     7   ar
    17     7     1   ar
    18     3     4   ar
    19     4     5   ar
    20     5     6   ar
    21     6    10   ar
    22    10     9   ar
    23     9     3   ar
