@<TRIPOS>MOLECULE
No_1522-gen_results/8p0m/2024-11-26-14-13-15/
 14 15 0 0 0
SMALL
GASTEIGER

@<TRIPOS>ATOM
      1 C         -28.0162   -0.8135   28.8779 C.ar    1  UNL1        0.0000
      2 C         -28.4690   -0.7850   29.8287 C.ar    1  UNL1        0.0000
      3 C         -27.1356    0.2359   28.5352 C.ar    1  UNL1        0.0000
      4 C         -26.8745    1.2825   29.3982 C.ar    1  UNL1        0.0000
      5 C         -27.5070    1.2380   30.6295 C.ar    1  UNL1        0.0000
      6 C         -28.3269    0.1637   30.9240 C.ar    1  UNL1        0.0000
      7 C         -26.4110    0.3070   27.2192 C.2     1  UNL1        0.0000
      8 C         -26.8746    0.8940   26.2226 C.2     1  UNL1        0.0000
      9 C         -28.1129    1.5868   26.3029 C.ar    1  UNL1        0.0000
     10 C         -28.6636    2.0819   25.0458 C.ar    1  UNL1        0.0000
     11 C         -29.8506    2.8061   25.0555 C.ar    1  UNL1        0.0000
     12 C         -30.4236    3.2091   26.2660 C.ar    1  UNL1        0.0000
     13 C         -29.8200    2.8052   27.4395 C.ar    1  UNL1        0.0000
     14 C         -28.7124    2.1029   27.4661 C.ar    1  UNL1        0.0000
@<TRIPOS>BOND
     1     3     7    1
     2     7     8    2
     3     8     9    1
     4     1     2   ar
     5     2     6   ar
     6     6     5   ar
     7     5     4   ar
     8     4     3   ar
     9     3     1   ar
    10     9    10   ar
    11    10    11   ar
    12    11    12   ar
    13    12    13   ar
    14    13    14   ar
    15    14     9   ar
