@<TRIPOS>MOLECULE
No_1524-gen_results/8p0m/2024-11-26-14-13-15/
 13 14 0 0 0
SMALL
GASTEIGER

@<TRIPOS>ATOM
      1 C         -28.0162   -0.8135   28.8779 C.3     1  UNL1        0.0526
      2 C         -28.4690   -0.7850   29.8287 C.ar    1  UNL1       -0.0178
      3 C         -26.5042   -0.7777   28.8766 C.ar    1  UNL1       -0.0178
      4 C         -25.6540   -0.6597   27.7191 C.ar    1  UNL1       -0.0039
      5 C         -29.9920   -0.8134   29.9579 C.ar    1  UNL1       -0.0039
      6 C         -24.2351   -0.6218   27.9719 C.ar    1  UNL1       -0.0003
      7 C         -23.7091   -0.7791   29.2532 C.ar    1  UNL1       -0.0000
      8 C         -24.4887   -0.9098   30.3453 C.ar    1  UNL1       -0.0003
      9 C         -25.8453   -0.9368   30.1856 C.ar    1  UNL1       -0.0039
     10 C         -30.6404   -1.1320   31.1020 C.ar    1  UNL1       -0.0003
     11 C         -29.8841   -1.2504   32.3094 C.ar    1  UNL1       -0.0000
     12 C         -28.5535   -1.2624   32.3236 C.ar    1  UNL1       -0.0003
     13 C         -27.8586   -1.1347   31.1950 C.ar    1  UNL1       -0.0039
@<TRIPOS>BOND
     1     1     2    1
     2     1     3    1
     3     3     4   ar
     4     4     6   ar
     5     6     7   ar
     6     7     8   ar
     7     8     9   ar
     8     9     3   ar
     9     2     5   ar
    10     5    10   ar
    11    10    11   ar
    12    11    12   ar
    13    12    13   ar
    14    13     2   ar
