@<TRIPOS>MOLECULE
No_1526-gen_results/8p0m/2024-11-26-14-13-15/
 19 20 0 0 0
SMALL
GASTEIGER

@<TRIPOS>ATOM
      1 C         -28.0162   -0.8135   28.8779 C.ar    1  UNL1        0.0293
      2 C         -28.4690   -0.7850   29.8287 C.ar    1  UNL1        0.1401
      3 C         -26.5455   -0.8762   28.8500 C.ar    1  UNL1       -0.0014
      4 C         -25.8974   -0.8267   29.8894 C.ar    1  UNL1       -0.0154
      5 C         -27.9129   -0.8385   31.1942 C.ar    1  UNL1        0.0293
      6 C         -24.3990   -0.8610   29.9702 C.3     1  UNL1        0.0528
      7 C         -26.5235   -0.8574   31.1732 C.ar    1  UNL1       -0.0014
      8 C         -23.7142   -0.0788   29.0463 C.ar    1  UNL1       -0.0147
      9 C         -22.3065   -0.0691   29.0659 C.ar    1  UNL1       -0.0036
     10 C         -21.6282    0.7386   28.1352 C.ar    1  UNL1        0.0006
     11 C         -22.3044    1.6695   27.3256 C.ar    1  UNL1        0.0114
     12 C         -23.6801    1.7722   27.4504 C.ar    1  UNL1        0.0574
     13 C         -24.3896    0.9350   28.3264 C.ar    1  UNL1        0.0077
     14 CL        -24.4694    2.9244   26.4739 Cl      1  UNL1       -0.0823
     15 F         -29.9362   -0.7755   29.9039 F       1  UNL1       -0.2042
     16 C         -23.9530   -2.3459   29.8538 C.3     1  UNL1        0.0129
     17 C         -23.9457   -0.4218   31.4816 C.2     1  UNL1       -0.0370
     18 C         -23.3664   -1.2676   32.3500 C.2     1  UNL1       -0.0085
     19 C         -24.2267    0.9650   31.8168 C.3     1  UNL1        0.0270
@<TRIPOS>BOND
     1     4     6    1
     2     6     8    1
     3    12    14    1
     4     2    15    1
     5     6    16    1
     6     6    17    1
     7    17    18    2
     8    17    19    1
     9     8     9   ar
    10     9    10   ar
    11    10    11   ar
    12    11    12   ar
    13    12    13   ar
    14    13     8   ar
    15     1     2   ar
    16     2     5   ar
    17     5     7   ar
    18     7     4   ar
    19     4     3   ar
    20     3     1   ar
