@<TRIPOS>MOLECULE
No_1528-gen_results/8p0m/2024-11-26-14-13-15/
 29 32 0 0 0
SMALL
GASTEIGER

@<TRIPOS>ATOM
      1 C         -28.0162   -0.8135   28.8779 C.ar    1  UNL1        0.0066
      2 C         -28.4690   -0.7850   29.8287 C.ar    1  UNL1        0.0798
      3 C         -28.1960    0.3478   28.0550 C.ar    1  UNL1       -0.0001
      4 C         -29.0191    1.3501   28.3782 C.ar    1  UNL1       -0.0000
      5 C         -29.4107    0.1803   30.3782 C.ar    1  UNL1        0.0066
      6 C         -29.6059    1.2495   29.6193 C.ar    1  UNL1        0.0002
      7 C         -27.4597    0.3802   26.7091 C.ar    1  UNL1       -0.0036
      8 C         -26.0094    0.3317   26.7236 C.ar    1  UNL1       -0.0178
      9 C         -25.2366    0.2125   27.9051 C.3     1  UNL1        0.0526
     10 C         -23.8699    0.3041   27.8529 C.ar    1  UNL1       -0.0178
     11 C         -23.0809   -0.0097   29.0093 C.ar    1  UNL1       -0.0039
     12 C         -21.6954    0.1888   28.9397 C.ar    1  UNL1       -0.0003
     13 C         -21.1284    1.0316   28.0044 C.ar    1  UNL1       -0.0000
     14 C         -21.9816    1.6948   27.0666 C.ar    1  UNL1       -0.0003
     15 C         -23.3433    1.3900   27.1177 C.ar    1  UNL1       -0.0039
     16 C         -28.2044    0.3492   25.5561 C.ar    1  UNL1       -0.0003
     17 C         -29.4091   -0.0166   25.4818 C.ar    1  UNL1        0.0008
     18 C         -30.0502   -0.0002   24.1620 C.ar    1  UNL1        0.0001
     19 C         -31.3860   -0.4294   24.0467 C.ar    1  UNL1        0.0009
     20 C         -31.9872   -1.0998   25.0985 C.ar    1  UNL1        0.0114
     21 C         -31.4303   -1.0885   26.3855 C.ar    1  UNL1        0.0577
     22 C         -30.1892   -0.5988   26.5947 C.ar    1  UNL1        0.0114
     23 C         -27.4176    0.8325   24.4076 C.ar    1  UNL1       -0.0000
     24 C         -25.3699    0.5577   25.4833 C.ar    1  UNL1       -0.0039
     25 C         -26.0800    0.6755   24.3570 C.ar    1  UNL1       -0.0003
     26 CL        -32.3666   -1.7334   27.6966 Cl      1  UNL1       -0.0822
     27 C         -28.2807   -1.9938   30.8775 C.2     1  UNL1        0.3878
     28 O         -28.9360   -2.3986   31.6133 O.co2   1  UNL1       -0.2406
     29 O         -26.9492   -2.3715   30.8753 O.co2   1  UNL1       -0.2406
@<TRIPOS>BOND
     1     3     7    1
     2     8     9    1
     3    21    26    1
     4     2    27    1
     5    27    28   ar
     6    27    29   ar
     7     9    10    1
     8    17    16    1
     9    17    18   ar
    10    18    19   ar
    11    19    20   ar
    12    20    21   ar
    13    21    22   ar
    14    22    17   ar
    15    10    11   ar
    16    11    12   ar
    17    12    13   ar
    18    13    14   ar
    19    14    15   ar
    20    15    10   ar
    21     1     2   ar
    22     2     5   ar
    23     5     6   ar
    24     6     4   ar
    25     4     3   ar
    26     3     1   ar
    27     7     8   ar
    28     8    24   ar
    29    24    25   ar
    30    25    23   ar
    31    23    16   ar
    32    16     7   ar
