@<TRIPOS>MOLECULE
No_153-gen_results/8p0m/2024-11-26-14-13-15/
 13 13 0 0 0
SMALL
GASTEIGER

@<TRIPOS>ATOM
      1 O         -28.1229   -1.3353   28.4874 O.3     1  UNL1       -0.1949
      2 C         -27.0637   -0.8242   28.8687 C.3     1  UNL1        0.2879
      3 C         -27.0246    0.1877   29.7358 C.3     1  UNL1        0.2607
      4 O         -26.0012    0.7006   29.9803 O.3     1  UNL1       -0.4707
      5 C         -25.0854    0.8774   29.0776 C.ar    1  UNL1        0.1388
      6 C         -23.7741    1.1215   29.5845 C.ar    1  UNL1        0.0369
      7 C         -22.6726    1.2665   28.6466 C.ar    1  UNL1        0.0031
      8 N         -25.8806   -1.5011   28.6642 N.pl3   1  UNL1       -0.2037
      9 C         -23.0478    1.6110   27.3059 C.ar    1  UNL1        0.0002
     10 C         -24.3171    1.4759   26.8591 C.ar    1  UNL1        0.0031
     11 C         -25.3295    1.1297   27.7567 C.ar    1  UNL1        0.0369
     12 C         -25.1896   -2.4475   29.4541 C.2     1  UNL1        0.0829
     13 C         -24.0734   -3.1106   29.0076 C.2     1  UNL1        0.0188
@<TRIPOS>BOND
     1     1     2    1
     2     2     3    1
     3     3     4    1
     4     4     5    1
     5     2     8    1
     6     8    12    1
     7    12    13    2
     8     5     6   ar
     9     6     7   ar
    10     7     9   ar
    11     9    10   ar
    12    10    11   ar
    13    11     5   ar
