@<TRIPOS>MOLECULE
No_1532-gen_results/8p0m/2024-11-26-14-13-15/
 13 14 0 0 0
SMALL
GASTEIGER

@<TRIPOS>ATOM
      1 C         -28.0162   -0.8135   28.8779 C.ar    1  UNL1        0.0798
      2 C         -27.0636   -0.1190   28.6079 C.ar    1  UNL1        0.0066
      3 C         -27.0010    0.6913   27.4910 C.ar    1  UNL1        0.0003
      4 C         -28.1373    0.7363   26.6350 C.ar    1  UNL1        0.0030
      5 C         -28.1438    1.4323   25.4881 C.ar    1  UNL1        0.0207
      6 C         -29.2620   -0.5963   28.2256 C.ar    1  UNL1        0.0081
      7 C         -29.2407    0.0992   27.1012 C.ar    1  UNL1        0.0194
      8 C         -28.0237   -1.6666   30.1716 C.2     1  UNL1        0.3878
      9 O         -27.0877   -2.4257   30.3627 O.co2   1  UNL1       -0.2406
     10 O         -29.0155   -1.6875   30.9335 O.co2   1  UNL1       -0.2406
     11 C         -30.5613    0.0863   26.4613 C.ar    1  UNL1        0.0988
     12 N         -30.5728    0.7344   25.1837 N.ar    1  UNL1       -0.2423
     13 C         -29.4351    1.5304   24.7164 C.ar    1  UNL1        0.0989
@<TRIPOS>BOND
     1     1     8    1
     2     8     9   ar
     3     8    10   ar
     4     4     5   ar
     5     5    13   ar
     6    13    12   ar
     7    12    11   ar
     8    11     7   ar
     9     1     2   ar
    10     2     3   ar
    11     3     4   ar
    12     4     7   ar
    13     7     6   ar
    14     6     1   ar
