@<TRIPOS>MOLECULE
No_1534-gen_results/8p0m/2024-11-26-14-13-15/
 22 23 0 0 0
SMALL
GASTEIGER

@<TRIPOS>ATOM
      1 C         -28.0162   -0.8135   28.8779 C.ar    1  UNL1        0.0066
      2 C         -27.0636   -0.1189   28.6079 C.ar    1  UNL1        0.0002
      3 C         -25.7923   -0.4302   29.0761 C.ar    1  UNL1        0.0000
      4 C         -25.5756   -1.5654   29.9363 C.ar    1  UNL1        0.0002
      5 C         -26.7354   -2.3004   30.2173 C.ar    1  UNL1        0.0066
      6 C         -27.9184   -1.9537   29.7629 C.ar    1  UNL1        0.0798
      7 C         -27.1057    1.1023   27.7593 C.ar    1  UNL1       -0.0003
      8 C         -26.7157    2.2350   27.9945 C.ar    1  UNL1       -0.0000
      9 C         -26.6929    3.3459   27.0337 C.ar    1  UNL1       -0.0003
     10 C         -27.1962    3.0779   25.7437 C.ar    1  UNL1       -0.0039
     11 C         -27.3870    1.0224   26.2986 C.ar    1  UNL1       -0.0039
     12 C         -27.4849    1.8986   25.4317 C.ar    1  UNL1       -0.0178
     13 C         -29.0550   -2.7814   30.2240 C.2     1  UNL1        0.3878
     14 O         -29.4724   -2.6715   31.1625 O.co2   1  UNL1       -0.2406
     15 O         -29.3893   -3.7538   29.3895 O.co2   1  UNL1       -0.2406
     16 C         -27.9002    1.6025   24.0572 C.3     1  UNL1        0.0523
     17 C         -29.2776    1.2715   23.9278 C.2     1  UNL1       -0.0214
     18 C         -30.3729    2.0321   23.8384 C.2     1  UNL1       -0.0042
     19 C         -31.6730    1.6087   23.7467 C.2     1  UNL1       -0.0003
     20 C         -32.7619    2.4603   23.5929 C.2     1  UNL1       -0.0000
     21 C         -32.5633    3.8696   23.7031 C.2     1  UNL1       -0.0000
     22 C         -31.3061    4.3256   23.9534 C.2     1  UNL1       -0.0000
@<TRIPOS>BOND
     1     2     7    1
     2     6    13    1
     3    13    14   ar
     4    13    15   ar
     5    12    16    1
     6    16    17    1
     7    17    18    2
     8    18    19    1
     9    19    20    2
    10    20    21    1
    11    21    22    2
    12     7     8   ar
    13     8     9   ar
    14     9    10   ar
    15    10    12   ar
    16    12    11   ar
    17    11     7   ar
    18     1     2   ar
    19     2     3   ar
    20     3     4   ar
    21     4     5   ar
    22     5     6   ar
    23     6     1   ar
