@<TRIPOS>MOLECULE
No_1537-gen_results/8p0m/2024-11-26-14-13-15/
 15 16 0 0 0
SMALL
GASTEIGER

@<TRIPOS>ATOM
      1 C         -28.0162   -0.8135   28.8779 C.ar    1  UNL1       -0.0035
      2 C         -27.0636   -0.1189   28.6079 C.ar    1  UNL1       -0.0110
      3 C         -25.7923   -0.4302   29.0761 C.ar    1  UNL1       -0.0035
      4 C         -25.5756   -1.5654   29.9363 C.ar    1  UNL1       -0.0003
      5 C         -26.7354   -2.3004   30.2173 C.ar    1  UNL1       -0.0000
      6 C         -27.9184   -1.9537   29.7629 C.ar    1  UNL1       -0.0003
      7 C         -27.1057    1.1023   27.7593 C.3     1  UNL1        0.1093
      8 C         -26.7157    2.2350   27.9945 C.ar    1  UNL1       -0.0110
      9 C         -27.6806    0.8547   26.4259 C.2     1  UNL1        0.2157
     10 C         -26.0318    2.5935   29.1910 C.ar    1  UNL1       -0.0035
     11 C         -26.8615    3.3798   27.0755 C.ar    1  UNL1       -0.0035
     12 C         -26.3313    4.6513   27.4584 C.ar    1  UNL1       -0.0003
     13 C         -25.5530    3.8955   29.5656 C.ar    1  UNL1       -0.0003
     14 C         -25.6755    4.9267   28.6502 C.ar    1  UNL1       -0.0000
     15 O         -27.0297    0.6124   25.4857 O.2     1  UNL1       -0.2876
@<TRIPOS>BOND
     1     2     7    1
     2     7     8    1
     3     7     9    1
     4     9    15    2
     5     8    10   ar
     6    10    13   ar
     7    13    14   ar
     8    14    12   ar
     9    12    11   ar
    10    11     8   ar
    11     1     2   ar
    12     2     3   ar
    13     3     4   ar
    14     4     5   ar
    15     5     6   ar
    16     6     1   ar
