@<TRIPOS>MOLECULE
No_1538-gen_results/8p0m/2024-11-26-14-13-15/
 19 20 0 0 0
SMALL
GASTEIGER

@<TRIPOS>ATOM
      1 C         -28.0162   -0.8135   28.8779 C.ar    1  UNL1        0.0538
      2 C         -27.0636   -0.1190   28.6079 C.ar    1  UNL1        0.0045
      3 C         -27.0010    0.6913   27.4910 C.ar    1  UNL1        0.0004
      4 C         -28.1373    0.7363   26.6350 C.ar    1  UNL1        0.0066
      5 C         -29.2360    0.0765   27.0690 C.ar    1  UNL1        0.0799
      6 C         -29.2177   -0.6429   28.1747 C.ar    1  UNL1        0.0111
      7 C         -27.7867   -1.6669   30.1199 C.2     1  UNL1        0.2490
      8 N         -28.7145   -2.0772   30.7562 N.am    1  UNL1       -0.2756
      9 O         -26.6324   -2.1934   30.3272 O.2     1  UNL1       -0.2699
     10 C         -28.6353   -3.1719   31.7773 C.3     1  UNL1        0.0937
     11 C         -30.4493    0.1674   26.2318 C.2     1  UNL1        0.3878
     12 O         -30.4977    0.2004   25.0295 O.co2   1  UNL1       -0.2406
     13 O         -31.5779   -0.3211   26.8289 O.co2   1  UNL1       -0.2406
     14 C         -29.7488   -3.0444   32.7329 C.3     1  UNL1        0.0220
     15 C         -31.0029   -3.1272   32.1248 C.3     1  UNL1        0.0113
     16 C         -31.1468   -2.0278   31.0835 C.3     1  UNL1        0.0847
     17 C         -30.0631   -1.5581   30.5796 C.3     1  UNL1        0.1014
     18 C         -32.5024   -1.7764   30.5770 C.2     1  UNL1        0.2087
     19 O         -32.6451   -0.7083   30.0647 O.2     1  UNL1       -0.2882
@<TRIPOS>BOND
     1     1     7    1
     2     7     8   am
     3     7     9    2
     4     8    10    1
     5     5    11    1
     6    11    12   ar
     7    11    13   ar
     8    10    14    1
     9    14    15    1
    10    15    16    1
    11     8    17    1
    12    16    17    1
    13    16    18    1
    14    18    19    2
    15     1     2   ar
    16     2     3   ar
    17     3     4   ar
    18     4     5   ar
    19     5     6   ar
    20     6     1   ar
