@<TRIPOS>MOLECULE
No_1539-gen_results/8p0m/2024-11-26-14-13-15/
 13 14 0 0 0
SMALL
GASTEIGER

@<TRIPOS>ATOM
      1 C         -28.0162   -0.8135   28.8779 C.ar    1  UNL1        0.0000
      2 C         -28.4690   -0.7850   29.8287 C.ar    1  UNL1        0.0000
      3 C         -28.1960    0.3478   28.0550 C.ar    1  UNL1        0.0008
      4 C         -29.0191    1.3501   28.3782 C.ar    1  UNL1        0.0000
      5 C         -29.4107    0.1803   30.3782 C.ar    1  UNL1        0.0000
      6 C         -29.6059    1.2495   29.6193 C.ar    1  UNL1        0.0000
      7 C         -27.3479    0.2333   26.8118 C.ar    1  UNL1        0.0106
      8 C         -27.7788    0.6087   25.7042 C.ar    1  UNL1        0.0008
      9 C         -25.9481   -0.0670   26.9132 C.ar    1  UNL1        0.0576
     10 C         -27.0357    0.4267   24.5010 C.ar    1  UNL1        0.0001
     11 C         -25.0932   -0.0692   25.8464 C.ar    1  UNL1        0.0114
     12 C         -25.6769    0.1297   24.6161 C.ar    1  UNL1        0.0009
     13 CL        -25.1890   -0.4054   28.4470 Cl      1  UNL1       -0.0822
@<TRIPOS>BOND
     1     3     7    1
     2     9    13    1
     3     1     2   ar
     4     2     5   ar
     5     5     6   ar
     6     6     4   ar
     7     4     3   ar
     8     3     1   ar
     9     7     8   ar
    10     8    10   ar
    11    10    12   ar
    12    12    11   ar
    13    11     9   ar
    14     9     7   ar
