@<TRIPOS>MOLECULE
No_154-gen_results/8p0m/2024-11-26-14-13-15/
 14 15 0 0 0
SMALL
GASTEIGER

@<TRIPOS>ATOM
      1 C         -28.0162   -0.8135   28.8779 C.ar    1  UNL1        0.0390
      2 C         -28.4690   -0.7850   29.8287 C.ar    1  UNL1        0.0032
      3 C         -28.1960    0.3478   28.0550 C.2     1  UNL1        0.1955
      4 C         -27.4421    0.5100   26.7946 C.ar    1  UNL1        0.0390
      5 C         -27.8427    1.3330   25.8056 C.ar    1  UNL1        0.0032
      6 C         -28.2558   -1.9271   30.8901 C.ar    1  UNL1        0.0001
      7 C         -27.4492   -2.9641   30.4317 C.ar    1  UNL1        0.0000
      8 C         -26.6412   -2.8044   29.3509 C.ar    1  UNL1        0.0001
      9 C         -26.7826   -1.6363   28.6124 C.ar    1  UNL1        0.0032
     10 O         -29.1432    1.1593   28.1524 O.2     1  UNL1       -0.2866
     11 C         -26.1514   -0.0903   26.5863 C.ar    1  UNL1        0.0032
     12 C         -25.4577    0.2421   25.3935 C.ar    1  UNL1        0.0001
     13 C         -27.2188    1.5476   24.5611 C.ar    1  UNL1        0.0001
     14 C         -25.9608    0.9773   24.4480 C.ar    1  UNL1        0.0000
@<TRIPOS>BOND
     1     1     3    1
     2     3     4    1
     3     3    10    2
     4     4     5   ar
     5     5    13   ar
     6    13    14   ar
     7    14    12   ar
     8    12    11   ar
     9    11     4   ar
    10     1     2   ar
    11     2     6   ar
    12     6     7   ar
    13     7     8   ar
    14     8     9   ar
    15     9     1   ar
