@<TRIPOS>MOLECULE
No_1540-gen_results/8p0m/2024-11-26-14-13-15/
 19 20 0 0 0
SMALL
GASTEIGER

@<TRIPOS>ATOM
      1 C         -28.0162   -0.8135   28.8779 C.3     1  UNL1        0.1418
      2 C         -27.0636   -0.1189   28.6079 C.ar    1  UNL1       -0.0005
      3 C         -25.7923   -0.4302   29.0761 C.ar    1  UNL1       -0.0023
      4 C         -24.5456    0.3494   28.8225 C.ar    1  UNL1        0.0063
      5 C         -24.6586    1.4196   27.8878 C.ar    1  UNL1        0.0798
      6 C         -25.9471    1.6811   27.3792 C.ar    1  UNL1        0.0063
      7 C         -27.0439    0.9739   27.6871 C.ar    1  UNL1       -0.0023
      8 N         -29.1797   -0.1202   29.1288 N.am    1  UNL1       -0.1955
      9 C         -30.2095   -0.7652   29.7428 C.2     1  UNL1        0.2829
     10 C         -23.4456    2.1545   27.6087 C.2     1  UNL1        0.3878
     11 O         -22.3001    1.8338   28.0582 O.co2   1  UNL1       -0.2406
     12 O         -23.4555    2.8337   26.4000 O.co2   1  UNL1       -0.2406
     13 C         -31.4986   -0.4764   29.3970 C.ar    1  UNL1        0.1394
     14 O         -30.0158   -1.6185   30.6670 O.2     1  UNL1       -0.2667
     15 C         -32.3476   -1.4874   29.3030 C.ar    1  UNL1        0.0445
     16 C         -33.6335   -1.3086   28.8570 C.ar    1  UNL1        0.1024
     17 N         -31.8686    0.7611   29.0512 N.ar    1  UNL1       -0.2193
     18 C         -33.1516    1.0281   28.6420 C.ar    1  UNL1        0.1990
     19 N         -34.0124    0.0196   28.5483 N.ar    1  UNL1       -0.2224
@<TRIPOS>BOND
     1     1     2    1
     2     1     8    1
     3     8     9   am
     4     5    10    1
     5    10    11   ar
     6    10    12   ar
     7     9    13    1
     8     9    14    2
     9    13    15   ar
    10    15    16   ar
    11    16    19   ar
    12    19    18   ar
    13    18    17   ar
    14    17    13   ar
    15     2     3   ar
    16     3     4   ar
    17     4     5   ar
    18     5     6   ar
    19     6     7   ar
    20     7     2   ar
