@<TRIPOS>MOLECULE
No_1545-gen_results/8p0m/2024-11-26-14-13-15/
 19 20 0 0 0
SMALL
GASTEIGER

@<TRIPOS>ATOM
      1 C         -28.0162   -0.8135   28.8779 C.ar    1  UNL1       -0.0036
      2 C         -28.4690   -0.7850   29.8287 C.ar    1  UNL1       -0.0003
      3 C         -27.0871    0.2903   28.6377 C.ar    1  UNL1       -0.0143
      4 C         -26.8317    1.2487   29.5869 C.ar    1  UNL1       -0.0036
      5 C         -28.3914    0.0801   31.0065 C.ar    1  UNL1       -0.0000
      6 C         -27.4940    1.1521   30.7841 C.ar    1  UNL1       -0.0003
      7 C         -26.3571    0.1832   27.3678 C.3     1  UNL1        0.0664
      8 C         -26.8207    0.7901   26.2070 C.2     1  UNL1       -0.0177
      9 C         -24.9171    0.7056   27.4987 C.ar    1  UNL1       -0.0143
     10 C         -24.0297    0.0949   28.3767 C.ar    1  UNL1       -0.0036
     11 C         -22.7300    0.5893   28.4683 C.ar    1  UNL1       -0.0003
     12 C         -22.2578    1.5310   27.5402 C.ar    1  UNL1       -0.0000
     13 C         -24.3129    1.7122   26.6802 C.ar    1  UNL1       -0.0036
     14 C         -23.0938    2.1504   26.7329 C.ar    1  UNL1       -0.0003
     15 C         -28.0289    0.8297   26.0328 C.2     1  UNL1       -0.0039
     16 C         -28.6380    1.2979   24.7889 C.2     1  UNL1       -0.0003
     17 C         -29.9861    1.3957   24.6798 C.2     1  UNL1       -0.0000
     18 C         -30.8609    1.0172   25.6825 C.2     1  UNL1       -0.0000
     19 C         -30.3623    0.6054   26.8980 C.2     1  UNL1       -0.0000
@<TRIPOS>BOND
     1     3     7    1
     2     7     8    1
     3     7     9    1
     4     8    15    2
     5    15    16    1
     6    16    17    2
     7    17    18    1
     8    18    19    2
     9     1     2   ar
    10     2     5   ar
    11     5     6   ar
    12     6     4   ar
    13     4     3   ar
    14     3     1   ar
    15     9    10   ar
    16    10    11   ar
    17    11    12   ar
    18    12    14   ar
    19    14    13   ar
    20    13     9   ar
