@<TRIPOS>MOLECULE
No_1546-gen_results/8p0m/2024-11-26-14-13-15/
 20 21 0 0 0
SMALL
GASTEIGER

@<TRIPOS>ATOM
      1 C         -28.0162   -0.8135   28.8779 C.ar    1  UNL1        0.0068
      2 C         -27.0636   -0.1189   28.6079 C.ar    1  UNL1        0.0065
      3 C         -27.0010    0.6913   27.4910 C.ar    1  UNL1        0.0798
      4 C         -25.8548    1.4825   27.0830 C.ar    1  UNL1        0.0065
      5 C         -24.6901    1.4526   27.8807 C.ar    1  UNL1        0.0041
      6 C         -24.7379    0.6010   29.0416 C.ar    1  UNL1        0.0714
      7 C         -25.8234   -0.1688   29.3887 C.ar    1  UNL1        0.0041
      8 C         -28.0352   -1.4960   30.2343 C.ar    1  UNL1        0.0798
      9 C         -26.8424   -1.7341   30.9037 C.ar    1  UNL1        0.0066
     10 C         -25.7456   -0.9655   30.5714 C.ar    1  UNL1        0.0002
     11 C         -28.0939    0.7867   26.5026 C.2     1  UNL1        0.3878
     12 O         -27.9969    0.9423   25.3355 O.co2   1  UNL1       -0.2406
     13 O         -29.2792    0.6005   26.9711 O.co2   1  UNL1       -0.2406
     14 C         -23.4410    0.6152   29.8687 C.3     1  UNL1        0.4186
     15 F         -23.1941    1.7524   30.3403 F       1  UNL1       -0.1659
     16 F         -22.3343    0.2098   29.2027 F       1  UNL1       -0.1659
     17 F         -23.5139   -0.1784   31.0003 F       1  UNL1       -0.1659
     18 C         -29.2982   -2.2362   30.5927 C.2     1  UNL1        0.3878
     19 O         -29.6126   -2.2270   31.8558 O.co2   1  UNL1       -0.2406
     20 O         -29.9107   -2.9216   29.7895 O.co2   1  UNL1       -0.2406
@<TRIPOS>BOND
     1     3    11    1
     2    11    12   ar
     3    11    13   ar
     4     6    14    1
     5    14    15    1
     6    14    16    1
     7    14    17    1
     8     8    18    1
     9    18    19   ar
    10    18    20   ar
    11     2     3   ar
    12     3     4   ar
    13     4     5   ar
    14     5     6   ar
    15     6     7   ar
    16     1     2   ar
    17     2     7   ar
    18     7    10   ar
    19    10     9   ar
    20     9     8   ar
    21     8     1   ar
