@<TRIPOS>MOLECULE
No_1547-gen_results/8p0m/2024-11-26-14-13-15/
 35 37 0 0 0
SMALL
GASTEIGER

@<TRIPOS>ATOM
      1 C         -28.0162   -0.8135   28.8779 C.ar    1  UNL1        0.0108
      2 C         -28.4690   -0.7850   29.8287 C.ar    1  UNL1        0.0619
      3 C         -26.5042   -0.7777   28.8766 C.ar    1  UNL1       -0.0245
      4 C         -25.8103   -0.8531   30.1028 C.ar    1  UNL1       -0.0252
      5 C         -27.9906   -0.8916   31.2257 C.ar    1  UNL1        0.0150
      6 C         -26.6042   -0.8676   31.2652 C.ar    1  UNL1       -0.0033
      7 C         -24.3894   -0.8049   30.1638 C.3     1  UNL1        0.0417
      8 C         -23.8172    0.4762   29.9118 C.3     1  UNL1        0.1299
      9 C         -24.1955    1.5984   30.1917 C.ar    1  UNL1       -0.0113
     10 C         -25.4059    1.7758   30.9280 C.ar    1  UNL1        0.0027
     11 C         -25.8155    3.1571   31.2756 C.ar    1  UNL1        0.0754
     12 C         -25.3805    4.1144   30.4701 C.ar    1  UNL1        0.0064
     13 C         -24.5279    3.9014   29.3849 C.ar    1  UNL1       -0.0001
     14 C         -23.9125    2.6846   29.2831 C.ar    1  UNL1       -0.0037
     15 C         -22.4718    0.3043   29.2079 C.2     1  UNL1        0.3687
     16 C         -25.7345   -0.6561   27.6353 C.3     1  UNL1        0.0307
     17 O         -21.6743   -0.6162   29.4590 O.co2   1  UNL1       -0.2453
     18 O         -22.1145    1.1053   28.2864 O.co2   1  UNL1       -0.2453
     19 C         -26.9314    3.3137   32.2638 C.2     1  UNL1        0.3415
     20 O         -27.1080    2.7423   33.1872 O.2     1  UNL1       -0.2449
     21 O         -27.8356    4.2265   31.8375 O.3     1  UNL1       -0.4404
     22 N         -29.9758   -0.8079   29.8792 N.am    1  UNL1       -0.1909
     23 C         -30.7857   -1.3924   30.5615 C.2     1  UNL1        0.2454
     24 O         -30.4482   -2.1133   31.4104 O.2     1  UNL1       -0.2738
     25 C         -32.2104   -1.1988   30.1940 C.3     1  UNL1        0.1908
     26 C         -32.4383   -0.7056   29.1877 C.3     1  UNL1        0.1339
     27 C         -30.5295   -0.0123   28.7669 C.2     1  UNL1        0.3328
     28 N         -31.7206    0.0478   28.4999 N.am    1  UNL1       -0.1871
     29 O         -29.7493    0.8611   28.0632 O.2     1  UNL1       -0.2500
     30 C         -33.1596   -2.0947   31.0465 C.3     1  UNL1        0.4360
     31 O         -34.2550   -2.1872   30.6888 O.2     1  UNL1       -0.2664
     32 O         -32.6339   -2.9348   31.9208 O.2     1  UNL1       -0.2664
     33 C         -29.1286    4.1059   32.2794 C.3     1  UNL1        0.2352
     34 C         -29.6253    2.9892   32.2858 C.2     1  UNL1        0.0208
     35 C         -31.0250    2.8469   32.0698 C.2     1  UNL1       -0.0011
@<TRIPOS>BOND
     1     4     7    1
     2     7     8    1
     3     8    15    1
     4     3    16    1
     5    15    17   ar
     6    15    18   ar
     7    11    19    1
     8    19    20    2
     9    19    21    1
    10     2    22    1
    11    22    23   am
    12    23    24    2
    13    23    25    1
    14    22    27   am
    15    27    28   am
    16    27    29    2
    17    25    30    1
    18    30    31    1
    19    30    32    1
    20    21    33    1
    21    33    34    1
    22    34    35    2
    23     8     9    1
    24    25    26    1
    25    26    28    1
    26     9    10   ar
    27    10    11   ar
    28    11    12   ar
    29    12    13   ar
    30    13    14   ar
    31    14     9   ar
    32     1     2   ar
    33     2     5   ar
    34     5     6   ar
    35     6     4   ar
    36     4     3   ar
    37     3     1   ar
