@<TRIPOS>MOLECULE
No_1548-gen_results/8p0m/2024-11-26-14-13-15/
 18 20 0 0 0
SMALL
GASTEIGER

@<TRIPOS>ATOM
      1 C         -28.0162   -0.8135   28.8779 C.ar    1  UNL1        0.0032
      2 C         -28.4690   -0.7850   29.8287 C.ar    1  UNL1        0.0001
      3 C         -28.1816    0.4277   28.1134 C.ar    1  UNL1        0.0390
      4 C         -28.9841    1.4155   28.5154 C.ar    1  UNL1        0.0032
      5 C         -29.3802    0.1384   30.4612 C.ar    1  UNL1        0.0000
      6 C         -29.5415    1.2736   29.7242 C.ar    1  UNL1        0.0001
      7 C         -27.4586    0.4934   26.7701 C.2     1  UNL1        0.1955
      8 C         -26.4813    1.5210   26.6301 C.ar    1  UNL1        0.0390
      9 C         -25.2027    1.4103   27.3432 C.ar    1  UNL1        0.0061
     10 C         -24.2794    2.4114   27.2150 C.ar    1  UNL1        0.0193
     11 C         -24.5838    3.5617   26.4629 C.ar    1  UNL1        0.0015
     12 C         -25.8203    3.7207   25.8513 C.ar    1  UNL1        0.0002
     13 C         -26.7635    2.6995   25.9831 C.ar    1  UNL1        0.0032
     14 C         -22.9211    2.3259   27.8273 C.ar    1  UNL1        0.0988
     15 N         -22.8760    1.7343   29.0194 N.ar    1  UNL1       -0.2423
     16 C         -23.5506    0.5933   29.3221 C.ar    1  UNL1        0.0989
     17 C         -24.9798    0.6444   28.6536 C.ar    1  UNL1        0.0208
     18 O         -27.6812   -0.1981   25.8166 O.2     1  UNL1       -0.2866
@<TRIPOS>BOND
     1     3     7    1
     2     7     8    1
     3     7    18    2
     4    10    14   ar
     5    14    15   ar
     6    15    16   ar
     7    16    17   ar
     8    17     9   ar
     9     8     9   ar
    10     9    10   ar
    11    10    11   ar
    12    11    12   ar
    13    12    13   ar
    14    13     8   ar
    15     1     2   ar
    16     2     5   ar
    17     5     6   ar
    18     6     4   ar
    19     4     3   ar
    20     3     1   ar
