@<TRIPOS>MOLECULE
No_1549-gen_results/8p0m/2024-11-26-14-13-15/
 17 18 0 0 0
SMALL
GASTEIGER

@<TRIPOS>ATOM
      1 C         -28.0162   -0.8135   28.8779 C.2     1  UNL1        0.0988
      2 C         -27.0636   -0.1190   28.6079 C.ar    1  UNL1        0.0191
      3 C         -27.0010    0.6913   27.4910 C.ar    1  UNL1        0.0018
      4 C         -25.8548    1.4825   27.0830 C.ar    1  UNL1        0.0080
      5 C         -24.9008    1.3893   27.5922 C.ar    1  UNL1        0.0975
      6 C         -24.6783    0.5764   28.8299 C.ar    1  UNL1        0.0080
      7 C         -25.7704   -0.2051   29.2800 C.ar    1  UNL1        0.0018
      8 N         -27.8865   -1.5554   30.0331 N.2     1  UNL1       -0.2438
      9 C         -28.9917   -2.3857   30.4628 C.ar    1  UNL1        0.0814
     10 C         -23.5789    2.1865   27.3195 C.2     1  UNL1        0.4766
     11 N         -22.6163    2.2753   28.1558 N.pl3   1  UNL1        0.2047
     12 N         -23.5075    2.8092   26.1030 N.pl3   1  UNL1        0.2047
     13 C         -28.6590   -3.5083   31.3043 C.ar    1  UNL1        0.0191
     14 C         -29.5858   -3.8136   32.1748 C.ar    1  UNL1        0.0015
     15 C         -30.9114   -3.3217   32.1543 C.ar    1  UNL1        0.0001
     16 C         -30.2738   -1.8694   30.5973 C.ar    1  UNL1        0.0191
     17 C         -31.1536   -2.2834   31.4258 C.ar    1  UNL1        0.0015
@<TRIPOS>BOND
     1     1     2    1
     2     1     8    2
     3     8     9    1
     4     5    10    1
     5    10    11    2
     6    10    12    1
     7     2     3   ar
     8     3     4   ar
     9     4     5   ar
    10     5     6   ar
    11     6     7   ar
    12     7     2   ar
    13     9    13   ar
    14    13    14   ar
    15    14    15   ar
    16    15    17   ar
    17    17    16   ar
    18    16     9   ar
