@<TRIPOS>MOLECULE
No_155-gen_results/8p0m/2024-11-26-14-13-15/
 22 23 0 0 0
SMALL
GASTEIGER

@<TRIPOS>ATOM
      1 C         -28.0162   -0.8135   28.8779 C.ar    1  UNL1        0.0762
      2 C         -27.0636   -0.1189   28.6079 C.ar    1  UNL1        0.0103
      3 C         -26.9716    0.7139   27.5060 C.ar    1  UNL1        0.0718
      4 C         -28.1053    0.7744   26.6421 C.ar    1  UNL1        0.0104
      5 C         -29.2008    0.1044   27.0527 C.ar    1  UNL1        0.0799
      6 C         -28.0219   -1.5899   30.0879 C.2     1  UNL1        0.3457
      7 C         -29.1640   -0.6394   28.1484 C.ar    1  UNL1        0.0130
      8 O         -28.8247   -1.8905   30.7103 O.2     1  UNL1       -0.2445
      9 O         -26.8426   -2.4486   30.1486 O.3     1  UNL1       -0.4210
     10 C         -30.3894    0.1979   26.1788 C.2     1  UNL1        0.3877
     11 O         -31.0492    0.9944   26.2014 O.co2   1  UNL1       -0.2406
     12 O         -30.6641   -0.9078   25.4657 O.co2   1  UNL1       -0.2406
     13 C         -25.7076    1.4531   27.1238 C.3     1  UNL1        0.4186
     14 F         -24.7213    0.8621   27.4408 F       1  UNL1       -0.1659
     15 F         -25.6865    1.6933   25.7699 F       1  UNL1       -0.1659
     16 F         -25.7941    2.7013   27.6527 F       1  UNL1       -0.1659
     17 C         -25.6290   -1.8229   30.1850 C.ar    1  UNL1        0.1488
     18 C         -25.2191   -0.9786   31.1475 C.ar    1  UNL1        0.0376
     19 C         -23.9331   -0.4146   31.1131 C.ar    1  UNL1        0.0031
     20 C         -23.0170   -0.7456   30.0614 C.ar    1  UNL1        0.0002
     21 C         -24.6387   -2.4391   29.2839 C.ar    1  UNL1        0.0376
     22 C         -23.3397   -1.7880   29.2421 C.ar    1  UNL1        0.0031
@<TRIPOS>BOND
     1     1     6    1
     2     6     8    2
     3     6     9    1
     4     5    10    1
     5    10    11   ar
     6    10    12   ar
     7     3    13    1
     8    13    14    1
     9    13    15    1
    10    13    16    1
    11     9    17    1
    12    17    18   ar
    13    18    19   ar
    14    19    20   ar
    15    20    22   ar
    16    22    21   ar
    17    21    17   ar
    18     1     2   ar
    19     2     3   ar
    20     3     4   ar
    21     4     5   ar
    22     5     7   ar
    23     7     1   ar
