@<TRIPOS>MOLECULE
No_1552-gen_results/8p0m/2024-11-26-14-13-15/
 15 16 0 0 0
SMALL
GASTEIGER

@<TRIPOS>ATOM
      1 C         -28.0162   -0.8135   28.8779 C.ar    1  UNL1       -0.0000
      2 C         -28.4690   -0.7850   29.8287 C.ar    1  UNL1       -0.0000
      3 C         -28.1960    0.3478   28.0550 C.ar    1  UNL1       -0.0003
      4 C         -29.0191    1.3501   28.3782 C.ar    1  UNL1       -0.0000
      5 C         -29.4107    0.1803   30.3782 C.ar    1  UNL1       -0.0000
      6 C         -29.6059    1.2495   29.6193 C.ar    1  UNL1       -0.0000
      7 C         -27.5426    0.5225   26.6829 C.2     1  UNL1       -0.0043
      8 C         -28.1445    0.4578   25.5334 C.2     1  UNL1       -0.0258
      9 C         -27.3996    0.4571   24.3391 C.3     1  UNL1        0.0307
     10 C         -26.0998    0.4967   26.6952 C.ar    1  UNL1       -0.0003
     11 C         -25.2864    0.5111   27.9633 C.ar    1  UNL1       -0.0000
     12 C         -23.9176    0.6212   27.9027 C.ar    1  UNL1       -0.0000
     13 C         -23.3657    1.2299   26.7206 C.ar    1  UNL1       -0.0000
     14 C         -24.1563    1.4420   25.6106 C.ar    1  UNL1       -0.0000
     15 C         -25.4976    1.1534   25.5976 C.ar    1  UNL1       -0.0000
@<TRIPOS>BOND
     1     3     7    1
     2     7     8    2
     3     8     9    1
     4     7    10    1
     5     1     2   ar
     6     2     5   ar
     7     5     6   ar
     8     6     4   ar
     9     4     3   ar
    10     3     1   ar
    11    10    11   ar
    12    11    12   ar
    13    12    13   ar
    14    13    14   ar
    15    14    15   ar
    16    15    10   ar
