@<TRIPOS>MOLECULE
No_1553-gen_results/8p0m/2024-11-26-14-13-15/
 13 13 0 0 0
SMALL
GASTEIGER

@<TRIPOS>ATOM
      1 C         -28.0162   -0.8135   28.8779 C.ar    1  UNL1        0.0104
      2 C         -27.0636   -0.1190   28.6079 C.ar    1  UNL1        0.0716
      3 C         -26.8756    1.1325   28.9134 C.ar    1  UNL1        0.0039
      4 C         -27.9014    1.8066   29.6436 C.ar    1  UNL1        0.0002
      5 C         -29.0458   -0.2316   29.7181 C.ar    1  UNL1        0.0797
      6 C         -28.9402    1.0517   30.0597 C.ar    1  UNL1        0.0066
      7 C         -25.8732   -0.7125   27.8045 C.3     1  UNL1        0.4186
      8 F         -25.5914   -1.8060   28.0687 F       1  UNL1       -0.1659
      9 F         -26.1165   -0.6287   26.4124 F       1  UNL1       -0.1659
     10 F         -24.6473    0.0701   27.8603 F       1  UNL1       -0.1659
     11 C         -30.1651   -1.1315   30.1624 C.2     1  UNL1        0.3877
     12 O         -30.0689   -2.1345   30.7574 O.co2   1  UNL1       -0.2406
     13 O         -31.2972   -0.5197   30.1821 O.co2   1  UNL1       -0.2406
@<TRIPOS>BOND
     1     2     7    1
     2     7     8    1
     3     7     9    1
     4     7    10    1
     5     5    11    1
     6    11    12   ar
     7    11    13   ar
     8     1     2   ar
     9     2     3   ar
    10     3     4   ar
    11     4     6   ar
    12     6     5   ar
    13     5     1   ar
