@<TRIPOS>MOLECULE
No_1554-gen_results/8p0m/2024-11-26-14-13-15/
 35 38 0 0 0
SMALL
GASTEIGER

@<TRIPOS>ATOM
      1 C         -28.0162   -0.8135   28.8779 C.2     1  UNL1        0.2511
      2 C         -27.0636   -0.1190   28.6079 C.ar    1  UNL1        0.0537
      3 C         -26.9287    1.1713   29.0083 C.ar    1  UNL1        0.0073
      4 C         -25.7702    2.0341   28.6884 C.ar    1  UNL1        0.0321
      5 C         -24.7141    1.4431   27.9188 C.ar    1  UNL1        0.0002
      6 C         -24.8590    0.0783   27.5836 C.ar    1  UNL1       -0.0000
      7 C         -25.9647   -0.6606   27.9164 C.ar    1  UNL1        0.0045
      8 N         -27.9821   -1.6367   30.0748 N.am    1  UNL1       -0.2461
      9 O         -29.2163   -0.4132   28.6627 O.2     1  UNL1       -0.2698
     10 C         -29.0156   -2.4825   30.5856 C.3     1  UNL1        0.2473
     11 C         -23.5339    2.1607   27.5674 C.ar    1  UNL1       -0.0026
     12 C         -22.2486    1.6915   27.5195 C.3     1  UNL1        0.0327
     13 C         -23.5574    3.4337   28.0413 C.ar    1  UNL1        0.0960
     14 C         -26.6979   -2.4535   30.1481 C.3     1  UNL1        0.1180
     15 C         -29.5953   -1.9837   31.6958 C.2     1  UNL1        0.0277
     16 C         -30.6636   -1.7370   31.9341 C.2     1  UNL1       -0.0002
     17 C         -31.6477   -1.8981   30.8436 C.2     1  UNL1        0.0047
     18 C         -31.3855   -2.8665   29.9560 C.2     1  UNL1        0.0921
     19 F         -28.4748   -3.7745   30.6571 F       1  UNL1       -0.2116
     20 C         -32.2562   -3.2311   28.8953 C.2     1  UNL1        0.3864
     21 C         -30.0062   -3.1938   29.7731 C.3     1  UNL1        0.2320
     22 O         -32.4564   -4.3415   28.6923 O.co2   1  UNL1       -0.2408
     23 O         -32.5531   -2.3382   27.8361 O.co2   1  UNL1       -0.2408
     24 O         -29.7475   -4.1328   28.8937 O.3     1  UNL1       -0.2129
     25 N         -24.7076    4.0041   28.1957 N.ar    1  UNL1       -0.2289
     26 C         -25.7802    3.3644   28.6479 C.ar    1  UNL1        0.1391
     27 N         -26.8335    4.1423   29.0600 N.pl3   1  UNL1       -0.2499
     28 C         -27.8931    4.3689   28.2248 C.2     1  UNL1        0.0708
     29 C         -26.9466    4.5489   30.4390 C.ar    1  UNL1        0.0569
     30 C         -28.0103    4.5790   30.9812 C.ar    1  UNL1        0.0152
     31 C         -28.1203    4.7868   32.3787 C.ar    1  UNL1        0.0013
     32 C         -26.9633    5.1017   33.1332 C.ar    1  UNL1        0.0001
     33 C         -25.6917    5.0776   32.4728 C.ar    1  UNL1        0.0013
     34 C         -25.6543    4.7828   31.1862 C.ar    1  UNL1        0.0152
     35 C         -27.7980    4.7900   27.0799 C.2     1  UNL1        0.0178
@<TRIPOS>BOND
     1     1     2    1
     2     1     8   am
     3     1     9    2
     4     8    10    1
     5    11    12    1
     6     8    14    1
     7    10    15    1
     8    15    16    2
     9    16    17    1
    10    17    18    2
    11    10    19    1
    12    18    20    1
    13    10    21    1
    14    18    21    1
    15    20    22   ar
    16    20    23   ar
    17    21    24    1
    18    26    27    1
    19    27    28    1
    20    27    29    1
    21    28    35    2
    22    29    30   ar
    23    30    31   ar
    24    31    32   ar
    25    32    33   ar
    26    33    34   ar
    27    34    29   ar
    28     2     3   ar
    29     3     4   ar
    30     5     6   ar
    31     6     7   ar
    32     7     2   ar
    33     4     5   ar
    34     5    11   ar
    35    11    13   ar
    36    13    25   ar
    37    25    26   ar
    38    26     4   ar
