@<TRIPOS>MOLECULE
No_1556-gen_results/8p0m/2024-11-26-14-13-15/
 16 18 0 0 0
SMALL
GASTEIGER

@<TRIPOS>ATOM
      1 C         -28.0162   -0.8135   28.8779 C.ar    1  UNL1        0.0820
      2 C         -27.0636   -0.1189   28.6079 C.ar    1  UNL1        0.0727
      3 C         -25.7923   -0.4302   29.0761 C.ar    1  UNL1        0.0127
      4 C         -25.5756   -1.5654   29.9363 C.ar    1  UNL1        0.0011
      5 C         -26.7354   -2.3004   30.2173 C.ar    1  UNL1        0.0059
      6 C         -27.9184   -1.9537   29.7629 C.ar    1  UNL1        0.0693
      7 CL        -27.1463    1.2916   27.6407 Cl      1  UNL1       -0.0809
      8 C         -29.0683   -2.7883   30.1813 C.2     1  UNL1        0.2514
      9 O         -29.0323   -4.0075   30.2805 O.2     1  UNL1       -0.2698
     10 N         -30.2182   -2.1388   30.4895 N.am    1  UNL1       -0.2602
     11 C         -31.3449   -2.6153   30.8334 C.3     1  UNL1        0.0953
     12 C         -32.3686   -1.8933   30.7459 C.3     1  UNL1        0.0217
     13 C         -32.1902   -0.5087   30.4540 C.3     1  UNL1        0.0053
     14 C         -31.0367    0.0614   30.0806 C.3     1  UNL1        0.0424
     15 C         -30.0322   -0.7420   30.0759 C.3     1  UNL1        0.1693
     16 N         -28.9591   -0.2921   29.4122 N.pl3   1  UNL1       -0.2182
@<TRIPOS>BOND
     1     2     7    1
     2     6     8    1
     3     8     9    2
     4     8    10   am
     5    10    11    1
     6    12    13    1
     7    10    15    1
     8    14    15    1
     9     1    16    1
    10    15    16    1
    11    11    12    1
    12    13    14    1
    13     1     2   ar
    14     2     3   ar
    15     3     4   ar
    16     4     5   ar
    17     5     6   ar
    18     6     1   ar
