@<TRIPOS>MOLECULE
No_1557-gen_results/8p0m/2024-11-26-14-13-15/
 21 22 0 0 0
SMALL
GASTEIGER

@<TRIPOS>ATOM
      1 C         -28.0162   -0.8135   28.8779 C.3     1  UNL1        0.1224
      2 C         -27.0636   -0.1189   28.6079 C.3     1  UNL1        0.0793
      3 C         -25.7923   -0.4302   29.0761 C.3     1  UNL1        0.0097
      4 C         -24.5456    0.3494   28.8225 C.3     1  UNL1        0.0122
      5 C         -24.6586    1.4196   27.8878 C.3     1  UNL1        0.1107
      6 C         -25.9471    1.6811   27.3792 C.3     1  UNL1        0.0758
      7 C         -27.0439    0.9739   27.6871 C.2     1  UNL1        0.1525
      8 N         -28.6643   -0.5274   30.1017 N.am    1  UNL1       -0.2047
      9 C         -29.6646   -0.3963   30.4406 C.2     1  UNL1        0.2458
     10 O         -30.5800   -0.4891   29.5997 O.2     1  UNL1       -0.2730
     11 C         -30.0588   -0.4612   31.9237 C.3     1  UNL1        0.1131
     12 C         -23.4553    2.1694   27.5972 C.2     1  UNL1        0.3647
     13 O         -22.3093    1.8728   28.0421 O.co2   1  UNL1       -0.2457
     14 O         -23.4792    2.8372   26.3846 O.co2   1  UNL1       -0.2457
     15 C         -29.8719    0.7192   32.6297 C.ar    1  UNL1       -0.0130
     16 C         -29.5577    0.5985   33.7966 C.ar    1  UNL1       -0.0038
     17 C         -29.0720    1.7932   34.6295 C.ar    1  UNL1       -0.0003
     18 C         -29.0624    3.0458   33.9626 C.ar    1  UNL1       -0.0000
     19 C         -29.3998    3.0557   32.6059 C.ar    1  UNL1       -0.0003
     20 C         -29.7233    1.8754   31.9217 C.ar    1  UNL1       -0.0038
     21 O         -28.2357    1.3467   27.1959 O.2     1  UNL1       -0.2960
@<TRIPOS>BOND
     1     1     2    1
     2     3     4    1
     3     5     6    1
     4     2     7    1
     5     6     7    1
     6     1     8    1
     7     8     9   am
     8     9    10    2
     9     9    11    1
    10     5    12    1
    11    12    13   ar
    12    12    14   ar
    13    11    15    1
    14     7    21    2
    15     2     3    1
    16     4     5    1
    17    15    16   ar
    18    16    17   ar
    19    17    18   ar
    20    18    19   ar
    21    19    20   ar
    22    20    15   ar
