@<TRIPOS>MOLECULE
No_1559-gen_results/8p0m/2024-11-26-14-13-15/
 13 14 0 0 0
SMALL
GASTEIGER

@<TRIPOS>ATOM
      1 C         -28.0162   -0.8135   28.8779 C.ar    1  UNL1        0.0375
      2 C         -28.4690   -0.7850   29.8287 C.ar    1  UNL1        0.0031
      3 C         -28.1960    0.3478   28.0550 C.ar    1  UNL1        0.1453
      4 C         -29.0191    1.3501   28.3782 C.ar    1  UNL1        0.0375
      5 C         -29.2330    0.0588   30.3450 C.ar    1  UNL1        0.0002
      6 C         -29.5334    1.2062   29.6597 C.ar    1  UNL1        0.0031
      7 O         -27.5343    0.3634   26.7886 O.3     1  UNL1       -0.4535
      8 C         -26.1667    0.4178   26.7066 C.ar    1  UNL1        0.1453
      9 C         -25.6059    1.1999   25.7323 C.ar    1  UNL1        0.0375
     10 C         -25.2963   -0.3839   27.5422 C.ar    1  UNL1        0.0375
     11 C         -24.1591    1.2149   25.6121 C.ar    1  UNL1        0.0031
     12 C         -23.9199   -0.1815   27.5496 C.ar    1  UNL1        0.0031
     13 C         -23.3647    0.6589   26.5722 C.ar    1  UNL1        0.0002
@<TRIPOS>BOND
     1     3     7    1
     2     7     8    1
     3     8     9   ar
     4     9    11   ar
     5    11    13   ar
     6    13    12   ar
     7    12    10   ar
     8    10     8   ar
     9     1     2   ar
    10     2     5   ar
    11     5     6   ar
    12     6     4   ar
    13     4     3   ar
    14     3     1   ar
