@<TRIPOS>MOLECULE
No_156-gen_results/8p0m/2024-11-26-14-13-15/
 23 25 0 0 0
SMALL
GASTEIGER

@<TRIPOS>ATOM
      1 C         -28.0162   -0.8135   28.8779 C.ar    1  UNL1        0.0812
      2 C         -27.0636   -0.1190   28.6079 C.ar    1  UNL1        0.0067
      3 C         -27.0010    0.6913   27.4910 C.ar    1  UNL1        0.0017
      4 C         -28.1373    0.7363   26.6350 C.ar    1  UNL1        0.0191
      5 C         -29.2360    0.0765   27.0690 C.ar    1  UNL1        0.0815
      6 C         -29.2177   -0.6429   28.1747 C.ar    1  UNL1        0.0243
      7 N         -30.2580    0.2555   26.0835 N.ar    1  UNL1       -0.2436
      8 C         -31.3287   -0.4493   26.2990 C.ar    1  UNL1        0.1054
      9 C         -31.5203   -1.0998   27.5316 C.ar    1  UNL1        0.0989
     10 C         -30.4720   -1.2918   28.4052 C.ar    1  UNL1        0.0099
     11 C         -27.7754   -1.6263   30.1687 C.2     1  UNL1        0.3878
     12 O         -26.7803   -2.0002   30.5802 O.co2   1  UNL1       -0.2406
     13 O         -28.9646   -2.0005   30.7319 O.co2   1  UNL1       -0.2406
     14 C         -32.8173   -1.8396   27.7686 C.2     1  UNL1        0.3893
     15 O         -33.4629   -1.7515   28.7572 O.co2   1  UNL1       -0.2405
     16 O         -33.1281   -2.6921   26.8959 O.co2   1  UNL1       -0.2405
     17 C         -25.7101    1.3873   27.0884 C.ar    1  UNL1        0.0009
     18 C         -25.6104    2.5052   26.5354 C.ar    1  UNL1        0.0001
     19 C         -24.3149    3.1374   26.2230 C.ar    1  UNL1        0.0009
     20 C         -23.1485    2.4483   26.5702 C.ar    1  UNL1        0.0114
     21 C         -23.2621    1.2329   27.1870 C.ar    1  UNL1        0.0577
     22 C         -24.4795    0.6360   27.4844 C.ar    1  UNL1        0.0114
     23 CL        -21.7334    0.6472   27.7222 Cl      1  UNL1       -0.0822
@<TRIPOS>BOND
     1     1    11    1
     2    11    12   ar
     3    11    13   ar
     4     9    14    1
     5    14    15   ar
     6    14    16   ar
     7     3    17    1
     8    21    23    1
     9    17    18   ar
    10    18    19   ar
    11    19    20   ar
    12    20    21   ar
    13    21    22   ar
    14    22    17   ar
    15     1     2   ar
    16     2     3   ar
    17     3     4   ar
    18     4     5   ar
    19     6     1   ar
    20     5     6   ar
    21     6    10   ar
    22    10     9   ar
    23     9     8   ar
    24     8     7   ar
    25     7     5   ar
