@<TRIPOS>MOLECULE
No_1560-gen_results/8p0m/2024-11-26-14-13-15/
 13 14 0 0 0
SMALL
GASTEIGER

@<TRIPOS>ATOM
      1 C         -28.0162   -0.8135   28.8779 C.ar    1  UNL1       -0.0039
      2 C         -28.4690   -0.7850   29.8287 C.ar    1  UNL1       -0.0003
      3 C         -26.5042   -0.7777   28.8766 C.ar    1  UNL1       -0.0178
      4 C         -25.6540   -0.6597   27.7191 C.3     1  UNL1        0.0526
      5 C         -27.9180   -0.9374   31.1824 C.ar    1  UNL1       -0.0000
      6 C         -26.5423   -0.9399   31.2606 C.ar    1  UNL1       -0.0003
      7 C         -25.7832   -0.8935   30.1201 C.ar    1  UNL1       -0.0039
      8 C         -25.9259    0.2819   26.7445 C.ar    1  UNL1       -0.0178
      9 C         -25.0234    0.4476   25.6774 C.ar    1  UNL1       -0.0039
     10 C         -27.2898    0.4546   26.3914 C.ar    1  UNL1       -0.0039
     11 C         -27.6038    1.1382   25.1910 C.ar    1  UNL1       -0.0003
     12 C         -26.6291    1.4353   24.2900 C.ar    1  UNL1       -0.0000
     13 C         -25.3616    1.0837   24.4958 C.ar    1  UNL1       -0.0003
@<TRIPOS>BOND
     1     3     4    1
     2     4     8    1
     3     1     2   ar
     4     2     5   ar
     5     5     6   ar
     6     6     7   ar
     7     7     3   ar
     8     3     1   ar
     9     8     9   ar
    10     9    13   ar
    11    13    12   ar
    12    12    11   ar
    13    11    10   ar
    14    10     8   ar
