@<TRIPOS>MOLECULE
No_1561-gen_results/8p0m/2024-11-26-14-13-15/
 11 11 0 0 0
SMALL
GASTEIGER

@<TRIPOS>ATOM
      1 C         -28.0162   -0.8135   28.8779 C.2     1  UNL1        0.0161
      2 C         -27.0636   -0.1190   28.6079 C.2     1  UNL1        0.0985
      3 N         -25.8176   -0.3427   29.0488 N.2     1  UNL1       -0.2438
      4 C         -24.6506    0.4444   28.7649 C.ar    1  UNL1        0.0814
      5 C         -23.3389    0.1171   29.2584 C.ar    1  UNL1        0.0191
      6 C         -22.2334    0.8466   28.9290 C.ar    1  UNL1        0.0015
      7 C         -22.3371    1.8263   27.9142 C.ar    1  UNL1        0.0001
      8 C         -24.6644    1.4788   27.8137 C.ar    1  UNL1        0.0191
      9 C         -23.5572    2.1665   27.4300 C.ar    1  UNL1        0.0015
     10 C         -27.7807   -1.8254   29.9503 C.2     1  UNL1       -0.0242
     11 C         -26.5573   -2.2062   30.3626 C.3     1  UNL1        0.0307
@<TRIPOS>BOND
     1     1     2    1
     2     2     3    2
     3     3     4    1
     4     1    10    2
     5    10    11    1
     6     4     5   ar
     7     5     6   ar
     8     6     7   ar
     9     7     9   ar
    10     9     8   ar
    11     8     4   ar
