@<TRIPOS>MOLECULE
No_1565-gen_results/8p0m/2024-11-26-14-13-15/
 17 18 0 0 0
SMALL
GASTEIGER

@<TRIPOS>ATOM
      1 C         -28.0162   -0.8135   28.8779 C.ar    1  UNL1        0.0153
      2 C         -27.0636   -0.1189   28.6079 C.ar    1  UNL1        0.0013
      3 C         -26.8756    1.1325   28.9134 C.ar    1  UNL1        0.0007
      4 C         -25.6883    1.9515   28.5672 C.ar    1  UNL1        0.0103
      5 C         -24.6394    1.2834   27.8753 C.ar    1  UNL1        0.0684
      6 C         -24.8181   -0.0802   27.6166 C.ar    1  UNL1        0.0103
      7 C         -25.9311   -0.7717   27.9696 C.ar    1  UNL1        0.0007
      8 C         -28.0898   -1.4945   30.2341 C.ar    1  UNL1        0.0013
      9 C         -29.2073   -2.2991   30.6512 C.ar    1  UNL1        0.0001
     10 C         -30.3614   -2.0537   30.0100 C.ar    1  UNL1        0.0013
     11 C         -30.4489   -1.1712   28.9719 C.ar    1  UNL1        0.0165
     12 C         -29.3379   -0.5404   28.4879 C.ar    1  UNL1        0.0705
     13 C         -23.4153    1.9561   27.5135 C.1     1  UNL1        0.1004
     14 N         -22.3793    2.2899   27.7068 N.1     1  UNL1       -0.1908
     15 N         -29.4402    0.2698   27.3767 N.pl3   1  UNL1       -0.2112
     16 C         -30.3400    0.9776   26.8479 C.2     1  UNL1        0.0857
     17 C         -30.1499    1.6332   25.6697 C.2     1  UNL1        0.0192
@<TRIPOS>BOND
     1     5    13    1
     2    13    14    3
     3    12    15    1
     4    15    16    1
     5    16    17    2
     6     1     2    1
     7     2     3   ar
     8     3     4   ar
     9     4     5   ar
    10     5     6   ar
    11     6     7   ar
    12     7     2   ar
    13     1     8   ar
    14     8     9   ar
    15     9    10   ar
    16    10    11   ar
    17    11    12   ar
    18    12     1   ar
