@<TRIPOS>MOLECULE
No_1567-gen_results/8p0m/2024-11-26-14-13-15/
 11 11 0 0 0
SMALL
GASTEIGER

@<TRIPOS>ATOM
      1 CL        -28.1493   -0.8198   28.9079 Cl      1  UNL1       -0.0822
      2 C         -26.9116   -0.0797   28.9452 C.ar    1  UNL1        0.0577
      3 C         -25.9665   -0.2123   29.6235 C.ar    1  UNL1        0.0113
      4 C         -24.7040    0.5534   29.6218 C.ar    1  UNL1        0.0047
      5 C         -24.6011    1.5437   28.6212 C.ar    1  UNL1        0.0715
      6 C         -25.6671    1.7162   27.8026 C.ar    1  UNL1        0.0047
      7 C         -26.7607    0.9618   27.8836 C.ar    1  UNL1        0.0113
      8 C         -23.3645    2.3123   28.5646 C.3     1  UNL1        0.4186
      9 F         -23.3849    3.1183   27.6443 F       1  UNL1       -0.1659
     10 F         -23.1005    2.9783   29.6650 F       1  UNL1       -0.1659
     11 F         -22.2481    1.5263   28.4761 F       1  UNL1       -0.1659
@<TRIPOS>BOND
     1     1     2    1
     2     5     8    1
     3     8     9    1
     4     8    10    1
     5     8    11    1
     6     2     3   ar
     7     3     4   ar
     8     4     5   ar
     9     5     6   ar
    10     6     7   ar
    11     7     2   ar
