@<TRIPOS>MOLECULE
No_1570-gen_results/8p0m/2024-11-26-14-13-15/
 15 16 0 0 0
SMALL
GASTEIGER

@<TRIPOS>ATOM
      1 C         -28.0162   -0.8135   28.8779 C.ar    1  UNL1        0.0010
      2 C         -27.0636   -0.1189   28.6079 C.ar    1  UNL1        0.0023
      3 C         -26.9716    0.7139   27.5060 C.ar    1  UNL1        0.0305
      4 C         -28.1053    0.7744   26.6421 C.ar    1  UNL1        0.1506
      5 C         -29.2008    0.1044   27.0527 C.ar    1  UNL1        0.0850
      6 C         -29.2096   -0.6029   28.1853 C.ar    1  UNL1        0.0137
      7 CL        -30.5651    0.2430   26.0493 Cl      1  UNL1       -0.0799
      8 C         -25.7033   -0.2337   29.4132 C.ar    1  UNL1        0.0009
      9 C         -24.5301   -0.2334   28.8121 C.ar    1  UNL1        0.0114
     10 C         -23.3124   -0.3786   29.5408 C.ar    1  UNL1        0.0577
     11 C         -23.3606   -0.7552   30.8234 C.ar    1  UNL1        0.0114
     12 C         -24.5767   -0.8075   31.5281 C.ar    1  UNL1        0.0009
     13 C         -25.7585   -0.5988   30.7922 C.ar    1  UNL1        0.0001
     14 CL        -21.8211   -0.2329   28.7540 Cl      1  UNL1       -0.0822
     15 F         -28.0308    1.6027   25.6061 F       1  UNL1       -0.2033
@<TRIPOS>BOND
     1     5     7    1
     2     2     8    1
     3    10    14    1
     4     4    15    1
     5     1     2   ar
     6     2     3   ar
     7     3     4   ar
     8     4     5   ar
     9     5     6   ar
    10     6     1   ar
    11     8     9   ar
    12     9    10   ar
    13    10    11   ar
    14    11    12   ar
    15    12    13   ar
    16    13     8   ar
