@<TRIPOS>MOLECULE
No_1573-gen_results/8p0m/2024-11-26-14-13-15/
 26 29 0 0 0
SMALL
GASTEIGER

@<TRIPOS>ATOM
      1 C         -28.0162   -0.8135   28.8779 C.ar    1  UNL1        0.0369
      2 C         -27.0636   -0.1189   28.6079 C.ar    1  UNL1        0.0031
      3 C         -25.7647   -0.3897   29.0360 C.ar    1  UNL1        0.0002
      4 C         -25.5296   -1.5302   29.9014 C.ar    1  UNL1        0.0031
      5 C         -26.6888   -2.2893   30.1810 C.ar    1  UNL1        0.0369
      6 C         -27.8727   -1.9508   29.7373 C.ar    1  UNL1        0.1391
      7 C         -24.5491    0.4100   28.7341 C.ar    1  UNL1        0.0000
      8 C         -24.4789    1.1871   27.6843 C.ar    1  UNL1        0.0000
      9 C         -23.2830    1.8356   27.3522 C.ar    1  UNL1        0.0000
     10 C         -22.1028    1.6619   28.0350 C.ar    1  UNL1        0.0000
     11 C         -23.3238    0.1535   29.4730 C.ar    1  UNL1        0.0000
     12 C         -22.1169    0.8126   29.1066 C.ar    1  UNL1        0.0000
     13 O         -29.0490   -2.5758   30.0859 O.3     1  UNL1       -0.4699
     14 C         -30.1185   -1.9105   30.5214 C.3     1  UNL1        0.2416
     15 C         -31.2557   -2.1833   29.7646 C.2     1  UNL1        0.2695
     16 O         -31.4278   -3.2125   29.3092 O.2     1  UNL1       -0.2706
     17 N         -32.1578   -1.1665   29.5166 N.am    1  UNL1       -0.2557
     18 C         -32.0272    0.2001   30.0821 C.3     1  UNL1        0.0984
     19 C         -31.1838    0.1892   31.0912 C.3     1  UNL1        0.0261
     20 C         -29.9709   -0.6785   31.2583 C.3     1  UNL1        0.0549
     21 C         -33.2603   -1.4275   28.6104 C.ar    1  UNL1        0.0539
     22 C         -34.4324   -1.8167   28.9664 C.ar    1  UNL1        0.0149
     23 C         -35.3628   -2.0991   28.1392 C.ar    1  UNL1        0.0013
     24 C         -32.9576   -1.2334   27.2275 C.ar    1  UNL1        0.0149
     25 C         -33.8935   -1.5168   26.2732 C.ar    1  UNL1        0.0013
     26 C         -35.1402   -1.9586   26.7228 C.ar    1  UNL1        0.0001
@<TRIPOS>BOND
     1     3     7    1
     2     6    13    1
     3    13    14    1
     4    14    15    1
     5    15    16    2
     6    15    17   am
     7    17    18    1
     8    14    20    1
     9    19    20    1
    10    17    21    1
    11    19    18    1
    12     7     8   ar
    13     8     9   ar
    14     9    10   ar
    15    10    12   ar
    16    12    11   ar
    17    11     7   ar
    18     1     2   ar
    19     2     3   ar
    20     3     4   ar
    21     4     5   ar
    22     5     6   ar
    23     6     1   ar
    24    21    22   ar
    25    22    23   ar
    26    23    26   ar
    27    26    25   ar
    28    25    24   ar
    29    24    21   ar
