@<TRIPOS>MOLECULE
No_1575-gen_results/8p0m/2024-11-26-14-13-15/
 21 22 0 0 0
SMALL
GASTEIGER

@<TRIPOS>ATOM
      1 C         -28.0162   -0.8135   28.8779 C.ar    1  UNL1       -0.0003
      2 C         -28.4690   -0.7850   29.8287 C.ar    1  UNL1       -0.0000
      3 C         -27.0871    0.2903   28.6377 C.ar    1  UNL1       -0.0043
      4 C         -26.8317    1.2487   29.5869 C.ar    1  UNL1       -0.0003
      5 C         -28.3914    0.0801   31.0065 C.ar    1  UNL1       -0.0000
      6 C         -27.4940    1.1521   30.7841 C.ar    1  UNL1       -0.0000
      7 C         -26.3109    0.3918   27.3640 C.2     1  UNL1       -0.0261
      8 C         -24.9686    0.2477   27.4806 C.2     1  UNL1       -0.0258
      9 C         -24.2490   -0.0471   28.6523 C.2     1  UNL1       -0.0046
     10 C         -22.8336    0.1271   28.6599 C.2     1  UNL1       -0.0007
     11 C         -22.0707    0.8056   28.4701 C.2     1  UNL1       -0.0046
     12 C         -22.4972    2.0105   27.6864 C.2     1  UNL1       -0.0258
     13 C         -23.5498    2.1497   26.7628 C.3     1  UNL1        0.0307
     14 C         -24.5193    1.8225   27.1283 C.3     1  UNL1        0.0307
     15 C         -27.0402    0.3021   26.1734 C.3     1  UNL1        0.0264
     16 C         -27.0289    1.4362   25.3926 C.3     1  UNL1        0.0090
     17 C         -28.2562    2.1278   25.2918 C.3     1  UNL1        0.0220
     18 C         -28.2997    3.1228   25.9902 C.2     1  UNL1       -0.0310
     19 C         -29.2235    1.7034   24.3487 C.3     1  UNL1        0.0047
     20 C         -29.0390    3.7251   26.5131 C.2     1  UNL1       -0.0304
     21 C         -29.0512    4.8703   27.4293 C.3     1  UNL1        0.0303
@<TRIPOS>BOND
     1     3     7    1
     2     7     8    2
     3     8     9    1
     4     9    10    2
     5    10    11    1
     6    11    12    2
     7    12    13    1
     8     8    14    1
     9    13    14    1
    10     7    15    1
    11    15    16    1
    12    16    17    1
    13    17    18    1
    14    17    19    1
    15    18    20    2
    16    20    21    1
    17     1     2   ar
    18     2     5   ar
    19     5     6   ar
    20     6     4   ar
    21     4     3   ar
    22     3     1   ar
