@<TRIPOS>MOLECULE
No_1576-gen_results/8p0m/2024-11-26-14-13-15/
 21 22 0 0 0
SMALL
GASTEIGER

@<TRIPOS>ATOM
      1 C         -28.0162   -0.8135   28.8779 C.ar    1  UNL1        0.0130
      2 C         -28.4690   -0.7850   29.8287 C.ar    1  UNL1        0.0800
      3 C         -27.0871    0.2903   28.6377 C.ar    1  UNL1        0.0762
      4 C         -26.8317    1.2487   29.5869 C.ar    1  UNL1        0.0065
      5 C         -28.3914    0.0801   31.0065 C.ar    1  UNL1        0.0066
      6 C         -27.4940    1.1521   30.7841 C.ar    1  UNL1        0.0004
      7 C         -26.3844    0.1867   27.3577 C.2     1  UNL1        0.3457
      8 O         -26.9023    0.4130   26.2703 O.2     1  UNL1       -0.2445
      9 O         -25.0185    0.0182   27.3915 O.3     1  UNL1       -0.4208
     10 C         -29.4746   -1.9941   30.2904 C.2     1  UNL1        0.3878
     11 O         -29.3536   -2.8976   30.8063 O.co2   1  UNL1       -0.2406
     12 O         -30.7041   -1.7198   29.7554 O.co2   1  UNL1       -0.2406
     13 C         -24.2674    1.0001   26.9523 C.ar    1  UNL1        0.1551
     14 C         -24.4318    1.7474   25.9749 C.ar    1  UNL1        0.0378
     15 C         -23.1930    1.3177   27.9790 C.ar    1  UNL1        0.1143
     16 C         -22.8866    0.6548   29.1608 C.2     1  UNL1        0.3907
     17 C         -23.3811    2.7960   25.6261 C.ar    1  UNL1        0.0031
     18 C         -22.4938    2.8007   26.3296 C.ar    1  UNL1        0.0004
     19 C         -22.2161    2.2467   27.5124 C.ar    1  UNL1        0.0097
     20 O         -23.3915    0.9405   30.2368 O.co2   1  UNL1       -0.2404
     21 O         -21.8887   -0.2124   29.1999 O.co2   1  UNL1       -0.2404
@<TRIPOS>BOND
     1     3     7    1
     2     7     8    2
     3     7     9    1
     4     2    10    1
     5    10    11   ar
     6    10    12   ar
     7     9    13    1
     8    15    16    1
     9    16    20   ar
    10    16    21   ar
    11     1     2   ar
    12     2     5   ar
    13     5     6   ar
    14     6     4   ar
    15     4     3   ar
    16     3     1   ar
    17    13    14   ar
    18    14    17   ar
    19    17    18   ar
    20    18    19   ar
    21    19    15   ar
    22    15    13   ar
