@<TRIPOS>MOLECULE
No_1577-gen_results/8p0m/2024-11-26-14-13-15/
 22 23 0 0 0
SMALL
GASTEIGER

@<TRIPOS>ATOM
      1 C         -28.0162   -0.8135   28.8779 C.ar    1  UNL1        0.1831
      2 C         -27.0636   -0.1190   28.6079 C.ar    1  UNL1        0.1752
      3 C         -25.7923   -0.4302   29.0761 C.ar    1  UNL1        0.0307
      4 C         -24.5456    0.3494   28.8225 C.ar    1  UNL1        0.0053
      5 C         -23.2409    0.0217   29.3323 C.ar    1  UNL1        0.0003
      6 C         -27.8820   -1.8995   29.8633 C.ar    1  UNL1        0.0944
      7 C         -26.6706   -2.3272   30.3212 C.ar    1  UNL1        0.0146
      8 C         -25.5433   -1.5852   29.9316 C.ar    1  UNL1        0.0033
      9 C         -22.1884    0.8224   28.9928 C.ar    1  UNL1        0.0031
     10 C         -22.1616    1.7773   28.0238 C.ar    1  UNL1        0.0369
     11 C         -24.5484    1.3977   27.8309 C.ar    1  UNL1        0.0370
     12 C         -23.3870    2.0761   27.4709 C.ar    1  UNL1        0.1387
     13 CL        -29.2607   -2.8329   30.3477 Cl      1  UNL1       -0.0790
     14 O         -23.5158    3.0367   26.5197 O.3     1  UNL1       -0.4714
     15 C         -24.8335    3.4837   26.2589 C.3     1  UNL1        0.2525
     16 F         -27.1793    0.9015   27.7547 F       1  UNL1       -0.2009
     17 O         -29.2970   -0.5895   28.5222 O.3     1  UNL1       -0.4473
     18 C         -29.4908    0.3720   27.5917 C.2     1  UNL1        0.1796
     19 C         -30.4234    0.4362   26.9037 C.2     1  UNL1        0.0403
     20 C         -30.6535    1.4669   25.9119 C.2     1  UNL1       -0.0013
     21 C         -29.6343    2.4669   25.7792 C.2     1  UNL1       -0.0257
     22 C         -28.5451    2.4461   26.5958 C.3     1  UNL1        0.0307
@<TRIPOS>BOND
     1     3     4    1
     2     6    13    1
     3    12    14    1
     4    14    15    1
     5     2    16    1
     6     1    17    1
     7    17    18    1
     8    18    19    2
     9    19    20    1
    10    20    21    2
    11    21    22    1
    12     1     2   ar
    13     2     3   ar
    14     3     8   ar
    15     8     7   ar
    16     7     6   ar
    17     6     1   ar
    18     4     5   ar
    19     5     9   ar
    20     9    10   ar
    21    10    12   ar
    22    12    11   ar
    23    11     4   ar
