@<TRIPOS>MOLECULE
No_1578-gen_results/8p0m/2024-11-26-14-13-15/
 13 14 0 0 0
SMALL
GASTEIGER

@<TRIPOS>ATOM
      1 C         -28.0162   -0.8135   28.8779 C.ar    1  UNL1        0.0988
      2 C         -27.0636   -0.1189   28.6079 C.ar    1  UNL1        0.0192
      3 C         -26.9716    0.7139   27.5060 C.ar    1  UNL1        0.0017
      4 C         -25.8205    1.4910   27.1160 C.ar    1  UNL1        0.0047
      5 C         -24.6562    1.4242   27.9180 C.ar    1  UNL1        0.0567
      6 C         -24.6847    0.5901   29.0659 C.ar    1  UNL1        0.0047
      7 C         -25.8099   -0.1265   29.3338 C.ar    1  UNL1        0.0032
      8 N         -27.9680   -1.6901   30.0059 N.ar    1  UNL1       -0.2423
      9 C         -23.6340    2.3413   27.5272 C.2     1  UNL1        0.2842
     10 N         -23.6115    2.8352   26.3071 N.am    1  UNL1       -0.0837
     11 O         -22.4697    2.3450   28.1574 O.2     1  UNL1       -0.2667
     12 C         -26.7343   -2.0255   30.5613 C.ar    1  UNL1        0.0989
     13 C         -25.6558   -1.2046   30.3420 C.ar    1  UNL1        0.0207
@<TRIPOS>BOND
     1     5     9    1
     2     9    10   am
     3     9    11    2
     4     2     3   ar
     5     3     4   ar
     6     4     5   ar
     7     5     6   ar
     8     6     7   ar
     9     1     2   ar
    10     2     7   ar
    11     7    13   ar
    12    13    12   ar
    13    12     8   ar
    14     8     1   ar
