@<TRIPOS>MOLECULE
No_1579-gen_results/8p0m/2024-11-26-14-13-15/
 35 37 0 0 0
SMALL
GASTEIGER

@<TRIPOS>ATOM
      1 C         -28.0162   -0.8135   28.8779 C.ar    1  UNL1        0.0369
      2 C         -27.0636   -0.1189   28.6079 C.ar    1  UNL1        0.0031
      3 C         -25.7647   -0.3897   29.0360 C.ar    1  UNL1        0.0002
      4 C         -25.5296   -1.5302   29.9014 C.ar    1  UNL1        0.0031
      5 C         -26.6888   -2.2893   30.1810 C.ar    1  UNL1        0.0369
      6 C         -27.8727   -1.9508   29.7373 C.ar    1  UNL1        0.1388
      7 O         -28.9304   -2.7298   30.1154 O.3     1  UNL1       -0.4708
      8 C         -24.5394    0.4211   28.7421 C.ar    1  UNL1        0.0000
      9 C         -24.5259    1.2743   27.7265 C.ar    1  UNL1        0.0000
     10 C         -23.3174    1.9856   27.4033 C.ar    1  UNL1        0.0000
     11 C         -22.1311    1.7374   28.0503 C.ar    1  UNL1        0.0000
     12 C         -23.2983    0.1369   29.3770 C.ar    1  UNL1        0.0000
     13 C         -22.1005    0.8185   29.0410 C.ar    1  UNL1        0.0000
     14 C         -29.3101   -2.7539   31.4531 C.3     1  UNL1        0.2575
     15 C         -29.7956   -4.0479   31.8129 C.3     1  UNL1        0.3599
     16 O         -31.0287   -4.2081   31.6937 O.2     1  UNL1       -0.4441
     17 C         -31.8680   -3.4144   31.3926 C.2     1  UNL1        0.1875
     18 O         -29.0179   -5.1022   31.2367 O.3     1  UNL1       -0.1702
     19 C         -33.0337   -3.6830   30.9794 C.2     1  UNL1        0.1083
     20 CL        -33.6957   -3.4733   30.1960 Cl      1  UNL1       -0.0780
     21 C         -29.3012   -1.7009   32.3201 C.3     1  UNL1        0.1433
     22 N         -29.1012   -0.6655   32.0419 N.pl3   1  UNL1       -0.2780
     23 C         -29.9211    0.2226   31.3856 C.3     1  UNL1        0.2604
     24 F         -30.8653   -0.3668   30.9032 F       1  UNL1       -0.2097
     25 C         -30.4233    1.2516   32.3399 C.ar    1  UNL1        0.0293
     26 C         -30.8408    2.3517   31.9775 C.ar    1  UNL1        0.0001
     27 C         -31.4163    3.3525   32.8693 C.ar    1  UNL1       -0.0002
     28 C         -27.7336   -0.0490   32.4385 C.2     1  UNL1        0.0276
     29 C         -31.4063    3.0360   34.2297 C.ar    1  UNL1       -0.0000
     30 C         -30.9133    1.8209   34.6637 C.ar    1  UNL1       -0.0002
     31 C         -30.3896    0.8972   33.7334 C.ar    1  UNL1        0.0001
     32 C         -27.0808   -0.5949   33.5238 C.2     1  UNL1        0.0102
     33 C         -25.7421   -0.1255   33.7220 C.2     1  UNL1        0.0009
     34 C         -25.1965    0.8032   32.8277 C.2     1  UNL1        0.0000
     35 C         -27.0970    0.9846   31.7059 C.3     1  UNL1        0.0471
@<TRIPOS>BOND
     1     6     7    1
     2     3     8    1
     3     7    14    1
     4    14    15    1
     5    15    16    1
     6    16    17    1
     7    15    18    1
     8    17    19    2
     9    19    20    1
    10    14    21    1
    11    21    22    1
    12    22    23    1
    13    23    24    1
    14    23    25    1
    15    22    28    1
    16    28    32    2
    17    32    33    1
    18    33    34    2
    19    28    35    1
    20    25    26   ar
    21    26    27   ar
    22    27    29   ar
    23    29    30   ar
    24    30    31   ar
    25    31    25   ar
    26     1     2   ar
    27     2     3   ar
    28     3     4   ar
    29     4     5   ar
    30     5     6   ar
    31     6     1   ar
    32     8     9   ar
    33     9    10   ar
    34    10    11   ar
    35    11    13   ar
    36    13    12   ar
    37    12     8   ar
