@<TRIPOS>MOLECULE
No_158-gen_results/8p0m/2024-11-26-14-13-15/
 19 20 0 0 0
SMALL
GASTEIGER

@<TRIPOS>ATOM
      1 C         -28.0162   -0.8135   28.8779 C.ar    1  UNL1        0.0025
      2 C         -27.0636   -0.1190   28.6079 C.ar    1  UNL1        0.0146
      3 C         -26.9716    0.7139   27.5060 C.ar    1  UNL1        0.0491
      4 C         -28.1053    0.7744   26.6421 C.ar    1  UNL1        0.0290
      5 C         -29.2041    0.1179   27.0477 C.ar    1  UNL1        0.0492
      6 C         -29.2127   -0.6088   28.1281 C.ar    1  UNL1        0.0146
      7 N         -25.9455    1.5372   27.0332 N.pl3   1  UNL1       -0.3074
      8 C         -24.6436    1.3125   27.5446 C.3     1  UNL1        0.0925
      9 C         -23.5945    2.1658   27.0222 C.3     1  UNL1        0.0415
     10 C         -25.9880    2.5095   26.1447 C.3     1  UNL1        0.0908
     11 C         -24.9513    3.4191   25.8020 C.3     1  UNL1        0.0215
     12 C         -23.7001    3.1876   26.2775 C.3     1  UNL1        0.0052
     13 C         -22.1907    1.8548   27.7293 C.3     1  UNL1        0.1156
     14 N         -21.8827    0.6310   28.1470 N.pl3   1  UNL1       -0.2164
     15 C         -20.7423    0.2456   28.4757 C.2     1  UNL1        0.2043
     16 N         -30.3520    0.1633   26.2321 N.pl3   1  UNL1       -0.3040
     17 C         -30.2364   -0.1190   24.9234 C.3     1  UNL1        0.1122
     18 C         -31.6219    0.3963   26.7455 C.3     1  UNL1        0.1122
     19 N         -20.6412   -1.0524   29.0338 N.2     1  UNL1       -0.1271
@<TRIPOS>BOND
     1     3     7    1
     2     7     8    1
     3     7    10    1
     4     9    12    1
     5    11    12    1
     6     9    13    1
     7    13    14    1
     8    14    15    1
     9     5    16    1
    10    16    17    1
    11    16    18    1
    12    15    19    2
    13     8     9    1
    14    11    10    1
    15     1     2   ar
    16     2     3   ar
    17     3     4   ar
    18     4     5   ar
    19     5     6   ar
    20     6     1   ar
