@<TRIPOS>MOLECULE
No_1580-gen_results/8p0m/2024-11-26-14-13-15/
 24 26 0 0 0
SMALL
GASTEIGER

@<TRIPOS>ATOM
      1 C         -28.0162   -0.8135   28.8779 C.ar    1  UNL1        0.0046
      2 C         -28.4690   -0.7850   29.8287 C.ar    1  UNL1       -0.0001
      3 C         -27.0871    0.2903   28.6377 C.ar    1  UNL1        0.0551
      4 C         -26.2516    0.4114   27.4223 C.2     1  UNL1        0.2691
      5 C         -28.3913    0.1041   30.9805 C.ar    1  UNL1       -0.0028
      6 C         -27.5332    1.1666   30.7866 C.ar    1  UNL1       -0.0032
      7 C         -26.8281    1.2557   29.6454 C.ar    1  UNL1        0.0018
      8 N         -25.1894    0.4694   27.3614 N.am    1  UNL1       -0.1722
      9 O         -26.9789    0.3974   26.2798 O.2     1  UNL1       -0.2680
     10 C         -24.2071    0.5277   28.5047 C.ar    1  UNL1        0.1125
     11 C         -23.6590    1.6921   28.8573 C.ar    1  UNL1        0.2109
     12 C         -23.9312   -0.6653   29.1939 C.ar    1  UNL1        0.0199
     13 C         -22.9797   -0.6261   30.2299 C.ar    1  UNL1        0.0015
     14 C         -22.6374    1.7369   29.9176 C.ar    1  UNL1        0.0434
     15 C         -22.3582    0.5992   30.5989 C.ar    1  UNL1        0.0034
     16 O         -23.8875    2.8704   28.2366 O.3     1  UNL1       -0.2852
     17 C         -27.3527    2.1938   31.8602 C.3     1  UNL1        0.1242
     18 CL        -27.7230    2.1342   33.2518 Cl      1  UNL1       -0.1053
     19 C         -26.7074    3.4685   31.3772 C.ar    1  UNL1       -0.0034
     20 C         -27.3725    4.5352   31.7812 C.ar    1  UNL1       -0.0028
     21 C         -26.4979    5.4643   32.3013 C.ar    1  UNL1       -0.0003
     22 C         -25.2391    5.8141   31.6524 C.ar    1  UNL1       -0.0000
     23 C         -24.8071    4.6590   30.8985 C.ar    1  UNL1       -0.0003
     24 C         -25.4197    3.4963   30.8985 C.ar    1  UNL1       -0.0028
@<TRIPOS>BOND
     1     3     4    1
     2     4     8   am
     3     4     9    2
     4     8    10    1
     5    11    16    1
     6     6    17    1
     7    17    18    1
     8    17    19    1
     9    10    11   ar
    10    11    14   ar
    11    14    15   ar
    12    15    13   ar
    13    13    12   ar
    14    12    10   ar
    15     1     2   ar
    16     2     5   ar
    17     5     6   ar
    18     6     7   ar
    19     7     3   ar
    20     3     1   ar
    21    19    20   ar
    22    20    21   ar
    23    21    22   ar
    24    22    23   ar
    25    23    24   ar
    26    24    19   ar
