@<TRIPOS>MOLECULE
No_1581-gen_results/8p0m/2024-11-26-14-13-15/
 26 29 0 0 0
SMALL
GASTEIGER

@<TRIPOS>ATOM
      1 C         -28.0162   -0.8135   28.8779 C.ar    1  UNL1        0.0369
      2 C         -27.0636   -0.1189   28.6079 C.ar    1  UNL1        0.0031
      3 C         -25.7923   -0.4302   29.0761 C.ar    1  UNL1        0.0002
      4 C         -25.5756   -1.5654   29.9363 C.ar    1  UNL1        0.0031
      5 C         -26.7354   -2.3004   30.2173 C.ar    1  UNL1        0.0369
      6 C         -27.9184   -1.9537   29.7629 C.ar    1  UNL1        0.1393
      7 O         -29.0001   -2.7012   30.1151 O.3     1  UNL1       -0.4703
      8 C         -24.5290    0.3490   28.7998 C.ar    1  UNL1        0.0000
      9 C         -23.3442    0.0060   29.1658 C.ar    1  UNL1        0.0000
     10 C         -22.1783    0.7811   28.7783 C.ar    1  UNL1        0.0000
     11 C         -22.3218    1.7499   27.7727 C.ar    1  UNL1        0.0000
     12 C         -24.6102    1.3558   27.7479 C.ar    1  UNL1        0.0000
     13 C         -23.5148    2.0341   27.3068 C.ar    1  UNL1        0.0000
     14 C         -29.3590   -2.8169   31.4427 C.3     1  UNL1        0.2105
     15 C         -29.9217   -1.7844   31.9970 C.ar    1  UNL1        0.0215
     16 C         -29.9213   -1.7262   33.2780 C.ar    1  UNL1       -0.0005
     17 C         -30.2143   -0.4796   34.0401 C.ar    1  UNL1       -0.0002
     18 C         -30.7326    0.5966   33.2785 C.ar    1  UNL1       -0.0000
     19 C         -30.7147    0.4998   31.9040 C.ar    1  UNL1       -0.0002
     20 C         -30.2199   -0.6462   31.2592 C.ar    1  UNL1       -0.0005
     21 C         -30.2569   -4.1055   31.5741 C.ar    1  UNL1        0.0215
     22 C         -31.1602   -4.3036   30.7899 C.ar    1  UNL1       -0.0005
     23 C         -31.9148   -5.4273   30.9268 C.ar    1  UNL1       -0.0002
     24 C         -31.5395   -6.4198   31.8593 C.ar    1  UNL1       -0.0000
     25 C         -29.9058   -5.1745   32.5679 C.ar    1  UNL1       -0.0005
     26 C         -30.5255   -6.2476   32.7130 C.ar    1  UNL1       -0.0002
@<TRIPOS>BOND
     1     6     7    1
     2     3     8    1
     3     7    14    1
     4    14    15    1
     5    14    21    1
     6    15    16   ar
     7    16    17   ar
     8    17    18   ar
     9    18    19   ar
    10    19    20   ar
    11    20    15   ar
    12     1     2   ar
    13     2     3   ar
    14     3     4   ar
    15     4     5   ar
    16     5     6   ar
    17     6     1   ar
    18    21    22   ar
    19    22    23   ar
    20    23    24   ar
    21    24    26   ar
    22    26    25   ar
    23    25    21   ar
    24     8     9   ar
    25     9    10   ar
    26    10    11   ar
    27    11    13   ar
    28    13    12   ar
    29    12     8   ar
