@<TRIPOS>MOLECULE
No_1582-gen_results/8p0m/2024-11-26-14-13-15/
 19 20 0 0 0
SMALL
GASTEIGER

@<TRIPOS>ATOM
      1 C         -28.0162   -0.8135   28.8779 C.ar    1  UNL1        0.0891
      2 C         -27.0636   -0.1190   28.6079 C.ar    1  UNL1        0.0180
      3 C         -27.0010    0.6913   27.4910 C.ar    1  UNL1        0.0044
      4 C         -28.1420    0.8282   26.7994 C.ar    1  UNL1        0.0361
      5 C         -27.9310   -1.6069   30.1504 C.ar    1  UNL1        0.0974
      6 C         -26.7094   -1.7845   30.7448 C.ar    1  UNL1        0.0081
      7 C         -25.5731   -1.1815   30.3081 C.ar    1  UNL1        0.0003
      8 C         -25.6842   -0.3065   29.2345 C.ar    1  UNL1        0.0015
      9 C         -29.2570    0.2927   27.3428 C.ar    1  UNL1        0.1517
     10 N         -29.2234   -0.5191   28.4053 N.ar    1  UNL1       -0.2287
     11 N         -30.4827    0.4173   26.6795 N.pl3   1  UNL1       -0.1928
     12 C         -29.0880   -2.4282   30.6261 C.2     1  UNL1        0.3892
     13 O         -29.0506   -3.5887   30.7282 O.co2   1  UNL1       -0.2405
     14 O         -30.1475   -1.7267   30.9030 O.co2   1  UNL1       -0.2405
     15 C         -31.6143    0.2188   27.3299 C.2     1  UNL1        0.0873
     16 C         -31.9622    0.7713   28.3500 C.2     1  UNL1        0.0175
     17 C         -33.2208    0.5946   29.0561 C.2     1  UNL1       -0.0032
     18 C         -33.5768    1.2491   30.2612 C.2     1  UNL1       -0.0257
     19 C         -34.7602    1.0401   30.9095 C.3     1  UNL1        0.0307
@<TRIPOS>BOND
     1     9    11    1
     2     5    12    1
     3    12    13   ar
     4    12    14   ar
     5    11    15    1
     6    15    16    2
     7    16    17    1
     8    17    18    2
     9    18    19    1
    10     2     3   ar
    11     3     4   ar
    12     4     9   ar
    13     9    10   ar
    14    10     1   ar
    15     1     2   ar
    16     2     8   ar
    17     8     7   ar
    18     7     6   ar
    19     6     5   ar
    20     5     1   ar
