@<TRIPOS>MOLECULE
No_1583-gen_results/8p0m/2024-11-26-14-13-15/
 19 21 0 0 0
SMALL
GASTEIGER

@<TRIPOS>ATOM
      1 C         -28.0162   -0.8135   28.8779 C.ar    1  UNL1        0.0026
      2 C         -28.4690   -0.7850   29.8287 C.ar    1  UNL1        0.0795
      3 C         -26.5455   -0.8762   28.8500 C.ar    1  UNL1       -0.0179
      4 C         -25.8041   -1.0324   30.0571 C.ar    1  UNL1       -0.0072
      5 C         -27.9437   -0.9869   31.2075 C.ar    1  UNL1        0.0065
      6 C         -26.5825   -1.0386   31.2231 C.ar    1  UNL1       -0.0004
      7 C         -24.3810   -1.1082   30.0855 C.ar    1  UNL1       -0.0162
      8 C         -23.7590   -1.1322   30.8961 C.ar    1  UNL1       -0.0039
      9 C         -24.3562   -0.7699   32.2492 C.ar    1  UNL1       -0.0003
     10 C         -25.7653   -0.8949   32.4030 C.ar    1  UNL1       -0.0000
     11 C         -30.0955   -0.7735   29.8584 C.2     1  UNL1        0.3877
     12 O         -30.5291   -0.2446   28.9376 O.co2   1  UNL1       -0.2406
     13 O         -30.7645   -1.1923   30.8479 O.co2   1  UNL1       -0.2406
     14 C         -25.7702   -0.8336   27.5633 C.3     1  UNL1        0.0520
     15 C         -24.7223    0.1431   27.5457 C.2     1  UNL1       -0.0256
     16 C         -24.3587    0.8393   28.4600 C.2     1  UNL1       -0.0237
     17 C         -23.6968   -0.0868   29.5349 C.3     1  UNL1        0.0769
     18 C         -22.1935    0.1564   29.6762 C.3     1  UNL1        0.1907
     19 O         -21.8430    1.2928   29.1634 O.3     1  UNL1       -0.2197
@<TRIPOS>BOND
     1     2    11    1
     2    11    12   ar
     3    11    13   ar
     4     3    14    1
     5    14    15    1
     6    15    16    2
     7     7    17    1
     8    16    17    1
     9    17    18    1
    10    18    19    1
    11     6    10   ar
    12    10     9   ar
    13     9     8   ar
    14     8     7   ar
    15     7     4   ar
    16     1     2   ar
    17     2     5   ar
    18     5     6   ar
    19     6     4   ar
    20     4     3   ar
    21     3     1   ar
