@<TRIPOS>MOLECULE
No_1584-gen_results/8p0m/2024-11-26-14-13-15/
 14 15 0 0 0
SMALL
GASTEIGER

@<TRIPOS>ATOM
      1 BR        -28.1146   -0.6256   29.0813 Br      1  UNL1       -0.0490
      2 C         -26.9268    0.4545   28.6846 C.ar    1  UNL1        0.0346
      3 C         -25.8457    0.7043   29.3312 C.ar    1  UNL1        0.0076
      4 C         -24.8514    1.6413   28.9474 C.ar    1  UNL1        0.0119
      5 C         -25.0097    2.3205   27.7273 C.ar    1  UNL1        0.0577
      6 C         -26.1307    2.0369   26.9913 C.ar    1  UNL1        0.0119
      7 C         -27.0265    1.1434   27.3985 C.ar    1  UNL1        0.0071
      8 CL        -23.7993    3.4456   27.2355 Cl      1  UNL1       -0.0822
      9 C         -28.2531    0.7887   26.7310 C.ar    1  UNL1        0.0005
     10 C         -28.9762    1.8731   26.1442 C.ar    1  UNL1        0.0000
     11 C         -30.0998    1.6717   25.2999 C.ar    1  UNL1        0.0000
     12 C         -30.3793    0.3899   24.9270 C.ar    1  UNL1        0.0000
     13 C         -29.5578   -0.6996   25.2986 C.ar    1  UNL1        0.0000
     14 C         -28.5088   -0.4431   26.1209 C.ar    1  UNL1        0.0000
@<TRIPOS>BOND
     1     1     2    1
     2     5     8    1
     3     7     9    1
     4     2     3   ar
     5     3     4   ar
     6     4     5   ar
     7     5     6   ar
     8     6     7   ar
     9     7     2   ar
    10     9    10   ar
    11    10    11   ar
    12    11    12   ar
    13    12    13   ar
    14    13    14   ar
    15    14     9   ar
