@<TRIPOS>MOLECULE
No_1585-gen_results/8p0m/2024-11-26-14-13-15/
 24 26 0 0 0
SMALL
GASTEIGER

@<TRIPOS>ATOM
      1 C         -28.0162   -0.8135   28.8779 C.ar    1  UNL1        0.1394
      2 C         -27.0636   -0.1189   28.6079 C.ar    1  UNL1        0.0340
      3 C         -26.9716    0.7139   27.5060 C.ar    1  UNL1        0.0035
      4 C         -28.1053    0.7744   26.6421 C.ar    1  UNL1        0.0069
      5 C         -29.2008    0.1044   27.0527 C.ar    1  UNL1        0.0376
      6 C         -29.2096   -0.6029   28.1853 C.ar    1  UNL1        0.0436
      7 BR        -30.6913    0.2536   25.9500 Br      1  UNL1       -0.0489
      8 C         -25.6962   -0.2340   29.4204 C.ar    1  UNL1        0.0029
      9 C         -24.7440   -1.0561   28.9997 C.ar    1  UNL1        0.0001
     10 C         -23.4980   -1.1682   29.6389 C.ar    1  UNL1        0.0000
     11 C         -23.2336   -0.3416   30.7186 C.ar    1  UNL1        0.0000
     12 C         -24.2362    0.4614   31.2313 C.ar    1  UNL1        0.0000
     13 C         -25.4615    0.5627   30.5151 C.ar    1  UNL1        0.0001
     14 O         -28.0960   -1.6234   29.9978 O.3     1  UNL1       -0.4709
     15 C         -29.1149   -1.7105   30.7989 C.3     1  UNL1        0.2340
     16 C         -29.0541   -0.9159   31.8586 C.3     1  UNL1        0.0781
     17 C         -29.7006   -0.0648   32.2189 C.ar    1  UNL1       -0.0181
     18 C         -29.5766    0.8318   33.3931 C.ar    1  UNL1       -0.0041
     19 C         -30.2767    2.0280   33.6646 C.ar    1  UNL1       -0.0003
     20 C         -31.2809    2.3092   32.7118 C.ar    1  UNL1       -0.0000
     21 C         -31.4641    1.5673   31.5823 C.ar    1  UNL1       -0.0003
     22 C         -30.6845    0.5240   31.3046 C.ar    1  UNL1       -0.0041
     23 C         -30.0643   -2.6525   30.6309 C.2     1  UNL1        0.2509
     24 O         -29.7741   -3.7079   30.2044 O.2     1  UNL1       -0.2843
@<TRIPOS>BOND
     1     5     7    1
     2     2     8    1
     3     1    14    1
     4    14    15    1
     5    15    16    1
     6    15    23    1
     7    23    24    2
     8    16    17    1
     9    17    18   ar
    10    18    19   ar
    11    19    20   ar
    12    20    21   ar
    13    21    22   ar
    14    22    17   ar
    15     1     2   ar
    16     2     3   ar
    17     3     4   ar
    18     4     5   ar
    19     5     6   ar
    20     6     1   ar
    21     8     9   ar
    22     9    10   ar
    23    10    11   ar
    24    11    12   ar
    25    12    13   ar
    26    13     8   ar
