@<TRIPOS>MOLECULE
No_1586-gen_results/8p0m/2024-11-26-14-13-15/
 24 25 0 0 0
SMALL
GASTEIGER

@<TRIPOS>ATOM
      1 C         -28.0162   -0.8135   28.8779 C.3     1  UNL1        0.1386
      2 C         -27.0636   -0.1190   28.6079 C.ar    1  UNL1       -0.0007
      3 C         -27.0010    0.6913   27.4910 C.ar    1  UNL1       -0.0023
      4 C         -25.8548    1.4825   27.0830 C.ar    1  UNL1        0.0063
      5 C         -24.6901    1.4526   27.8807 C.ar    1  UNL1        0.0798
      6 C         -24.7379    0.6010   29.0416 C.ar    1  UNL1        0.0063
      7 C         -25.8234   -0.1688   29.3887 C.ar    1  UNL1       -0.0023
      8 N         -28.7300   -0.5298   30.0429 N.pl3   1  UNL1       -0.2318
      9 C         -28.9322    0.3227   30.5381 C.2     1  UNL1        0.0762
     10 C         -29.3038    1.0059   31.2658 C.2     1  UNL1       -0.0041
     11 C         -29.7469    2.2121   31.8763 C.3     1  UNL1        0.0534
     12 C         -29.9292    3.2238   32.3858 C.2     1  UNL1       -0.0214
     13 C         -23.5202    2.2326   27.5831 C.2     1  UNL1        0.3878
     14 O         -22.5845    1.9314   27.0490 O.co2   1  UNL1       -0.2406
     15 O         -23.7049    3.5413   27.9106 O.co2   1  UNL1       -0.2406
     16 C         -30.1749    4.3686   32.6757 C.2     1  UNL1       -0.0042
     17 C         -30.3942    5.5612   32.9720 C.ar    1  UNL1       -0.0003
     18 C         -30.3108    5.9839   34.2546 C.ar    1  UNL1        0.0000
     19 C         -30.6826    7.3095   34.5167 C.ar    1  UNL1        0.0016
     20 C         -31.1041    8.0963   33.4396 C.ar    1  UNL1        0.0210
     21 C         -31.1535    7.6215   32.1807 C.ar    1  UNL1        0.0016
     22 C         -30.8068    6.3856   31.9051 C.ar    1  UNL1        0.0000
     23 C         -31.4930    9.5179   33.7475 C.2     1  UNL1        0.1221
     24 N         -32.1243   10.1937   33.2247 N.2     1  UNL1       -0.1464
@<TRIPOS>BOND
     1     1     2    1
     2     1     8    1
     3     8     9    1
     4     9    10    2
     5    10    11    1
     6    11    12    1
     7     5    13    1
     8    13    14   ar
     9    13    15   ar
    10    12    16    2
    11    16    17    1
    12    20    23    1
    13    23    24    2
    14    17    18   ar
    15    18    19   ar
    16    19    20   ar
    17    20    21   ar
    18    21    22   ar
    19    22    17   ar
    20     2     3   ar
    21     3     4   ar
    22     4     5   ar
    23     5     6   ar
    24     6     7   ar
    25     7     2   ar
