@<TRIPOS>MOLECULE
No_1587-gen_results/8p0m/2024-11-26-14-13-15/
 11 11 0 0 0
SMALL
GASTEIGER

@<TRIPOS>ATOM
      1 C         -28.0162   -0.8135   28.8779 C.ar    1  UNL1        0.0004
      2 C         -27.0636   -0.1190   28.6079 C.ar    1  UNL1        0.0067
      3 C         -26.9716    0.7139   27.5060 C.ar    1  UNL1        0.0345
      4 C         -28.1053    0.7744   26.6421 C.ar    1  UNL1        0.0105
      5 C         -29.2008    0.1044   27.0527 C.ar    1  UNL1        0.0719
      6 C         -29.2096   -0.6029   28.1853 C.ar    1  UNL1        0.0039
      7 C         -30.3702    0.2264   26.1604 C.3     1  UNL1        0.4186
      8 F         -31.1738   -0.5856   26.3308 F       1  UNL1       -0.1659
      9 F         -30.8534    1.4738   26.2838 F       1  UNL1       -0.1659
     10 F         -29.9564    0.1272   24.8490 F       1  UNL1       -0.1659
     11 BR        -25.3519    1.5979   27.0191 Br      1  UNL1       -0.0490
@<TRIPOS>BOND
     1     5     7    1
     2     7     8    1
     3     7     9    1
     4     7    10    1
     5     3    11    1
     6     1     2   ar
     7     2     3   ar
     8     3     4   ar
     9     4     5   ar
    10     5     6   ar
    11     6     1   ar
