@<TRIPOS>MOLECULE
No_1589-gen_results/8p0m/2024-11-26-14-13-15/
 13 14 0 0 0
SMALL
GASTEIGER

@<TRIPOS>ATOM
      1 C         -28.0162   -0.8135   28.8779 C.ar    1  UNL1       -0.0039
      2 C         -28.4690   -0.7850   29.8287 C.ar    1  UNL1       -0.0003
      3 C         -27.1356    0.2359   28.5352 C.ar    1  UNL1       -0.0178
      4 C         -26.3351    0.2900   27.2835 C.3     1  UNL1        0.0526
      5 C         -28.3692    0.1957   30.9236 C.ar    1  UNL1       -0.0000
      6 C         -27.5158    1.2655   30.6540 C.ar    1  UNL1       -0.0003
      7 C         -26.8411    1.2942   29.4761 C.ar    1  UNL1       -0.0039
      8 C         -25.6774    1.5199   26.9774 C.ar    1  UNL1       -0.0178
      9 C         -24.6512    1.5543   26.2096 C.ar    1  UNL1       -0.0039
     10 C         -23.8845    2.8925   26.0981 C.ar    1  UNL1       -0.0003
     11 C         -24.3714    4.0011   26.8162 C.ar    1  UNL1       -0.0000
     12 C         -25.5145    3.8796   27.5451 C.ar    1  UNL1       -0.0003
     13 C         -26.1261    2.6350   27.7527 C.ar    1  UNL1       -0.0039
@<TRIPOS>BOND
     1     3     4    1
     2     4     8    1
     3     8     9   ar
     4     9    10   ar
     5    10    11   ar
     6    11    12   ar
     7    12    13   ar
     8    13     8   ar
     9     1     2   ar
    10     2     5   ar
    11     5     6   ar
    12     6     7   ar
    13     7     3   ar
    14     3     1   ar
