@<TRIPOS>MOLECULE
No_159-gen_results/8p0m/2024-11-26-14-13-15/
 13 13 0 0 0
SMALL
GASTEIGER

@<TRIPOS>ATOM
      1 C         -28.0162   -0.8135   28.8779 C.ar    1  UNL1        0.0517
      2 C         -28.4690   -0.7850   29.8287 C.ar    1  UNL1        0.0670
      3 C         -26.5042   -0.7777   28.8766 C.ar    1  UNL1        0.1735
      4 C         -25.9150   -0.6580   29.9230 C.ar    1  UNL1        0.1749
      5 C         -27.9691   -0.7243   31.2047 C.ar    1  UNL1        0.0476
      6 C         -26.5847   -0.6393   31.2062 C.ar    1  UNL1        0.0403
      7 CL        -30.2945   -0.8927   29.8840 Cl      1  UNL1       -0.0816
      8 F         -24.5341   -0.5801   29.9718 F       1  UNL1       -0.2009
      9 BR        -28.8050   -0.7781   32.9318 Br      1  UNL1       -0.0480
     10 O         -25.7728   -0.7808   27.6671 O.3     1  UNL1       -0.4485
     11 C         -25.7791    0.3298   26.8751 C.2     1  UNL1        0.1751
     12 C         -24.5151    0.8727   26.9452 C.2     1  UNL1        0.0148
     13 C         -24.3394    2.0578   26.0521 C.3     1  UNL1        0.0341
@<TRIPOS>BOND
     1     2     7    1
     2     4     8    1
     3     5     9    1
     4     3    10    1
     5    10    11    1
     6    11    12    2
     7    12    13    1
     8     1     2   ar
     9     2     5   ar
    10     5     6   ar
    11     6     4   ar
    12     4     3   ar
    13     3     1   ar
