@<TRIPOS>MOLECULE
No_1590-gen_results/8p0m/2024-11-26-14-13-15/
 29 33 0 0 0
SMALL
GASTEIGER

@<TRIPOS>ATOM
      1 C         -28.0162   -0.8135   28.8779 C.ar    1  UNL1        0.0145
      2 C         -28.4690   -0.7850   29.8287 C.ar    1  UNL1        0.0013
      3 C         -27.1356    0.2359   28.5352 C.ar    1  UNL1        0.0479
      4 C         -26.8745    1.2825   29.3982 C.ar    1  UNL1       -0.0041
      5 C         -28.3613    0.1987   30.9244 C.ar    1  UNL1       -0.0002
      6 C         -25.9723    2.3852   29.1040 C.3     1  UNL1        0.0568
      7 C         -27.5118    1.2316   30.6323 C.ar    1  UNL1       -0.0027
      8 C         -25.3009    2.5053   28.0335 C.ar    1  UNL1        0.0153
      9 C         -24.7278    1.4799   27.3812 C.ar    1  UNL1        0.0018
     10 C         -24.2004    0.4255   28.0721 C.ar    1  UNL1        0.0135
     11 C         -23.1394    0.6663   28.9624 C.ar    1  UNL1        0.0012
     12 C         -22.5210   -0.4990   29.5761 C.ar    1  UNL1        0.0001
     13 C         -23.1463   -1.7102   29.4435 C.ar    1  UNL1        0.0013
     14 C         -24.3583   -1.8371   28.9744 C.ar    1  UNL1        0.0148
     15 C         -24.8512   -0.8085   28.1671 C.ar    1  UNL1        0.0516
     16 N         -26.0458   -0.1475   27.7031 N.pl3   1  UNL1       -0.2853
     17 C         -26.2429   -0.2143   26.3527 C.3     1  UNL1        0.1173
     18 C         -24.0003    1.8112   26.1459 C.ar    1  UNL1        0.0205
     19 C         -25.3934    3.8860   27.3976 C.ar    1  UNL1        0.1441
     20 N         -25.9419    4.8983   28.0590 N.pl3   1  UNL1       -0.2157
     21 N         -24.6353    4.1930   26.3432 N.ar    1  UNL1       -0.2280
     22 C         -23.9585    3.1698   25.6487 C.ar    1  UNL1        0.1003
     23 C         -26.1135    6.0030   27.7463 C.3     1  UNL1        0.1401
     24 C         -26.6324    6.9627   28.6897 C.ar    1  UNL1       -0.0006
     25 C         -26.8354    8.1336   28.5904 C.ar    1  UNL1       -0.0026
     26 C         -27.3525    9.0575   29.6090 C.ar    1  UNL1       -0.0003
     27 C         -27.7177    8.4959   30.8000 C.ar    1  UNL1       -0.0000
     28 C         -27.5146    7.1531   31.0093 C.ar    1  UNL1       -0.0003
     29 C         -26.9099    6.3253   30.0267 C.ar    1  UNL1       -0.0026
@<TRIPOS>BOND
     1     4     6    1
     2     3    16    1
     3    15    16    1
     4    16    17    1
     5    19    20    1
     6    20    23    1
     7     6     8    1
     8    10     9    1
     9    23    24    1
    10    24    25   ar
    11    25    26   ar
    12    26    27   ar
    13    27    28   ar
    14    28    29   ar
    15    29    24   ar
    16    10    11   ar
    17    11    12   ar
    18    12    13   ar
    19    13    14   ar
    20    14    15   ar
    21    15    10   ar
    22     8     9   ar
    23     9    18   ar
    24    18    22   ar
    25    22    21   ar
    26    21    19   ar
    27    19     8   ar
    28     1     2   ar
    29     2     5   ar
    30     5     7   ar
    31     7     4   ar
    32     4     3   ar
    33     3     1   ar
