@<TRIPOS>MOLECULE
No_1592-gen_results/8p0m/2024-11-26-14-13-15/
 28 29 0 0 0
SMALL
GASTEIGER

@<TRIPOS>ATOM
      1 C         -28.0162   -0.8135   28.8779 C.ar    1  UNL1       -0.0010
      2 C         -27.0636   -0.1189   28.6079 C.ar    1  UNL1        0.0082
      3 C         -26.9716    0.7139   27.5060 C.ar    1  UNL1       -0.0010
      4 C         -28.1053    0.7744   26.6421 C.ar    1  UNL1        0.0111
      5 C         -29.2008    0.1044   27.0527 C.ar    1  UNL1        0.0577
      6 C         -29.2096   -0.6029   28.1853 C.ar    1  UNL1        0.0111
      7 CL        -30.5651    0.2430   26.0493 Cl      1  UNL1       -0.0822
      8 C         -25.7033   -0.2337   29.4132 C.3     1  UNL1        0.1819
      9 C         -25.1312    1.0192   29.9003 C.3     1  UNL1        0.0995
     10 C         -25.7794    1.5971   30.8511 C.2     1  UNL1       -0.0191
     11 C         -24.0066    1.5458   29.2298 C.3     1  UNL1        0.1831
     12 C         -25.3920    2.9323   31.2911 C.2     1  UNL1        0.0323
     13 N         -23.2908    0.9557   28.2806 N.3     1  UNL1       -0.2477
     14 C         -25.9106    3.8776   31.2962 C.ar    1  UNL1        0.0005
     15 C         -27.3120    4.0212   31.0924 C.ar    1  UNL1       -0.0002
     16 C         -28.0432    5.1648   31.1287 C.ar    1  UNL1       -0.0000
     17 C         -22.3549    1.5975   27.5363 C.3     1  UNL1        0.0916
     18 C         -27.3426    6.3240   31.5398 C.ar    1  UNL1       -0.0000
     19 C         -26.0126    6.3497   31.8911 C.ar    1  UNL1       -0.0000
     20 C         -25.3152    5.2092   31.8440 C.ar    1  UNL1       -0.0002
     21 C         -23.9577    3.0951   30.4981 C.3     1  UNL1        0.2923
     22 O         -22.9994    2.6404   31.2586 O.3     1  UNL1       -0.1847
     23 O         -24.2693    3.8414   29.6484 O.3     1  UNL1       -0.3225
     24 C         -23.4135   -0.3752   27.9592 C.3     1  UNL1        0.0916
     25 O         -23.9583    2.4915   28.6381 O.3     1  UNL1       -0.3378
     26 C         -24.5270    2.9544   27.4898 C.3     1  UNL1        0.1758
     27 C         -24.8180    4.8189   29.0588 C.3     1  UNL1        0.1773
     28 O         -25.7381   -1.2520   30.3448 O.3     1  UNL1       -0.2178
@<TRIPOS>BOND
     1     5     7    1
     2     2     8    1
     3     8     9    1
     4     9    10    1
     5     9    11    1
     6    10    12    2
     7    11    13    1
     8    12    14    1
     9    13    17    1
    10    12    21    1
    11    21    22    1
    12    21    23    1
    13    13    24    1
    14    11    25    1
    15    25    26    1
    16    23    27    1
    17     8    28    1
    18    14    15   ar
    19    15    16   ar
    20    16    18   ar
    21    18    19   ar
    22    19    20   ar
    23    20    14   ar
    24     1     2   ar
    25     2     3   ar
    26     3     4   ar
    27     4     5   ar
    28     5     6   ar
    29     6     1   ar
