@<TRIPOS>MOLECULE
No_1593-gen_results/8p0m/2024-11-26-14-13-15/
 20 21 0 0 0
SMALL
GASTEIGER

@<TRIPOS>ATOM
      1 C         -28.0162   -0.8135   28.8779 C.ar    1  UNL1        0.0023
      2 C         -27.0636   -0.1190   28.6079 C.ar    1  UNL1       -0.0212
      3 C         -26.9287    1.1713   29.0083 C.ar    1  UNL1       -0.0042
      4 C         -27.9560    1.7411   29.7840 C.ar    1  UNL1       -0.0001
      5 C         -29.0569   -0.3271   29.7466 C.ar    1  UNL1        0.0795
      6 C         -28.9828    0.9722   30.1516 C.ar    1  UNL1        0.0066
      7 C         -25.8907   -0.6263   27.7857 C.3     1  UNL1        0.0391
      8 C         -24.7182   -1.0610   28.6129 C.3     1  UNL1        0.0972
      9 C         -23.5950   -0.2827   28.8125 C.ar    1  UNL1       -0.0142
     10 C         -23.4356    1.0607   28.2949 C.ar    1  UNL1       -0.0038
     11 C         -22.1708    1.6917   28.3753 C.ar    1  UNL1       -0.0003
     12 C         -21.0787    0.9144   28.6906 C.ar    1  UNL1       -0.0000
     13 C         -21.1396   -0.4062   29.0915 C.ar    1  UNL1       -0.0003
     14 C         -22.4251   -1.0078   29.1175 C.ar    1  UNL1       -0.0038
     15 C         -24.9149   -2.2110   29.4225 C.2     1  UNL1        0.2229
     16 N         -25.5300   -2.2958   30.5301 N.2     1  UNL1       -0.1202
     17 F         -24.4920   -3.2929   28.9312 F       1  UNL1       -0.1860
     18 C         -30.1965   -1.2031   30.1136 C.2     1  UNL1        0.3877
     19 O         -30.2656   -1.9526   30.9642 O.co2   1  UNL1       -0.2406
     20 O         -31.1026   -1.3350   29.0447 O.co2   1  UNL1       -0.2406
@<TRIPOS>BOND
     1     2     7    1
     2     7     8    1
     3     8    15    1
     4    15    16    2
     5    15    17    1
     6     5    18    1
     7    18    19   ar
     8    18    20   ar
     9     8     9    1
    10     1     2   ar
    11     2     3   ar
    12     3     4   ar
    13     4     6   ar
    14     6     5   ar
    15     5     1   ar
    16     9    10   ar
    17    10    11   ar
    18    11    12   ar
    19    12    13   ar
    20    13    14   ar
    21    14     9   ar
