@<TRIPOS>MOLECULE
No_1594-gen_results/8p0m/2024-11-26-14-13-15/
 16 17 0 0 0
SMALL
GASTEIGER

@<TRIPOS>ATOM
      1 C         -28.0162   -0.8135   28.8779 C.ar    1  UNL1        0.0022
      2 C         -28.4690   -0.7850   29.8287 C.ar    1  UNL1        0.0001
      3 C         -27.0871    0.2903   28.6377 C.ar    1  UNL1        0.0275
      4 C         -26.2516    0.4114   27.4223 C.2     1  UNL1        0.0022
      5 C         -28.3913    0.1041   30.9805 C.ar    1  UNL1        0.0023
      6 C         -27.5332    1.1666   30.7866 C.ar    1  UNL1        0.0296
      7 C         -26.8281    1.2557   29.6454 C.ar    1  UNL1        0.1401
      8 C         -25.1384    0.6747   27.2308 C.2     1  UNL1       -0.0001
      9 C         -24.3157    0.8667   28.4419 C.ar    1  UNL1       -0.0009
     10 C         -23.3531    0.3541   28.6369 C.ar    1  UNL1        0.0204
     11 C         -22.3334    0.6859   29.7210 C.ar    1  UNL1        0.0989
     12 N         -22.9868    1.5060   30.5871 N.ar    1  UNL1       -0.2426
     13 C         -24.1579    2.1293   30.4617 C.ar    1  UNL1        0.0946
     14 C         -24.8693    1.8798   29.3802 C.ar    1  UNL1       -0.0027
     15 F         -26.2141    1.5740   29.6373 F       1  UNL1       -0.2042
     16 C         -24.9885    3.2297   28.5662 C.3     1  UNL1        0.0327
@<TRIPOS>BOND
     1     3     4    1
     2     4     8    2
     3     8     9    1
     4     7    15    1
     5    14    16    1
     6     9    10   ar
     7    10    11   ar
     8    11    12   ar
     9    12    13   ar
    10    13    14   ar
    11    14     9   ar
    12     1     2   ar
    13     2     5   ar
    14     5     6   ar
    15     6     7   ar
    16     7     3   ar
    17     3     1   ar
