@<TRIPOS>MOLECULE
No_1595-gen_results/8p0m/2024-11-26-14-13-15/
 27 30 0 0 0
SMALL
GASTEIGER

@<TRIPOS>ATOM
      1 C         -28.0162   -0.8135   28.8779 C.ar    1  UNL1        0.0066
      2 C         -27.0636   -0.1189   28.6079 C.ar    1  UNL1        0.0003
      3 C         -27.0010    0.6913   27.4910 C.ar    1  UNL1       -0.0000
      4 C         -25.7770    1.0214   26.9135 C.ar    1  UNL1       -0.0002
      5 C         -24.5088    0.7364   27.5686 C.ar    1  UNL1       -0.0010
      6 C         -24.5930   -0.0361   28.7390 C.ar    1  UNL1        0.0189
      7 C         -25.8114   -0.4771   29.1584 C.ar    1  UNL1        0.0015
      8 C         -28.1069   -1.4831   30.2046 C.ar    1  UNL1        0.0798
      9 C         -29.3401   -2.1557   30.6205 C.2     1  UNL1        0.3878
     10 C         -26.9104   -1.7118   30.9836 C.ar    1  UNL1        0.0066
     11 C         -25.7320   -1.2708   30.3891 C.ar    1  UNL1        0.0003
     12 O         -29.7861   -1.8839   31.7652 O.co2   1  UNL1       -0.2406
     13 O         -29.7108   -3.1755   30.0466 O.co2   1  UNL1       -0.2406
     14 C         -23.2544    1.3389   27.0780 C.ar    1  UNL1       -0.0027
     15 C         -23.2109    2.0890   25.9010 C.3     1  UNL1        0.0327
     16 C         -22.1032    1.3190   27.9212 C.ar    1  UNL1        0.0946
     17 N         -21.9960    0.8486   29.0784 N.ar    1  UNL1       -0.2426
     18 C         -23.1946    0.0291   29.4627 C.ar    1  UNL1        0.0988
     19 C         -28.2360    1.0317   26.7561 C.ar    1  UNL1       -0.0000
     20 C         -28.2336    1.4053   25.5458 C.ar    1  UNL1       -0.0000
     21 C         -29.3527    1.9263   25.0393 C.ar    1  UNL1       -0.0000
     22 C         -30.5607    1.9921   25.7029 C.ar    1  UNL1       -0.0000
     23 C         -30.5427    1.5354   27.0105 C.ar    1  UNL1       -0.0003
     24 C         -29.4154    1.1753   27.6089 C.ar    1  UNL1       -0.0000
     25 C         -31.8435    1.6564   27.7698 C.2     1  UNL1       -0.0046
     26 C         -32.6398    0.9781   28.0202 C.2     1  UNL1       -0.0258
     27 C         -33.8256    1.1469   28.8732 C.3     1  UNL1        0.0307
@<TRIPOS>BOND
     1     8     9    1
     2     9    12   ar
     3     9    13   ar
     4     3    19    1
     5    23    25    1
     6    25    26    2
     7    26    27    1
     8    15    14    1
     9     6    18   ar
    10    18    17   ar
    11    17    16   ar
    12    16    14   ar
    13    14     5   ar
    14     2     3   ar
    15     3     4   ar
    16     4     5   ar
    17     5     6   ar
    18     6     7   ar
    19    19    20   ar
    20    20    21   ar
    21    21    22   ar
    22    22    23   ar
    23    23    24   ar
    24    24    19   ar
    25     1     2   ar
    26     2     7   ar
    27     7    11   ar
    28    11    10   ar
    29    10     8   ar
    30     8     1   ar
