@<TRIPOS>MOLECULE
No_1596-gen_results/8p0m/2024-11-26-14-13-15/
 24 26 0 0 0
SMALL
GASTEIGER

@<TRIPOS>ATOM
      1 C         -28.0162   -0.8135   28.8779 C.ar    1  UNL1        0.0066
      2 C         -27.0636   -0.1189   28.6079 C.ar    1  UNL1        0.0002
      3 C         -25.7923   -0.4302   29.0761 C.ar    1  UNL1       -0.0002
      4 C         -24.5456    0.3494   28.8225 C.ar    1  UNL1       -0.0004
      5 C         -23.2409    0.0217   29.3323 C.ar    1  UNL1       -0.0001
      6 C         -27.8820   -1.8995   29.8633 C.ar    1  UNL1        0.0798
      7 C         -26.6706   -2.3272   30.3212 C.ar    1  UNL1        0.0066
      8 C         -25.5433   -1.5852   29.9316 C.ar    1  UNL1        0.0002
      9 C         -22.1884    0.8224   28.9928 C.ar    1  UNL1        0.0031
     10 C         -22.1616    1.7773   28.0238 C.ar    1  UNL1        0.0366
     11 C         -24.5484    1.3977   27.8309 C.ar    1  UNL1        0.0219
     12 C         -23.3870    2.0761   27.4709 C.ar    1  UNL1        0.1352
     13 C         -29.0677   -2.7194   30.2969 C.2     1  UNL1        0.3878
     14 O         -28.9704   -3.9227   30.3116 O.co2   1  UNL1       -0.2406
     15 O         -30.1300   -2.1346   30.6658 O.co2   1  UNL1       -0.2406
     16 O         -23.5167    3.0347   26.5168 O.3     1  UNL1       -0.4747
     17 C         -24.7278    2.8661   25.7828 C.3     1  UNL1        0.2170
     18 C         -25.5315    1.7119   26.8805 C.3     1  UNL1        0.0953
     19 C         -26.6248    2.6267   27.5568 C.2     1  UNL1       -0.0198
     20 C         -26.0732    0.7185   25.9856 C.2     1  UNL1       -0.0335
     21 C         -26.9334    3.8613   27.0282 C.2     1  UNL1       -0.0296
     22 C         -27.8953    4.6388   27.7045 C.3     1  UNL1        0.0304
     23 C         -27.2518    0.9214   25.3097 C.2     1  UNL1       -0.0084
     24 C         -25.2791   -0.4027   25.6671 C.3     1  UNL1        0.0271
@<TRIPOS>BOND
     1     3     4    1
     2     6    13    1
     3    13    14   ar
     4    13    15   ar
     5    12    16    1
     6    16    17    1
     7    11    18    1
     8    17    18    1
     9    18    19    1
    10    18    20    1
    11    19    21    2
    12    21    22    1
    13    20    23    2
    14    20    24    1
    15     1     2   ar
    16     2     3   ar
    17     3     8   ar
    18     8     7   ar
    19     7     6   ar
    20     6     1   ar
    21     4     5   ar
    22     5     9   ar
    23     9    10   ar
    24    10    12   ar
    25    12    11   ar
    26    11     4   ar
