@<TRIPOS>MOLECULE
No_1597-gen_results/8p0m/2024-11-26-14-13-15/
 8 8 0 0 0
SMALL
GASTEIGER

@<TRIPOS>ATOM
      1 C         -28.0162   -0.8135   28.8779 C.ar    1  UNL1        0.0422
      2 C         -28.4690   -0.7850   29.8287 C.2     1  UNL1        0.2342
      3 C         -28.1960    0.3478   28.0550 C.ar    1  UNL1        0.0033
      4 C         -27.4421    0.5100   26.7947 C.ar    1  UNL1        0.0001
      5 C         -26.1689   -0.0794   26.6787 C.ar    1  UNL1        0.0000
      6 C         -25.7312   -0.9607   27.6875 C.ar    1  UNL1        0.0001
      7 C         -26.5043   -1.2222   28.7582 C.ar    1  UNL1        0.0033
      8 O         -29.5908   -0.4750   30.0982 O.2     1  UNL1       -0.2831
@<TRIPOS>BOND
     1     2     8    2
     2     2     1    1
     3     1     3   ar
     4     3     4   ar
     5     4     5   ar
     6     5     6   ar
     7     6     7   ar
     8     7     1   ar
