@<TRIPOS>MOLECULE
No_1598-gen_results/8p0m/2024-11-26-14-13-15/
 8 8 0 0 0
SMALL
GASTEIGER

@<TRIPOS>ATOM
      1 C         -28.0162   -0.8135   28.8779 C.ar    1  UNL1        0.0103
      2 C         -28.4690   -0.7850   29.8287 C.ar    1  UNL1        0.0007
      3 C         -27.1356    0.2359   28.5352 C.ar    1  UNL1        0.0684
      4 C         -26.3351    0.2900   27.2835 C.1     1  UNL1        0.1004
      5 C         -28.3692    0.1957   30.9236 C.ar    1  UNL1        0.0000
      6 C         -27.5158    1.2655   30.6540 C.ar    1  UNL1        0.0007
      7 C         -26.8411    1.2942   29.4761 C.ar    1  UNL1        0.0103
      8 N         -25.3573    0.4804   26.9832 N.1     1  UNL1       -0.1908
@<TRIPOS>BOND
     1     3     4    1
     2     4     8    3
     3     1     2   ar
     4     2     5   ar
     5     5     6   ar
     6     6     7   ar
     7     7     3   ar
     8     3     1   ar
