@<TRIPOS>MOLECULE
No_1599-gen_results/8p0m/2024-11-26-14-13-15/
 35 37 0 0 0
SMALL
GASTEIGER

@<TRIPOS>ATOM
      1 C         -28.0162   -0.8135   28.8779 C.ar    1  UNL1        0.1410
      2 C         -27.0636   -0.1189   28.6079 C.ar    1  UNL1        0.0364
      3 C         -26.9716    0.7139   27.5060 C.ar    1  UNL1        0.0350
      4 C         -28.1053    0.7744   26.6421 C.ar    1  UNL1        0.1676
      5 C         -29.2008    0.1044   27.0527 C.ar    1  UNL1        0.1704
      6 C         -29.2096   -0.6029   28.1853 C.ar    1  UNL1        0.0688
      7 F         -30.2808    0.2156   26.2913 F       1  UNL1       -0.2017
      8 C         -25.7162   -0.2143   29.4079 C.ar    1  UNL1        0.0030
      9 C         -25.4115   -1.0242   30.0565 C.ar    1  UNL1        0.0001
     10 C         -24.1408   -1.1410   30.8368 C.ar    1  UNL1        0.0000
     11 C         -23.1947   -0.1347   30.6608 C.ar    1  UNL1        0.0000
     12 C         -23.5357    0.9137   29.7572 C.ar    1  UNL1        0.0000
     13 C         -24.8090    0.9435   29.0845 C.ar    1  UNL1        0.0001
     14 F         -27.8755    1.4900   25.5598 F       1  UNL1       -0.2018
     15 O         -28.0941   -1.5601   30.0254 O.3     1  UNL1       -0.4720
     16 C         -28.3551   -2.9225   29.8680 C.3     1  UNL1        0.2497
     17 C         -28.5787   -3.5406   31.2716 C.3     1  UNL1        0.2927
     18 C         -29.4775   -2.7899   32.0419 C.2     1  UNL1        0.3520
     19 O         -29.6415   -3.3437   33.1072 O.2     1  UNL1       -0.2471
     20 O         -29.0422   -4.8522   30.9535 O.3     1  UNL1       -0.2070
     21 O         -29.5415   -1.5712   31.9346 O.3     1  UNL1       -0.4417
     22 C         -30.4758   -0.8752   32.8015 C.3     1  UNL1        0.2351
     23 C         -31.0255    0.2860   32.2148 C.ar    1  UNL1        0.0210
     24 C         -32.2018    0.3428   32.0790 C.ar    1  UNL1       -0.0007
     25 C         -30.1252    1.3416   31.7307 C.ar    1  UNL1       -0.0046
     26 C         -30.6394    2.3915   30.9333 C.ar    1  UNL1       -0.0180
     27 C         -32.8492    1.4876   31.2846 C.ar    1  UNL1       -0.0005
     28 C         -32.0120    2.4921   30.8060 C.ar    1  UNL1       -0.0040
     29 C         -29.7356    3.4384   30.4524 C.3     1  UNL1        0.0523
     30 C         -29.2646    3.2413   29.1559 C.2     1  UNL1       -0.0214
     31 C         -28.0748    4.0180   28.8009 C.2     1  UNL1       -0.0042
     32 C         -27.5925    3.9955   27.4704 C.2     1  UNL1       -0.0003
     33 C         -26.3949    4.7070   27.2738 C.2     1  UNL1       -0.0000
     34 C         -25.6777    5.3360   28.3058 C.2     1  UNL1       -0.0000
     35 C         -26.2062    5.2763   29.5887 C.2     1  UNL1       -0.0000
@<TRIPOS>BOND
     1     5     7    1
     2     2     8    1
     3     4    14    1
     4     1    15    1
     5    15    16    1
     6    16    17    1
     7    17    18    1
     8    18    19    2
     9    17    20    1
    10    18    21    1
    11    21    22    1
    12    22    23    1
    13    26    29    1
    14    29    30    1
    15    30    31    2
    16    31    32    1
    17    32    33    2
    18    33    34    1
    19    34    35    2
    20     1     2   ar
    21     2     3   ar
    22     3     4   ar
    23     4     5   ar
    24     5     6   ar
    25     6     1   ar
    26    23    24   ar
    27    24    27   ar
    28    27    28   ar
    29    28    26   ar
    30    26    25   ar
    31    25    23   ar
    32     8     9   ar
    33     9    10   ar
    34    10    11   ar
    35    11    12   ar
    36    12    13   ar
    37    13     8   ar
