@<TRIPOS>MOLECULE
No_16-gen_results/8p0m/2024-11-26-14-13-15/
 21 23 0 0 0
SMALL
GASTEIGER

@<TRIPOS>ATOM
      1 C         -28.0162   -0.8135   28.8779 C.ar    1  UNL1       -0.0000
      2 C         -27.0636   -0.1189   28.6079 C.ar    1  UNL1       -0.0003
      3 C         -25.7923   -0.4302   29.0761 C.ar    1  UNL1       -0.0000
      4 C         -25.5756   -1.5654   29.9363 C.ar    1  UNL1       -0.0000
      5 C         -26.7354   -2.3004   30.2173 C.ar    1  UNL1       -0.0000
      6 C         -27.9184   -1.9537   29.7629 C.ar    1  UNL1       -0.0000
      7 C         -27.1057    1.1023   27.7593 C.ar    1  UNL1       -0.0032
      8 C         -26.7157    2.2350   27.9945 C.ar    1  UNL1       -0.0095
      9 C         -27.6806    0.8547   26.4259 C.ar    1  UNL1       -0.0003
     10 C         -26.0318    2.5935   29.1910 C.3     1  UNL1        0.1271
     11 C         -26.8615    3.3798   27.0755 C.ar    1  UNL1       -0.0035
     12 C         -27.4568    3.2690   25.8921 C.ar    1  UNL1       -0.0003
     13 C         -27.8759    1.9029   25.5140 C.ar    1  UNL1       -0.0000
     14 C         -26.5116    2.7363   30.4957 C.ar    1  UNL1        0.0702
     15 C         -24.5033    2.6259   29.1215 C.2     1  UNL1        0.2173
     16 N         -27.6870    3.0701   30.6499 N.ar    1  UNL1       -0.2474
     17 C         -25.6757    2.5042   31.6572 C.ar    1  UNL1        0.0155
     18 C         -28.4487    3.1250   31.4484 C.ar    1  UNL1        0.0985
     19 C         -26.4685    2.5922   32.9354 C.ar    1  UNL1        0.0028
     20 C         -27.8233    2.9598   32.8713 C.ar    1  UNL1        0.0207
     21 O         -23.7489    1.8267   29.6905 O.2     1  UNL1       -0.2875
@<TRIPOS>BOND
     1     2     7    1
     2     8    10    1
     3    10    14    1
     4    10    15    1
     5    15    21    2
     6     1     2   ar
     7     2     3   ar
     8     3     4   ar
     9     4     5   ar
    10     5     6   ar
    11     6     1   ar
    12     7     8   ar
    13     8    11   ar
    14    11    12   ar
    15    12    13   ar
    16    13     9   ar
    17     9     7   ar
    18    14    16   ar
    19    16    18   ar
    20    18    20   ar
    21    20    19   ar
    22    19    17   ar
    23    17    14   ar
