@<TRIPOS>MOLECULE
No_160-gen_results/8p0m/2024-11-26-14-13-15/
 31 34 0 0 0
SMALL
GASTEIGER

@<TRIPOS>ATOM
      1 C         -28.0162   -0.8135   28.8779 C.ar    1  UNL1        0.0006
      2 C         -28.4690   -0.7850   29.8287 C.ar    1  UNL1        0.0551
      3 C         -26.5042   -0.7777   28.8766 C.ar    1  UNL1       -0.0176
      4 C         -25.6540   -0.6597   27.7191 C.3     1  UNL1        0.0526
      5 C         -27.9180   -0.9374   31.1824 C.ar    1  UNL1        0.0046
      6 C         -26.5423   -0.9399   31.2606 C.ar    1  UNL1       -0.0002
      7 C         -25.7832   -0.8935   30.1201 C.ar    1  UNL1       -0.0039
      8 C         -25.9259    0.2819   26.7445 C.2     1  UNL1       -0.0181
      9 C         -24.9904    0.6776   25.8676 C.2     1  UNL1       -0.0043
     10 C         -24.1885    1.6080   25.8479 C.2     1  UNL1       -0.0041
     11 C         -24.1204    2.5824   26.9652 C.2     1  UNL1       -0.0130
     12 C         -25.3103    3.1437   27.3183 C.3     1  UNL1        0.1205
     13 C         -25.2237    4.2649   28.2576 C.2     1  UNL1        0.2334
     14 C         -27.1040    1.1214   26.9408 C.2     1  UNL1       -0.0077
     15 C         -26.9946    2.4813   26.6463 C.2     1  UNL1       -0.0133
     16 N         -25.5501    4.0052   29.5221 N.am    1  UNL1       -0.2790
     17 C         -25.4545    2.8726   30.1101 C.3     1  UNL1        0.0934
     18 C         -25.7150    2.8246   31.6172 C.3     1  UNL1        0.0216
     19 C         -25.3597    3.8432   32.2198 C.3     1  UNL1        0.0035
     20 C         -25.3172    5.1792   31.6437 C.3     1  UNL1        0.0216
     21 C         -25.5617    5.2469   30.3289 C.3     1  UNL1        0.0934
     22 O         -25.1461    5.3839   27.7200 O.2     1  UNL1       -0.2742
     23 C         -30.0562   -0.7781   29.8896 C.2     1  UNL1        0.2690
     24 O         -30.6658   -0.0760   29.1921 O.2     1  UNL1       -0.2680
     25 N         -30.6923   -1.3614   30.9721 N.am    1  UNL1       -0.1754
     26 C         -32.1155   -1.3904   31.0398 C.ar    1  UNL1        0.0737
     27 C         -32.9080   -0.7811   30.6488 C.ar    1  UNL1        0.0166
     28 C         -32.4115   -2.6034   31.9013 C.ar    1  UNL1        0.0166
     29 C         -34.3171   -0.9385   30.7871 C.ar    1  UNL1        0.0013
     30 C         -33.8029   -2.8096   32.1035 C.ar    1  UNL1        0.0013
     31 C         -34.7056   -1.9684   31.5823 C.ar    1  UNL1        0.0001
@<TRIPOS>BOND
     1     3     4    1
     2     4     8    1
     3     8     9    2
     4     9    10    1
     5    10    11    2
     6    11    12    1
     7    12    13    1
     8     8    14    1
     9    12    15    1
    10    14    15    2
    11    13    16   am
    12    16    17    1
    13    17    18    1
    14    19    20    1
    15    16    21    1
    16    13    22    2
    17     2    23    1
    18    23    24    2
    19    23    25   am
    20    25    26    1
    21    18    19    1
    22    20    21    1
    23    26    27   ar
    24    27    29   ar
    25    29    31   ar
    26    31    30   ar
    27    30    28   ar
    28    28    26   ar
    29     1     2   ar
    30     2     5   ar
    31     5     6   ar
    32     6     7   ar
    33     7     3   ar
    34     3     1   ar
