@<TRIPOS>MOLECULE
No_1600-gen_results/8p0m/2024-11-26-14-13-15/
 15 17 0 0 0
SMALL
GASTEIGER

@<TRIPOS>ATOM
      1 O         -28.1229   -1.3353   28.4874 O.3     1  UNL1       -0.2652
      2 C         -27.0637   -0.8242   28.8687 C.ar    1  UNL1        0.2792
      3 C         -27.0246    0.1877   29.7358 C.ar    1  UNL1        0.0579
      4 N         -25.8012   -1.1094   28.2407 N.ar    1  UNL1       -0.2063
      5 C         -27.9472    0.7540   30.3236 C.ar    1  UNL1        0.0048
      6 C         -24.5681   -0.6395   28.5844 C.ar    1  UNL1        0.1022
      7 C         -24.5154    0.3631   29.4637 C.ar    1  UNL1        0.0209
      8 C         -25.6202    0.8010   30.0710 C.ar    1  UNL1        0.0062
      9 C         -28.1778    1.8830   30.6687 C.ar    1  UNL1        0.0002
     10 C         -29.3867    2.4588   31.2381 C.ar    1  UNL1        0.0000
     11 C         -29.5166    3.7843   31.6718 C.ar    1  UNL1        0.0000
     12 C         -28.3768    4.6119   31.5556 C.ar    1  UNL1        0.0000
     13 C         -27.1700    4.1338   31.0513 C.ar    1  UNL1        0.0000
     14 C         -27.0448    2.8135   30.6461 C.ar    1  UNL1        0.0000
     15 C         -25.7217    2.2750   30.2808 C.ar    1  UNL1        0.0002
@<TRIPOS>BOND
     1     1     2    1
     2     9    10   ar
     3    10    11   ar
     4    11    12   ar
     5    12    13   ar
     6    13    14   ar
     7     2     3   ar
     8     8     7   ar
     9     7     6   ar
    10     6     4   ar
    11     4     2   ar
    12     3     5   ar
    13     5     9   ar
    14     9    14   ar
    15    14    15   ar
    16    15     8   ar
    17     8     3   ar
