@<TRIPOS>MOLECULE
No_1601-gen_results/8p0m/2024-11-26-14-13-15/
 15 16 0 0 0
SMALL
GASTEIGER

@<TRIPOS>ATOM
      1 C         -28.0162   -0.8135   28.8779 C.ar    1  UNL1        0.0000
      2 C         -27.0636   -0.1189   28.6079 C.ar    1  UNL1        0.0000
      3 C         -26.8756    1.1325   28.9134 C.ar    1  UNL1        0.0001
      4 C         -25.6883    1.9515   28.5672 C.ar    1  UNL1        0.0017
      5 C         -24.6394    1.2834   27.8753 C.ar    1  UNL1        0.0240
      6 C         -24.8181   -0.0802   27.6166 C.ar    1  UNL1        0.0017
      7 C         -25.9311   -0.7717   27.9696 C.ar    1  UNL1        0.0001
      8 C         -29.2131   -0.1256   29.1389 C.ar    1  UNL1        0.0000
      9 C         -29.1918    1.2213   29.4301 C.ar    1  UNL1        0.0000
     10 C         -28.0316    1.9206   29.1930 C.ar    1  UNL1        0.0000
     11 C         -23.3528    1.8758   27.5838 C.2     1  UNL1        0.1592
     12 N         -22.9346    2.5922   26.8039 N.2     1  UNL1       -0.1431
     13 C         -22.2474    1.5616   28.6357 C.2     1  UNL1        0.3037
     14 N         -22.4725    0.7703   29.6586 N.am    1  UNL1       -0.0823
     15 O         -21.0834    2.0071   28.3634 O.2     1  UNL1       -0.2649
@<TRIPOS>BOND
     1     5    11    1
     2    11    12    2
     3    11    13    1
     4    13    14   am
     5    13    15    2
     6     3     4   ar
     7     4     5   ar
     8     5     6   ar
     9     6     7   ar
    10     7     2   ar
    11     1     2   ar
    12     2     3   ar
    13     3    10   ar
    14    10     9   ar
    15     9     8   ar
    16     8     1   ar
