@<TRIPOS>MOLECULE
No_1602-gen_results/8p0m/2024-11-26-14-13-15/
 26 26 0 0 0
SMALL
GASTEIGER

@<TRIPOS>ATOM
      1 C         -28.0162   -0.8135   28.8779 C.2     1  UNL1        0.0062
      2 C         -27.0636   -0.1189   28.6079 C.2     1  UNL1       -0.0412
      3 C         -25.7647   -0.3897   29.0360 C.3     1  UNL1        0.0486
      4 C         -24.5516    0.4058   28.7646 C.3     1  UNL1        0.0192
      5 C         -24.6957    1.4480   27.7988 C.3     1  UNL1        0.0922
      6 C         -25.9755    1.7250   27.3077 C.3     1  UNL1        0.0145
      7 C         -27.0718    1.0134   27.6535 C.3     1  UNL1        0.0226
      8 C         -29.2099   -0.0501   29.3493 C.3     1  UNL1        0.2400
      9 C         -30.3469   -0.8660   29.6614 C.2     1  UNL1        0.3956
     10 C         -23.4932    2.1959   27.4902 C.2     1  UNL1        0.3101
     11 O         -22.3357    1.8372   27.8234 O.2     1  UNL1       -0.2591
     12 F         -23.6487    3.3679   27.0336 F       1  UNL1       -0.1636
     13 O         -31.1091   -0.4995   30.6470 O.co2   1  UNL1       -0.2426
     14 O         -30.7534   -1.8634   29.0799 O.co2   1  UNL1       -0.2426
     15 O         -28.8508    0.7263   30.4311 O.3     1  UNL1       -0.3363
     16 C         -25.4578   -1.5078   29.9684 C.2     1  UNL1        0.0233
     17 C         -25.6111   -1.4425   31.0260 C.2     1  UNL1        0.0045
     18 C         -25.1413   -2.7233   29.2175 C.1     1  UNL1       -0.0593
     19 C         -25.1754   -3.6958   28.9215 C.1     1  UNL1        0.0003
     20 C         -25.0495   -5.1064   28.8684 C.2     1  UNL1        0.3278
     21 N         -23.9031   -5.5065   28.4554 N.am    1  UNL1       -0.0759
     22 O         -26.0197   -5.8492   29.0718 O.2     1  UNL1       -0.2571
     23 C         -28.6408    2.0960   30.3007 C.3     1  UNL1        0.1691
     24 C         -29.1333    2.7999   31.4032 C.2     1  UNL1        0.0011
     25 C         -29.1514    2.5024   32.5635 C.2     1  UNL1       -0.0279
     26 C         -29.6767    3.2571   33.6750 C.3     1  UNL1        0.0304
@<TRIPOS>BOND
     1     1     2    2
     2     2     3    1
     3     3     4    1
     4     4     5    1
     5     5     6    1
     6     2     7    1
     7     6     7    1
     8     1     8    1
     9     8     9    1
    10     5    10    1
    11    10    11    2
    12    10    12    1
    13     9    13   ar
    14     9    14   ar
    15     8    15    1
    16     3    16    1
    17    16    17    2
    18    16    18    1
    19    18    19    3
    20    19    20    1
    21    20    21   am
    22    20    22    2
    23    15    23    1
    24    23    24    1
    25    24    25    2
    26    25    26    1
