@<TRIPOS>MOLECULE
No_1603-gen_results/8p0m/2024-11-26-14-13-15/
 16 17 0 0 0
SMALL
GASTEIGER

@<TRIPOS>ATOM
      1 C         -28.0162   -0.8135   28.8779 C.ar    1  UNL1        0.0077
      2 C         -28.4690   -0.7850   29.8287 C.ar    1  UNL1        0.0003
      3 C         -27.1356    0.2359   28.5352 C.ar    1  UNL1        0.0884
      4 C         -26.3351    0.2900   27.2835 C.2     1  UNL1        0.3756
      5 C         -28.3692    0.1957   30.9236 C.ar    1  UNL1        0.0000
      6 C         -27.5158    1.2655   30.6540 C.ar    1  UNL1        0.0003
      7 C         -26.8411    1.2942   29.4761 C.ar    1  UNL1        0.0077
      8 N         -25.3573    0.4805   26.9831 N.2     1  UNL1       -0.0344
      9 N         -27.2233    0.1766   26.0950 N.2     1  UNL1       -0.0263
     10 C         -24.2153    0.6452   27.8852 C.ar    1  UNL1        0.1935
     11 C         -23.2446    1.6753   27.7199 C.ar    1  UNL1        0.0466
     12 C         -22.3370    1.9525   28.7274 C.ar    1  UNL1        0.0038
     13 C         -23.9904   -0.1061   29.1090 C.ar    1  UNL1        0.0466
     14 C         -22.9986    0.0655   30.0081 C.ar    1  UNL1        0.0038
     15 C         -22.1456    1.2015   29.7608 C.ar    1  UNL1        0.0002
     16 C         -26.3713    0.2495   25.0528 C.2     1  UNL1        0.2862
@<TRIPOS>BOND
     1     3     4    1
     2     4     8    2
     3     4     9    1
     4     8    10    1
     5     9    16    2
     6     1     2   ar
     7     2     5   ar
     8     5     6   ar
     9     6     7   ar
    10     7     3   ar
    11     3     1   ar
    12    10    11   ar
    13    11    12   ar
    14    12    15   ar
    15    15    14   ar
    16    14    13   ar
    17    13    10   ar
