@<TRIPOS>MOLECULE
No_1605-gen_results/8p0m/2024-11-26-14-13-15/
 29 31 0 0 0
SMALL
GASTEIGER

@<TRIPOS>ATOM
      1 O         -28.1229   -1.3353   28.4874 O.2     1  UNL1       -0.2745
      2 C         -28.5208   -0.4363   29.0779 C.2     1  UNL1        0.2301
      3 C         -27.6655    0.1129   30.0346 C.3     1  UNL1        0.1113
      4 N         -29.7419    0.1102   28.8873 N.am    1  UNL1       -0.2792
      5 C         -26.4110    0.2880   29.8706 C.ar    1  UNL1       -0.0165
      6 C         -25.5743   -0.7877   30.1070 C.ar    1  UNL1       -0.0039
      7 C         -24.2346   -0.8153   29.6722 C.ar    1  UNL1        0.0043
      8 C         -23.6545    0.4537   29.1906 C.ar    1  UNL1        0.0563
      9 C         -24.4962    1.5343   29.0589 C.ar    1  UNL1        0.0006
     10 C         -25.8195    1.4158   29.3910 C.ar    1  UNL1       -0.0143
     11 C         -30.5760   -0.4703   27.8351 C.3     1  UNL1        0.0937
     12 C         -22.2234    0.4816   28.8903 C.2     1  UNL1        0.2842
     13 N         -21.6746    1.4285   28.2007 N.am    1  UNL1       -0.0837
     14 O         -21.3981   -0.3809   29.4320 O.2     1  UNL1       -0.2667
     15 C         -30.3280    1.1857   29.6033 C.3     1  UNL1        0.0937
     16 C         -31.6175    1.5274   29.5366 C.3     1  UNL1        0.0259
     17 C         -31.9917   -0.1638   27.8000 C.3     1  UNL1        0.0259
     18 C         -32.4416    0.9072   28.5597 C.3     1  UNL1        0.0258
     19 C         -33.8713    1.2432   28.4525 C.ar    1  UNL1       -0.0216
     20 C         -34.6828    0.5381   28.8969 C.ar    1  UNL1       -0.0042
     21 C         -36.1195    0.8833   28.8058 C.ar    1  UNL1        0.0005
     22 C         -36.4400    2.0914   28.1889 C.ar    1  UNL1        0.0114
     23 C         -35.4431    2.8832   27.7128 C.ar    1  UNL1        0.0574
     24 C         -34.0566    2.5424   27.8419 C.ar    1  UNL1        0.0071
     25 CL        -35.7926    4.4107   27.0099 Cl      1  UNL1       -0.0823
     26 C         -26.6506    2.6682   29.1886 C.3     1  UNL1        0.1401
     27 C         -25.9729    3.7905   28.8177 C.2     1  UNL1        0.3692
     28 O         -26.0321    4.7715   29.5018 O.co2   1  UNL1       -0.2453
     29 O         -25.3820    3.7932   27.6689 O.co2   1  UNL1       -0.2453
@<TRIPOS>BOND
     1     1     2    2
     2     2     3    1
     3     2     4   am
     4     3     5    1
     5     4    11    1
     6     8    12    1
     7    12    13   am
     8    12    14    2
     9     4    15    1
    10    16    18    1
    11    17    18    1
    12    18    19    1
    13    23    25    1
    14    10    26    1
    15    26    27    1
    16    27    28   ar
    17    27    29   ar
    18    11    17    1
    19    16    15    1
    20     5     6   ar
    21     6     7   ar
    22     7     8   ar
    23     8     9   ar
    24     9    10   ar
    25    10     5   ar
    26    19    20   ar
    27    20    21   ar
    28    21    22   ar
    29    22    23   ar
    30    23    24   ar
    31    24    19   ar
