@<TRIPOS>MOLECULE
No_1606-gen_results/8p0m/2024-11-26-14-13-15/
 13 13 0 0 0
SMALL
GASTEIGER

@<TRIPOS>ATOM
      1 C         -28.0162   -0.8135   28.8779 C.3     1  UNL1        0.1297
      2 C         -27.0636   -0.1190   28.6079 C.ar    1  UNL1       -0.0137
      3 C         -26.9287    1.1713   29.0083 C.ar    1  UNL1       -0.0033
      4 C         -25.7702    2.0341   28.6884 C.ar    1  UNL1        0.0100
      5 C         -24.7141    1.4431   27.9188 C.ar    1  UNL1        0.0684
      6 C         -24.8590    0.0783   27.5836 C.ar    1  UNL1        0.0100
      7 C         -25.9647   -0.6606   27.9164 C.ar    1  UNL1       -0.0033
      8 C         -28.0422   -1.5426   30.2417 C.3     1  UNL1        0.4017
      9 F         -26.9582   -1.9082   30.5842 F       1  UNL1       -0.1697
     10 F         -28.4692   -0.7150   31.2282 F       1  UNL1       -0.1697
     11 F         -28.8909   -2.6188   30.2313 F       1  UNL1       -0.1697
     12 C         -23.5209    2.1541   27.5677 C.1     1  UNL1        0.1004
     13 N         -23.1315    2.8611   26.9151 N.1     1  UNL1       -0.1908
@<TRIPOS>BOND
     1     1     2    1
     2     1     8    1
     3     8     9    1
     4     8    10    1
     5     8    11    1
     6     5    12    1
     7    12    13    3
     8     2     3   ar
     9     3     4   ar
    10     4     5   ar
    11     5     6   ar
    12     6     7   ar
    13     7     2   ar
