@<TRIPOS>MOLECULE
No_1607-gen_results/8p0m/2024-11-26-14-13-15/
 9 9 0 0 0
SMALL
GASTEIGER

@<TRIPOS>ATOM
      1 C         -28.0162   -0.8135   28.8779 C.2     1  UNL1        0.2709
      2 C         -27.0636   -0.1189   28.6079 C.2     1  UNL1        0.0116
      3 C         -26.8756    1.1325   28.9134 C.3     1  UNL1        0.0267
      4 C         -25.6883    1.9515   28.5672 C.3     1  UNL1        0.0045
      5 C         -24.6394    1.2834   27.8753 C.3     1  UNL1        0.0007
      6 C         -24.8068   -0.0513   27.6040 C.3     1  UNL1        0.0045
      7 C         -25.9019   -0.7670   27.9511 C.3     1  UNL1        0.0267
      8 F         -29.0849   -0.4064   28.3813 F       1  UNL1       -0.1727
      9 F         -27.8411   -2.1458   28.6481 F       1  UNL1       -0.1727
@<TRIPOS>BOND
     1     1     2    2
     2     2     3    1
     3     3     4    1
     4     4     5    1
     5     5     6    1
     6     2     7    1
     7     6     7    1
     8     1     8    1
     9     1     9    1
