@<TRIPOS>MOLECULE
No_1608-gen_results/8p0m/2024-11-26-14-13-15/
 7 7 0 0 0
SMALL
GASTEIGER

@<TRIPOS>ATOM
      1 C         -28.0162   -0.8135   28.8779 C.ar    1  UNL1        0.0067
      2 C         -27.0636   -0.1189   28.6079 C.ar    1  UNL1        0.0346
      3 C         -25.7923   -0.4302   29.0761 C.ar    1  UNL1        0.0067
      4 C         -25.5756   -1.5654   29.9363 C.ar    1  UNL1        0.0005
      5 C         -26.7354   -2.3004   30.2173 C.ar    1  UNL1        0.0000
      6 C         -27.9184   -1.9537   29.7629 C.ar    1  UNL1        0.0005
      7 BR        -27.1569    1.4255   27.5348 Br      1  UNL1       -0.0490
@<TRIPOS>BOND
     1     2     7    1
     2     1     2   ar
     3     2     3   ar
     4     3     4   ar
     5     4     5   ar
     6     5     6   ar
     7     6     1   ar
