@<TRIPOS>MOLECULE
No_1609-gen_results/8p0m/2024-11-26-14-13-15/
 25 26 0 0 0
SMALL
GASTEIGER

@<TRIPOS>ATOM
      1 C         -28.0162   -0.8135   28.8779 C.ar    1  UNL1       -0.0001
      2 C         -28.4690   -0.7850   29.8287 C.ar    1  UNL1       -0.0000
      3 C         -26.5455   -0.8762   28.8500 C.ar    1  UNL1        0.0036
      4 C         -25.6825   -0.7773   27.6829 C.2     1  UNL1       -0.0042
      5 C         -27.9181   -1.0034   31.1877 C.ar    1  UNL1       -0.0001
      6 C         -26.5308   -1.0794   31.2463 C.ar    1  UNL1        0.0039
      7 C         -25.7798   -1.0462   30.0905 C.ar    1  UNL1        0.0714
      8 C         -25.8976    0.2387   26.7449 C.2     1  UNL1       -0.0189
      9 C         -25.0024    0.4172   25.6959 C.3     1  UNL1        0.0311
     10 C         -27.0304    1.0599   26.8181 C.ar    1  UNL1        0.0301
     11 C         -27.3110    1.9122   25.7252 C.ar    1  UNL1        0.0027
     12 C         -28.3751    2.7353   25.8868 C.ar    1  UNL1        0.0002
     13 C         -29.2057    2.7006   26.9313 C.ar    1  UNL1        0.0031
     14 C         -28.9438    1.8553   27.9581 C.ar    1  UNL1        0.0369
     15 C         -27.8678    1.0819   27.9624 C.ar    1  UNL1        0.1388
     16 O         -27.1473    1.8319   28.8037 O.3     1  UNL1       -0.4677
     17 C         -26.6065    2.9970   28.6677 C.3     1  UNL1        0.2677
     18 C         -25.4468    3.1262   29.5494 C.2     1  UNL1        0.4040
     19 C         -27.0674    4.1049   28.0237 C.3     1  UNL1        0.0598
     20 O         -25.3802    2.7716   30.6112 O.co2   1  UNL1       -0.2416
     21 O         -24.5918    4.0260   29.1326 O.co2   1  UNL1       -0.2416
     22 C         -24.3578   -1.1261   30.1281 C.3     1  UNL1        0.4186
     23 F         -23.7624   -0.1686   29.4830 F       1  UNL1       -0.1659
     24 F         -23.8947   -0.9907   31.3975 F       1  UNL1       -0.1659
     25 F         -23.9703   -2.2794   29.6800 F       1  UNL1       -0.1659
@<TRIPOS>BOND
     1     3     4    1
     2     4     8    2
     3     8     9    1
     4     8    10    1
     5    15    16    1
     6    16    17    1
     7    17    18    1
     8    17    19    1
     9    18    20   ar
    10    18    21   ar
    11     7    22    1
    12    22    23    1
    13    22    24    1
    14    22    25    1
    15     1     2   ar
    16     2     5   ar
    17     5     6   ar
    18     6     7   ar
    19     7     3   ar
    20     3     1   ar
    21    10    11   ar
    22    11    12   ar
    23    12    13   ar
    24    13    14   ar
    25    14    15   ar
    26    15    10   ar
