@<TRIPOS>MOLECULE
No_161-gen_results/8p0m/2024-11-26-14-13-15/
 30 32 0 0 0
SMALL
GASTEIGER

@<TRIPOS>ATOM
      1 C         -28.0162   -0.8135   28.8779 C.ar    1  UNL1        0.0066
      2 C         -28.4690   -0.7850   29.8287 C.ar    1  UNL1        0.0800
      3 C         -28.1960    0.3478   28.0550 C.ar    1  UNL1        0.0004
      4 C         -29.0191    1.3501   28.3782 C.ar    1  UNL1        0.0066
      5 C         -29.4107    0.1803   30.3782 C.ar    1  UNL1        0.0132
      6 C         -29.6059    1.2495   29.6193 C.ar    1  UNL1        0.0800
      7 C         -27.4597    0.3802   26.7091 C.ar    1  UNL1        0.0000
      8 C         -27.9298    0.5836   25.6804 C.ar    1  UNL1        0.0001
      9 C         -27.1251    0.5285   24.4261 C.ar    1  UNL1        0.0000
     10 C         -26.0345    0.1369   26.7811 C.ar    1  UNL1        0.0000
     11 C         -25.1681    0.2141   25.7256 C.ar    1  UNL1        0.0000
     12 C         -25.7623    0.3526   24.5243 C.ar    1  UNL1        0.0000
     13 C         -29.3652    0.7464   25.3554 C.ar    1  UNL1        0.0030
     14 C         -30.2397    0.1672   25.8837 C.ar    1  UNL1        0.0376
     15 C         -31.6524    0.2858   25.6535 C.ar    1  UNL1        0.1490
     16 C         -29.7386    1.7812   24.4471 C.ar    1  UNL1        0.0002
     17 C         -31.0919    2.0366   24.1273 C.ar    1  UNL1        0.0031
     18 C         -32.0205    1.2982   24.7726 C.ar    1  UNL1        0.0376
     19 O         -32.6118   -0.4014   26.3202 O.3     1  UNL1       -0.4165
     20 C         -32.4422   -1.6568   26.6172 C.2     1  UNL1        0.4267
     21 C         -30.5990    2.3458   30.0413 C.2     1  UNL1        0.3878
     22 O         -31.6113    2.5933   29.3565 O.co2   1  UNL1       -0.2406
     23 O         -30.4579    2.8758   31.2672 O.co2   1  UNL1       -0.2406
     24 C         -32.5302   -1.9906   27.9909 C.2     1  UNL1        0.4625
     25 O         -31.9433   -3.0922   28.3863 O.co2   1  UNL1       -0.2332
     26 O         -32.9852   -1.1858   28.8126 O.co2   1  UNL1       -0.2332
     27 O         -32.2820   -2.4785   25.7453 O.2     1  UNL1       -0.2370
     28 C         -28.3754   -2.0269   30.8653 C.2     1  UNL1        0.3878
     29 O         -28.1775   -3.1336   30.4171 O.co2   1  UNL1       -0.2406
     30 O         -28.7665   -1.8397   32.0858 O.co2   1  UNL1       -0.2406
@<TRIPOS>BOND
     1     3     7    1
     2     8    13    1
     3    15    19    1
     4    19    20    1
     5     6    21    1
     6    21    22   ar
     7    21    23   ar
     8    20    24    1
     9    24    25   ar
    10    24    26   ar
    11    20    27    2
    12     2    28    1
    13    28    29   ar
    14    28    30   ar
    15    13    14   ar
    16    14    15   ar
    17    15    18   ar
    18    18    17   ar
    19    17    16   ar
    20    16    13   ar
    21     1     2   ar
    22     2     5   ar
    23     5     6   ar
    24     6     4   ar
    25     4     3   ar
    26     3     1   ar
    27     7     8   ar
    28     8     9   ar
    29     9    12   ar
    30    12    11   ar
    31    11    10   ar
    32    10     7   ar
