@<TRIPOS>MOLECULE
No_1611-gen_results/8p0m/2024-11-26-14-13-15/
 16 18 0 0 0
SMALL
GASTEIGER

@<TRIPOS>ATOM
      1 C         -28.0162   -0.8135   28.8779 C.ar    1  UNL1       -0.0027
      2 C         -28.4690   -0.7850   29.8287 C.ar    1  UNL1       -0.0002
      3 C         -27.1356    0.2359   28.5352 C.ar    1  UNL1       -0.0041
      4 C         -26.8745    1.2825   29.3982 C.ar    1  UNL1        0.0478
      5 C         -27.5070    1.2380   30.6295 C.ar    1  UNL1        0.0145
      6 C         -28.3293    0.1745   30.9350 C.ar    1  UNL1        0.0013
      7 C         -26.4077    0.3070   27.2259 C.3     1  UNL1        0.0551
      8 C         -25.7129    1.4905   26.9212 C.ar    1  UNL1       -0.0041
      9 C         -24.7086    1.5122   26.0854 C.ar    1  UNL1       -0.0027
     10 C         -23.8823    2.7701   25.9554 C.ar    1  UNL1       -0.0002
     11 C         -24.2679    3.8973   26.7568 C.ar    1  UNL1        0.0013
     12 C         -25.3592    3.8170   27.5522 C.ar    1  UNL1        0.0145
     13 C         -26.0342    2.6105   27.7516 C.ar    1  UNL1        0.0478
     14 N         -26.3097    2.4320   28.9615 N.pl3   1  UNL1       -0.2874
     15 C         -26.2295    3.5530   30.0018 C.3     1  UNL1        0.0956
     16 C         -27.2915    3.8025   30.7820 C.3     1  UNL1        0.0236
@<TRIPOS>BOND
     1     3     7    1
     2     7     8    1
     3     4    14    1
     4    13    14    1
     5    14    15    1
     6    15    16    1
     7     1     2   ar
     8     2     6   ar
     9     6     5   ar
    10     5     4   ar
    11     4     3   ar
    12     3     1   ar
    13     8     9   ar
    14     9    10   ar
    15    10    11   ar
    16    11    12   ar
    17    12    13   ar
    18    13     8   ar
