@<TRIPOS>MOLECULE
No_1613-gen_results/8p0m/2024-11-26-14-13-15/
 9 9 0 0 0
SMALL
GASTEIGER

@<TRIPOS>ATOM
      1 C         -28.0162   -0.8135   28.8779 C.ar    1  UNL1        0.0419
      2 C         -28.4690   -0.7850   29.8287 C.ar    1  UNL1        0.0600
      3 C         -26.5042   -0.7777   28.8766 C.ar    1  UNL1        0.1514
      4 C         -25.8103   -0.8531   30.1028 C.ar    1  UNL1        0.0851
      5 C         -27.9906   -0.8916   31.2257 C.ar    1  UNL1        0.0124
      6 C         -26.6042   -0.8676   31.2652 C.ar    1  UNL1        0.0145
      7 CL        -30.2937   -0.8377   29.8355 Cl      1  UNL1       -0.0822
      8 CL        -24.1304   -0.8107   30.1449 Cl      1  UNL1       -0.0799
      9 F         -25.7438   -0.7691   27.7801 F       1  UNL1       -0.2033
@<TRIPOS>BOND
     1     2     7    1
     2     4     8    1
     3     3     9    1
     4     1     2   ar
     5     2     5   ar
     6     5     6   ar
     7     6     4   ar
     8     4     3   ar
     9     3     1   ar
