@<TRIPOS>MOLECULE
No_1614-gen_results/8p0m/2024-11-26-14-13-15/
 20 22 0 0 0
SMALL
GASTEIGER

@<TRIPOS>ATOM
      1 C         -28.0162   -0.8135   28.8779 C.ar    1  UNL1        0.0280
      2 C         -28.4690   -0.7850   29.8287 C.ar    1  UNL1        0.1671
      3 C         -26.5042   -0.7777   28.8766 C.ar    1  UNL1       -0.0153
      4 C         -25.6540   -0.6597   27.7191 C.3     1  UNL1        0.0550
      5 C         -27.9180   -0.9374   31.1824 C.ar    1  UNL1        0.1674
      6 C         -26.5424   -0.9399   31.2606 C.ar    1  UNL1        0.0317
      7 C         -25.7832   -0.8935   30.1201 C.ar    1  UNL1       -0.0015
      8 C         -25.2204    0.6866   27.3939 C.ar    1  UNL1        0.0111
      9 C         -23.9014    0.8981   27.7598 C.ar    1  UNL1        0.0162
     10 C         -23.3037    2.1844   27.3240 C.ar    1  UNL1        0.0812
     11 C         -23.9961    3.0461   26.5443 C.ar    1  UNL1        0.0214
     12 C         -25.8647    1.5294   26.5210 C.ar    1  UNL1        0.1365
     13 C         -25.2723    2.6762   26.0966 C.ar    1  UNL1        0.0309
     14 F         -29.9071   -0.8169   29.8343 F       1  UNL1       -0.2018
     15 C         -23.2253    0.0987   28.7095 C.ar    1  UNL1        0.0029
     16 C         -21.8303    0.4159   28.9941 C.ar    1  UNL1        0.0207
     17 C         -21.2600    1.4087   28.2706 C.ar    1  UNL1        0.0988
     18 N         -21.9167    2.3846   27.6499 N.ar    1  UNL1       -0.2438
     19 F         -27.0657    1.2354   26.1504 F       1  UNL1       -0.2045
     20 F         -28.6947   -1.0081   32.2681 F       1  UNL1       -0.2018
@<TRIPOS>BOND
     1     3     4    1
     2     4     8    1
     3     2    14    1
     4    12    19    1
     5     5    20    1
     6    10    18   ar
     7    18    17   ar
     8    17    16   ar
     9    16    15   ar
    10    15     9   ar
    11     1     2   ar
    12     2     5   ar
    13     5     6   ar
    14     6     7   ar
    15     7     3   ar
    16     3     1   ar
    17     8     9   ar
    18     9    10   ar
    19    10    11   ar
    20    11    13   ar
    21    13    12   ar
    22    12     8   ar
