@<TRIPOS>MOLECULE
No_1615-gen_results/8p0m/2024-11-26-14-13-15/
 19 20 0 0 0
SMALL
GASTEIGER

@<TRIPOS>ATOM
      1 C         -28.0162   -0.8135   28.8779 C.ar    1  UNL1        0.0130
      2 C         -28.4690   -0.7850   29.8287 C.ar    1  UNL1        0.0800
      3 C         -27.0871    0.2903   28.6377 C.ar    1  UNL1        0.0759
      4 C         -26.8317    1.2487   29.5869 C.ar    1  UNL1        0.0064
      5 C         -28.3914    0.0801   31.0065 C.ar    1  UNL1        0.0066
      6 C         -27.4940    1.1521   30.7841 C.ar    1  UNL1        0.0004
      7 C         -26.3172    0.3994   27.3653 C.2     1  UNL1        0.3414
      8 O         -26.8990    0.5819   26.4031 O.2     1  UNL1       -0.2449
      9 O         -24.9827    0.3252   27.4295 O.3     1  UNL1       -0.4440
     10 C         -24.2501    1.3925   27.8997 C.3     1  UNL1        0.1980
     11 C         -23.7256    2.2821   26.9285 C.2     1  UNL1       -0.0071
     12 C         -23.0841    0.8766   28.8721 C.3     1  UNL1        0.1057
     13 S         -21.6352    0.7976   27.9791 S.3     1  UNL1       -0.1313
     14 C         -21.4480    1.7350   27.4679 C.3     1  UNL1        0.0831
     15 C         -22.4346    2.3665   26.5086 C.2     1  UNL1       -0.0195
     16 C         -24.7232    3.0922   26.2258 C.3     1  UNL1        0.0297
     17 C         -29.4815   -1.9948   30.2319 C.2     1  UNL1        0.3878
     18 O         -30.0529   -1.9755   31.3657 O.co2   1  UNL1       -0.2406
     19 O         -29.4724   -2.9930   29.5359 O.co2   1  UNL1       -0.2406
@<TRIPOS>BOND
     1     3     7    1
     2     7     8    2
     3     7     9    1
     4     9    10    1
     5    10    11    1
     6    10    12    1
     7    12    13    1
     8    13    14    1
     9    11    15    2
    10    14    15    1
    11    11    16    1
    12     2    17    1
    13    17    18   ar
    14    17    19   ar
    15     1     2   ar
    16     2     5   ar
    17     5     6   ar
    18     6     4   ar
    19     4     3   ar
    20     3     1   ar
