@<TRIPOS>MOLECULE
No_1616-gen_results/8p0m/2024-11-26-14-13-15/
 26 29 0 0 0
SMALL
GASTEIGER

@<TRIPOS>ATOM
      1 CL        -28.1493   -0.8198   28.9079 Cl      1  UNL1       -0.0826
      2 C         -26.9116   -0.0797   28.9452 C.ar    1  UNL1        0.0540
      3 C         -26.7384    1.0439   29.2534 C.ar    1  UNL1       -0.0036
      4 C         -25.4392    1.7115   29.2755 C.ar    1  UNL1        0.0014
      5 C         -24.2813    0.9888   28.8542 C.ar    1  UNL1        0.0494
      6 C         -22.9799    1.5423   28.8300 C.2     1  UNL1        0.2488
      7 C         -24.4685   -0.3246   28.4777 C.ar    1  UNL1       -0.0153
      8 C         -25.6932   -0.8813   28.5346 C.ar    1  UNL1        0.0070
      9 N         -21.9045    0.8013   28.4945 N.am    1  UNL1       -0.2740
     10 O         -22.7787    2.7969   28.8505 O.2     1  UNL1       -0.2699
     11 C         -20.5290    1.2577   28.2163 C.3     1  UNL1        0.1152
     12 C         -21.9389   -0.6737   28.6483 C.3     1  UNL1        0.0984
     13 C         -23.2366   -1.2012   28.4225 C.3     1  UNL1        0.0480
     14 C         -27.8526    1.9997   29.6320 C.3     1  UNL1        0.0675
     15 C         -28.6637    2.4997   28.7914 C.ar    1  UNL1       -0.0143
     16 C         -29.7904    3.2078   29.1662 C.ar    1  UNL1       -0.0036
     17 C         -30.7347    3.7232   28.2293 C.ar    1  UNL1       -0.0003
     18 C         -30.4688    3.4561   26.8454 C.ar    1  UNL1       -0.0000
     19 C         -29.3497    2.7477   26.4403 C.ar    1  UNL1       -0.0003
     20 C         -28.4875    2.2830   27.3643 C.ar    1  UNL1       -0.0036
     21 C         -27.9293    2.2963   31.1126 C.ar    1  UNL1       -0.0143
     22 C         -28.6960    1.5432   31.9031 C.ar    1  UNL1       -0.0036
     23 C         -28.7818    1.8492   33.2609 C.ar    1  UNL1       -0.0003
     24 C         -27.2571    3.4303   31.6080 C.ar    1  UNL1       -0.0036
     25 C         -27.2806    3.7453   32.9774 C.ar    1  UNL1       -0.0003
     26 C         -28.0477    2.9312   33.8431 C.ar    1  UNL1       -0.0000
@<TRIPOS>BOND
     1     1     2    1
     2     5     6    1
     3     6     9   am
     4     6    10    2
     5     9    11    1
     6     9    12    1
     7     7    13    1
     8     3    14    1
     9    14    15    1
    10    14    21    1
    11    13    12    1
    12    15    16   ar
    13    16    17   ar
    14    17    18   ar
    15    18    19   ar
    16    19    20   ar
    17    20    15   ar
    18    21    22   ar
    19    22    23   ar
    20    23    26   ar
    21    26    25   ar
    22    25    24   ar
    23    24    21   ar
    24     2     3   ar
    25     3     4   ar
    26     4     5   ar
    27     5     7   ar
    28     7     8   ar
    29     8     2   ar
