@<TRIPOS>MOLECULE
No_1617-gen_results/8p0m/2024-11-26-14-13-15/
 31 34 0 0 0
SMALL
GASTEIGER

@<TRIPOS>ATOM
      1 C         -28.0162   -0.8135   28.8779 C.ar    1  UNL1        0.0376
      2 C         -27.0636   -0.1189   28.6079 C.ar    1  UNL1        0.0032
      3 C         -25.7647   -0.3897   29.0360 C.ar    1  UNL1        0.0032
      4 C         -25.5296   -1.5302   29.9014 C.ar    1  UNL1        0.0032
      5 C         -26.6888   -2.2893   30.1810 C.ar    1  UNL1        0.0376
      6 C         -27.8727   -1.9508   29.7373 C.ar    1  UNL1        0.1489
      7 O         -28.9304   -2.7298   30.1154 O.3     1  UNL1       -0.4179
      8 C         -24.5394    0.4211   28.7421 C.ar    1  UNL1        0.0370
      9 C         -24.5259    1.2743   27.7265 C.ar    1  UNL1        0.1721
     10 C         -23.3174    1.9856   27.4033 C.ar    1  UNL1        0.1725
     11 C         -22.1311    1.7374   28.0503 C.ar    1  UNL1        0.0401
     12 C         -23.2983    0.1369   29.3770 C.ar    1  UNL1        0.0032
     13 C         -22.1005    0.8185   29.0410 C.ar    1  UNL1        0.0033
     14 C         -30.0646   -2.2184   30.5721 C.2     1  UNL1        0.4016
     15 C         -30.4682   -2.9139   31.7147 C.2     1  UNL1        0.3413
     16 O         -31.4635   -2.6858   32.1421 O.2     1  UNL1       -0.2612
     17 N         -29.5255   -3.5086   32.5202 N.am    1  UNL1       -0.1942
     18 C         -29.6026   -4.4440   33.0621 C.3     1  UNL1        0.1391
     19 O         -30.7206   -1.5228   29.8850 O.2     1  UNL1       -0.2393
     20 O         -23.5485    2.9363   26.4364 O.3     1  UNL1       -0.4715
     21 C         -24.7260    3.6592   26.4716 C.3     1  UNL1        0.1951
     22 C         -25.0534    4.1565   27.7279 C.ar    1  UNL1        0.0562
     23 C         -25.9798    4.9092   27.8386 C.ar    1  UNL1        0.0024
     24 C         -26.3749    5.4720   29.1473 C.ar    1  UNL1       -0.0000
     25 C         -25.8922    4.8122   30.2930 C.ar    1  UNL1        0.0033
     26 C         -25.0224    3.7350   30.1292 C.ar    1  UNL1        0.0418
     27 C         -24.6183    3.3743   28.8730 C.ar    1  UNL1        0.1951
     28 O         -25.5257    2.1373   27.8704 O.3     1  UNL1       -0.4723
     29 C         -26.4339    2.6300   27.1327 C.3     1  UNL1        0.2097
     30 O         -23.3897    3.2646   29.1634 O.3     1  UNL1       -0.2868
     31 C         -25.7846    2.8646   25.8917 C.3     1  UNL1        0.0956
@<TRIPOS>BOND
     1     6     7    1
     2     3     8    1
     3     7    14    1
     4    14    15    1
     5    15    16    2
     6    15    17   am
     7    17    18    1
     8    14    19    2
     9    10    20    1
    10    20    21    1
    11    21    22    1
    12     9    28    1
    13    28    29    1
    14    27    30    1
    15    21    31    1
    16    29    31    1
    17     1     2   ar
    18     2     3   ar
    19     3     4   ar
    20     4     5   ar
    21     5     6   ar
    22     6     1   ar
    23    22    23   ar
    24    23    24   ar
    25    24    25   ar
    26    25    26   ar
    27    26    27   ar
    28    27    22   ar
    29     8     9   ar
    30     9    10   ar
    31    10    11   ar
    32    11    13   ar
    33    13    12   ar
    34    12     8   ar
