@<TRIPOS>MOLECULE
No_1618-gen_results/8p0m/2024-11-26-14-13-15/
 24 27 0 0 0
SMALL
GASTEIGER

@<TRIPOS>ATOM
      1 C         -28.0162   -0.8135   28.8779 C.ar    1  UNL1        0.0012
      2 C         -27.0636   -0.1190   28.6079 C.ar    1  UNL1        0.0131
      3 C         -25.7923   -0.4302   29.0761 C.ar    1  UNL1        0.0457
      4 C         -25.5756   -1.5654   29.9363 C.ar    1  UNL1       -0.0087
      5 C         -26.7354   -2.3004   30.2173 C.ar    1  UNL1       -0.0030
      6 C         -27.9184   -1.9537   29.7629 C.ar    1  UNL1       -0.0002
      7 C         -27.1057    1.1023   27.7593 C.2     1  UNL1        0.0010
      8 C         -26.7157    2.2350   27.9945 C.2     1  UNL1       -0.0025
      9 C         -26.0688    2.4770   29.3567 C.2     1  UNL1        0.0013
     10 C         -26.2622    3.4491   30.0956 C.2     1  UNL1        0.0006
     11 C         -25.6340    3.5822   31.4192 C.2     1  UNL1        0.0426
     12 C         -24.6717    2.6589   31.7915 C.2     1  UNL1        0.2307
     13 C         -24.3736    1.6330   30.9475 C.3     1  UNL1        0.3027
     14 C         -25.0017    1.5279   29.7385 C.3     1  UNL1        0.1616
     15 N         -25.3311    0.1635   29.7064 N.pl3   1  UNL1       -0.2799
     16 C         -24.1557   -0.2620   30.5701 C.3     1  UNL1        0.1870
     17 F         -23.0014    1.4416   30.7455 F       1  UNL1       -0.1991
     18 C         -24.0356   -1.0743   31.3505 C.3     1  UNL1        0.0545
     19 C         -22.9672   -0.3168   29.6971 C.3     1  UNL1        0.0541
     20 C         -24.4665   -1.8138   30.9553 C.3     1  UNL1        0.0319
     21 O         -25.3049    0.9096   31.9780 O.3     1  UNL1       -0.3210
     22 O         -23.9256    3.1462   32.7357 O.2     1  UNL1       -0.2859
     23 C         -25.8239    0.7471   32.9734 C.3     1  UNL1        0.1774
     24 O         -23.1701   -0.1106   30.8635 O.3     1  UNL1       -0.2051
@<TRIPOS>BOND
     1     2     7    1
     2     7     8    2
     3     8     9    1
     4     9    10    2
     5    10    11    1
     6    11    12    2
     7    12    13    1
     8     9    14    1
     9    13    14    1
    10     3    15    1
    11    14    15    1
    12    15    16    1
    13    13    17    1
    14    16    18    1
    15    16    19    1
    16     4    20    1
    17    18    20    1
    18    13    21    1
    19    12    22    1
    20    21    23    1
    21    16    24    1
    22     1     2   ar
    23     2     3   ar
    24     3     4   ar
    25     4     5   ar
    26     5     6   ar
    27     6     1   ar
