@<TRIPOS>MOLECULE
No_1619-gen_results/8p0m/2024-11-26-14-13-15/
 12 13 0 0 0
SMALL
GASTEIGER

@<TRIPOS>ATOM
      1 C         -28.0162   -0.8135   28.8779 C.ar    1  UNL1        0.0000
      2 C         -28.4690   -0.7850   29.8287 C.ar    1  UNL1        0.0000
      3 C         -27.1356    0.2359   28.5352 C.ar    1  UNL1        0.0000
      4 C         -26.8745    1.2825   29.3982 C.ar    1  UNL1        0.0000
      5 C         -27.5070    1.2380   30.6295 C.ar    1  UNL1        0.0000
      6 C         -28.3269    0.1637   30.9240 C.ar    1  UNL1        0.0000
      7 C         -26.4007    0.2985   27.2217 C.ar    1  UNL1        0.0000
      8 C         -26.6926    0.8617   26.3034 C.ar    1  UNL1        0.0000
      9 C         -26.0092    0.7359   25.0218 C.ar    1  UNL1        0.0000
     10 C         -24.9744   -0.0391   27.2920 C.ar    1  UNL1        0.0000
     11 C         -24.1189   -0.0146   26.2712 C.ar    1  UNL1        0.0000
     12 C         -24.6477    0.4061   25.0588 C.ar    1  UNL1        0.0000
@<TRIPOS>BOND
     1     3     7    1
     2     1     2   ar
     3     2     6   ar
     4     6     5   ar
     5     5     4   ar
     6     4     3   ar
     7     3     1   ar
     8     7     8   ar
     9     8     9   ar
    10     9    12   ar
    11    12    11   ar
    12    11    10   ar
    13    10     7   ar
