@<TRIPOS>MOLECULE
No_1621-gen_results/8p0m/2024-11-26-14-13-15/
 13 14 0 0 0
SMALL
GASTEIGER

@<TRIPOS>ATOM
      1 C         -28.0162   -0.8135   28.8779 C.ar    1  UNL1        0.0009
      2 C         -27.0636   -0.1190   28.6079 C.ar    1  UNL1        0.0001
      3 C         -26.9716    0.7139   27.5060 C.ar    1  UNL1        0.0008
      4 C         -28.1053    0.7744   26.6421 C.ar    1  UNL1        0.0114
      5 C         -29.2041    0.1179   27.0477 C.ar    1  UNL1        0.0577
      6 C         -29.2127   -0.6088   28.1281 C.ar    1  UNL1        0.0114
      7 CL        -30.5638    0.2475   26.0224 Cl      1  UNL1       -0.0822
      8 C         -25.6995    1.4455   27.1228 C.ar    1  UNL1        0.0000
      9 C         -25.3808    1.9859   26.1420 C.ar    1  UNL1        0.0000
     10 C         -24.0675    2.6553   25.9463 C.ar    1  UNL1        0.0000
     11 C         -23.0535    2.4052   26.9107 C.ar    1  UNL1        0.0000
     12 C         -23.3542    1.6249   28.0170 C.ar    1  UNL1        0.0000
     13 C         -24.6327    1.1060   28.1778 C.ar    1  UNL1        0.0000
@<TRIPOS>BOND
     1     5     7    1
     2     3     8    1
     3     1     2   ar
     4     2     3   ar
     5     3     4   ar
     6     4     5   ar
     7     5     6   ar
     8     6     1   ar
     9     8     9   ar
    10     9    10   ar
    11    10    11   ar
    12    11    12   ar
    13    12    13   ar
    14    13     8   ar
