@<TRIPOS>MOLECULE
No_1622-gen_results/8p0m/2024-11-26-14-13-15/
 16 17 0 0 0
SMALL
GASTEIGER

@<TRIPOS>ATOM
      1 C         -28.0162   -0.8135   28.8779 C.ar    1  UNL1        0.0071
      2 C         -27.0636   -0.1189   28.6079 C.ar    1  UNL1        0.0064
      3 C         -25.7647   -0.3897   29.0360 C.ar    1  UNL1        0.0346
      4 C         -25.4887   -1.1536   29.7171 C.ar    1  UNL1        0.0069
      5 C         -26.4902   -2.1223   30.2112 C.ar    1  UNL1        0.0071
      6 C         -27.7302   -1.9094   29.8268 C.ar    1  UNL1        0.0798
      7 BR        -24.3764    0.8850   28.4025 Br      1  UNL1       -0.0490
      8 C         -28.7743   -2.8558   30.3160 C.2     1  UNL1        0.3878
      9 O         -28.6027   -4.0880   30.3939 O.co2   1  UNL1       -0.2406
     10 O         -29.7605   -2.3987   30.9779 O.co2   1  UNL1       -0.2406
     11 C         -27.0611    1.0827   27.5357 C.ar    1  UNL1        0.0005
     12 C         -28.1552    0.9868   26.7976 C.ar    1  UNL1        0.0000
     13 C         -28.4162    1.5072   25.9464 C.ar    1  UNL1        0.0000
     14 C         -27.4350    2.5854   25.3972 C.ar    1  UNL1        0.0000
     15 C         -26.2812    2.7401   26.1188 C.ar    1  UNL1        0.0000
     16 C         -26.1048    1.9313   27.1991 C.ar    1  UNL1        0.0000
@<TRIPOS>BOND
     1     3     7    1
     2     6     8    1
     3     8     9   ar
     4     8    10   ar
     5     2    11    1
     6    11    12   ar
     7    12    13   ar
     8    13    14   ar
     9    14    15   ar
    10    15    16   ar
    11    16    11   ar
    12     1     2   ar
    13     2     3   ar
    14     3     4   ar
    15     4     5   ar
    16     5     6   ar
    17     6     1   ar
