@<TRIPOS>MOLECULE
No_1623-gen_results/8p0m/2024-11-26-14-13-15/
 17 18 0 0 0
SMALL
GASTEIGER

@<TRIPOS>ATOM
      1 C         -28.0162   -0.8135   28.8779 C.ar    1  UNL1       -0.0000
      2 C         -27.0636   -0.1189   28.6079 C.ar    1  UNL1       -0.0003
      3 C         -25.7923   -0.4302   29.0761 C.ar    1  UNL1       -0.0037
      4 C         -24.5456    0.3494   28.8225 C.ar    1  UNL1       -0.0187
      5 C         -23.2409    0.0217   29.3323 C.ar    1  UNL1       -0.0040
      6 C         -27.8820   -1.8995   29.8633 C.ar    1  UNL1       -0.0000
      7 C         -26.6526   -2.3142   30.3138 C.ar    1  UNL1       -0.0000
      8 C         -25.5153   -1.5607   29.9787 C.ar    1  UNL1       -0.0003
      9 C         -23.2160   -1.2277   30.0505 C.ar    1  UNL1       -0.0003
     10 C         -24.2438   -1.9369   30.3995 C.ar    1  UNL1       -0.0000
     11 C         -24.5818    1.5617   27.9589 C.3     1  UNL1        0.0436
     12 C         -24.9322    1.4314   26.6867 C.3     1  UNL1        0.0091
     13 C         -23.2184    2.2819   27.9975 C.3     1  UNL1        0.0091
     14 C         -25.5438    2.5772   28.6941 C.2     1  UNL1        0.0339
     15 C         -25.3501    3.0973   29.8665 C.1     1  UNL1        0.1249
     16 C         -26.6869    2.9737   27.9366 C.3     1  UNL1        0.0383
     17 O         -25.8847    3.9348   30.4367 O.2     1  UNL1       -0.2318
@<TRIPOS>BOND
     1     4    11    1
     2    11    12    1
     3    11    13    1
     4    11    14    1
     5    14    15    2
     6    14    16    1
     7    15    17    2
     8     1     2   ar
     9     2     3   ar
    10     8     7   ar
    11     7     6   ar
    12     6     1   ar
    13     3     4   ar
    14     4     5   ar
    15     5     9   ar
    16     9    10   ar
    17    10     8   ar
    18     8     3   ar
