@<TRIPOS>MOLECULE
No_1624-gen_results/8p0m/2024-11-26-14-13-15/
 17 19 0 0 0
SMALL
GASTEIGER

@<TRIPOS>ATOM
      1 F         -28.0727   -1.2542   28.5316 F       1  UNL1       -0.2042
      2 C         -27.3591   -0.3792   28.7224 C.ar    1  UNL1        0.1404
      3 C         -27.7014    0.7608   29.1249 C.ar    1  UNL1        0.0327
      4 C         -25.8844   -0.6918   28.4374 C.ar    1  UNL1        0.0333
      5 C         -25.1099    0.1164   28.6678 C.ar    1  UNL1        0.0446
      6 C         -26.6815    1.8170   29.3203 C.ar    1  UNL1        0.0368
      7 C         -25.3199    1.4887   29.0584 C.ar    1  UNL1        0.1469
      8 O         -24.3192    2.3571   29.2380 O.3     1  UNL1       -0.4422
      9 C         -23.1080    1.8520   28.7844 C.2     1  UNL1        0.2215
     10 C         -23.6200   -0.0525   28.3406 C.2     1  UNL1        0.0476
     11 C         -22.6301    0.8896   28.4850 C.1     1  UNL1       -0.0606
     12 C         -26.9786    3.1613   29.8693 C.ar    1  UNL1        0.0030
     13 C         -26.7640    4.1995   29.4601 C.ar    1  UNL1        0.0001
     14 C         -27.0020    5.4944   30.0115 C.ar    1  UNL1        0.0000
     15 C         -27.1507    3.1592   31.4050 C.ar    1  UNL1        0.0001
     16 C         -27.4174    4.3002   32.0806 C.ar    1  UNL1        0.0000
     17 C         -27.2784    5.5258   31.4086 C.ar    1  UNL1        0.0000
@<TRIPOS>BOND
     1     1     2    1
     2     7     8    1
     3     8     9    1
     4     5    10    1
     5     9    11    2
     6    10    11    2
     7     6    12    1
     8    12    13   ar
     9    13    14   ar
    10    14    17   ar
    11    17    16   ar
    12    16    15   ar
    13    15    12   ar
    14     2     3   ar
    15     3     6   ar
    16     6     7   ar
    17     7     5   ar
    18     5     4   ar
    19     4     2   ar
