@<TRIPOS>MOLECULE
No_1625-gen_results/8p0m/2024-11-26-14-13-15/
 32 36 0 0 0
SMALL
GASTEIGER

@<TRIPOS>ATOM
      1 C         -28.0162   -0.8135   28.8779 C.ar    1  UNL1        0.0172
      2 C         -27.0636   -0.1189   28.6079 C.ar    1  UNL1        0.0579
      3 C         -26.8756    1.1325   28.9134 C.ar    1  UNL1        0.0127
      4 C         -27.9014    1.8066   29.6436 C.ar    1  UNL1        0.0159
      5 C         -29.0458   -0.2316   29.7181 C.ar    1  UNL1        0.0693
      6 C         -27.7521    3.2005   30.0171 C.ar    1  UNL1        0.0013
      7 C         -28.9510    1.0411   30.0482 C.ar    1  UNL1        0.0715
      8 C         -27.7772    3.6042   31.1953 C.ar    1  UNL1        0.0000
      9 C         -27.6009    5.0205   31.5876 C.ar    1  UNL1       -0.0000
     10 C         -27.5163    5.4868   32.9117 C.ar    1  UNL1        0.0039
     11 C         -27.5052    4.1683   28.9391 C.ar    1  UNL1        0.0000
     12 C         -27.3060    5.5557   29.2478 C.ar    1  UNL1        0.0000
     13 C         -27.2946    5.9629   30.5643 C.ar    1  UNL1       -0.0000
     14 CL        -25.7023   -0.8353   27.6681 Cl      1  UNL1       -0.0822
     15 C         -26.9043    5.9536   33.6172 C.ar    1  UNL1        0.0714
     16 C         -27.0257    6.2883   34.9832 C.ar    1  UNL1        0.0039
     17 C         -28.1658    5.7478   35.5892 C.ar    1  UNL1       -0.0001
     18 C         -29.0167    5.0301   34.8655 C.ar    1  UNL1       -0.0000
     19 C         -28.8017    4.7833   33.5769 C.ar    1  UNL1       -0.0001
     20 C         -30.1722   -1.0923   30.1475 C.2     1  UNL1        0.2514
     21 O         -29.9781   -2.1295   30.4848 O.2     1  UNL1       -0.2698
     22 N         -31.3879   -0.5391   30.1678 N.am    1  UNL1       -0.2602
     23 C         -32.4188   -0.9006   30.2745 C.3     1  UNL1        0.0953
     24 C         -33.4905   -0.1741   30.2517 C.3     1  UNL1        0.0217
     25 C         -33.1831    1.1601   30.0368 C.3     1  UNL1        0.0053
     26 C         -32.0732    1.7719   29.8059 C.3     1  UNL1        0.0424
     27 C         -31.0969    0.9486   29.8454 C.3     1  UNL1        0.1693
     28 N         -29.8872    1.4446   29.7578 N.pl3   1  UNL1       -0.2190
     29 C         -25.5071    6.5861   33.0923 C.3     1  UNL1        0.4186
     30 F         -24.7160    6.0593   33.5737 F       1  UNL1       -0.1659
     31 F         -25.4905    7.9263   33.3572 F       1  UNL1       -0.1659
     32 F         -25.4583    6.4160   31.7542 F       1  UNL1       -0.1659
@<TRIPOS>BOND
     1     4     6    1
     2     2    14    1
     3     5    20    1
     4    20    21    2
     5    20    22   am
     6    22    23    1
     7    24    25    1
     8    22    27    1
     9    26    27    1
    10     7    28    1
    11    15    29    1
    12    29    30    1
    13    29    31    1
    14    29    32    1
    15     9    10    1
    16    23    24    1
    17    25    26    1
    18    28    27    1
    19    10    15   ar
    20    15    16   ar
    21    16    17   ar
    22    17    18   ar
    23    18    19   ar
    24    19    10   ar
    25     1     2   ar
    26     2     3   ar
    27     3     4   ar
    28     4     7   ar
    29     7     5   ar
    30     5     1   ar
    31     6     8   ar
    32     8     9   ar
    33     9    13   ar
    34    13    12   ar
    35    12    11   ar
    36    11     6   ar
