@<TRIPOS>MOLECULE
No_1626-gen_results/8p0m/2024-11-26-14-13-15/
 35 39 0 0 0
SMALL
GASTEIGER

@<TRIPOS>ATOM
      1 C         -28.0162   -0.8135   28.8779 C.ar    1  UNL1        0.0135
      2 C         -28.4690   -0.7850   29.8287 C.ar    1  UNL1        0.0801
      3 C         -27.1356    0.2359   28.5352 C.ar    1  UNL1        0.1063
      4 C         -26.8745    1.2825   29.3982 C.ar    1  UNL1        0.1555
      5 C         -28.3613    0.1987   30.9244 C.ar    1  UNL1        0.0161
      6 C         -27.5277    1.2234   30.6356 C.ar    1  UNL1        0.1106
      7 C         -26.3879    0.2914   27.2334 C.3     1  UNL1        0.4214
      8 F         -25.9210    1.4278   27.1199 F       1  UNL1       -0.1657
      9 F         -25.4260   -0.6253   27.2072 F       1  UNL1       -0.1657
     10 F         -27.1530    0.1872   26.1225 F       1  UNL1       -0.1657
     11 C         -29.4004   -2.0190   30.3273 C.2     1  UNL1        0.3878
     12 O         -30.4718   -2.0019   30.0416 O.co2   1  UNL1       -0.2406
     13 O         -28.8327   -3.0168   30.9835 O.co2   1  UNL1       -0.2406
     14 C         -27.2829    2.3359   31.6095 C.2     1  UNL1        0.3488
     15 O         -27.4790    2.3732   32.6901 O.2     1  UNL1       -0.2444
     16 O         -26.6105    3.3793   30.9865 O.3     1  UNL1       -0.4178
     17 C         -26.5835    4.0545   30.2311 C.ar    1  UNL1        0.1829
     18 C         -26.6521    5.4570   30.3760 C.ar    1  UNL1        0.0377
     19 C         -26.5150    6.3270   29.2365 C.ar    1  UNL1        0.0031
     20 C         -26.2536    5.7505   27.9729 C.ar    1  UNL1        0.0033
     21 C         -26.0700    4.4125   27.8248 C.ar    1  UNL1        0.0407
     22 C         -26.2073    3.6509   28.8676 C.ar    1  UNL1        0.1796
     23 O         -26.9242    2.3983   28.7086 O.3     1  UNL1       -0.4502
     24 C         -26.9089    6.0759   31.6458 C.ar    1  UNL1        0.0030
     25 C         -26.1158    6.2915   32.4119 C.ar    1  UNL1        0.0001
     26 C         -26.3042    6.8732   33.7862 C.ar    1  UNL1        0.0000
     27 C         -28.2659    6.2639   31.9295 C.ar    1  UNL1        0.0001
     28 C         -28.6651    6.7588   33.2261 C.ar    1  UNL1        0.0000
     29 C         -27.6466    7.0724   34.1233 C.ar    1  UNL1        0.0000
     30 C         -24.5337    6.1598   32.2452 C.ar    1  UNL1        0.0000
     31 C         -23.6943    7.0928   32.7508 C.ar    1  UNL1        0.0000
     32 C         -23.7595    7.2519   34.1441 C.ar    1  UNL1        0.0000
     33 C         -25.2275    7.4746   34.6502 C.ar    1  UNL1        0.0000
     34 C         -26.6196    7.7943   29.4079 C.2     1  UNL1        0.0001
     35 C         -26.2414    8.6545   28.7281 C.2     1  UNL1        0.0000
@<TRIPOS>BOND
     1     3     7    1
     2     7     8    1
     3     7     9    1
     4     7    10    1
     5     2    11    1
     6    11    12   ar
     7    11    13   ar
     8     6    14    1
     9    14    15    2
    10    14    16    1
    11    16    17    1
    12     4    23    1
    13    22    23    1
    14    18    24    1
    15    19    34    1
    16    34    35    2
    17    17    18   ar
    18    18    19   ar
    19    19    20   ar
    20    20    21   ar
    21    21    22   ar
    22    22    17   ar
    23    26    33   ar
    24    33    32   ar
    25    32    31   ar
    26    31    30   ar
    27    30    25   ar
    28    24    25   ar
    29    25    26   ar
    30    26    29   ar
    31    29    28   ar
    32    28    27   ar
    33    27    24   ar
    34     1     2   ar
    35     2     5   ar
    36     5     6   ar
    37     6     4   ar
    38     4     3   ar
    39     3     1   ar
