@<TRIPOS>MOLECULE
No_1627-gen_results/8p0m/2024-11-26-14-13-15/
 9 9 0 0 0
SMALL
GASTEIGER

@<TRIPOS>ATOM
      1 C         -28.0162   -0.8135   28.8779 C.ar    1  UNL1       -0.0000
      2 C         -27.0636   -0.1190   28.6079 C.ar    1  UNL1       -0.0000
      3 C         -25.7647   -0.3897   29.0360 C.ar    1  UNL1       -0.0003
      4 C         -24.5516    0.4058   28.7646 C.2     1  UNL1       -0.0046
      5 C         -23.2300    0.1178   29.2575 C.2     1  UNL1       -0.0258
      6 C         -27.8275   -1.9081   29.8661 C.ar    1  UNL1       -0.0000
      7 C         -26.5727   -2.3160   30.2643 C.ar    1  UNL1       -0.0000
      8 C         -25.4305   -1.5200   29.9226 C.ar    1  UNL1       -0.0000
      9 C         -23.1525   -1.1087   29.9673 C.3     1  UNL1        0.0307
@<TRIPOS>BOND
     1     3     4    1
     2     4     5    2
     3     5     9    1
     4     1     2   ar
     5     2     3   ar
     6     3     8   ar
     7     8     7   ar
     8     7     6   ar
     9     6     1   ar
