@<TRIPOS>MOLECULE
No_1628-gen_results/8p0m/2024-11-26-14-13-15/
 35 39 0 0 0
SMALL
GASTEIGER

@<TRIPOS>ATOM
      1 C         -28.0162   -0.8135   28.8779 C.ar    1  UNL1        0.0001
      2 C         -27.0636   -0.1189   28.6079 C.ar    1  UNL1       -0.0002
      3 C         -25.7647   -0.3897   29.0360 C.ar    1  UNL1       -0.0000
      4 C         -25.5296   -1.5302   29.9014 C.ar    1  UNL1       -0.0002
      5 C         -26.6888   -2.2893   30.1810 C.ar    1  UNL1        0.0001
      6 C         -27.8727   -1.9508   29.7373 C.ar    1  UNL1        0.0308
      7 C         -24.7078    0.5670   28.7015 C.ar    1  UNL1       -0.0000
      8 C         -24.6780    1.8401   29.1492 C.ar    1  UNL1       -0.0000
      9 C         -23.6651    2.7182   28.7285 C.ar    1  UNL1        0.0000
     10 C         -22.6575    2.2437   27.8352 C.ar    1  UNL1        0.0000
     11 C         -23.5909    0.2727   27.8239 C.ar    1  UNL1       -0.0000
     12 C         -22.6245    1.0042   27.4613 C.ar    1  UNL1        0.0000
     13 C         -29.0323   -2.7900   30.1487 C.3     1  UNL1        0.2789
     14 N         -28.8824   -4.1035   30.3594 N.am    1  UNL1       -0.1652
     15 F         -30.1553   -2.3631   30.1307 F       1  UNL1       -0.2080
     16 C         -29.9687   -4.9876   30.4886 C.2     1  UNL1        0.2673
     17 C         -30.7277   -5.2166   29.4297 C.ar    1  UNL1        0.0551
     18 C         -31.5132   -6.3648   29.4495 C.ar    1  UNL1        0.0046
     19 C         -32.2612   -6.7570   28.2597 C.ar    1  UNL1        0.0001
     20 C         -32.1508   -5.9292   27.1109 C.ar    1  UNL1        0.0000
     21 C         -31.3304   -4.7863   27.1498 C.ar    1  UNL1        0.0001
     22 C         -30.5761   -4.5240   28.3039 C.ar    1  UNL1        0.0046
     23 O         -30.1941   -5.3173   31.7331 O.2     1  UNL1       -0.2683
     24 C         -25.6608    2.4232   30.0652 C.ar    1  UNL1        0.0000
     25 C         -26.1469    3.6498   29.8329 C.ar    1  UNL1        0.0000
     26 C         -27.1284    4.1249   30.7055 C.ar    1  UNL1        0.0000
     27 C         -26.0149    1.7763   31.2561 C.ar    1  UNL1        0.0000
     28 C         -26.8740    2.2841   32.1962 C.ar    1  UNL1        0.0000
     29 C         -27.4513    3.5325   31.8966 C.ar    1  UNL1        0.0000
     30 C         -27.2260    1.5163   33.3974 C.ar    1  UNL1        0.0000
     31 C         -27.1647    0.2896   33.4334 C.ar    1  UNL1        0.0000
     32 C         -27.5758   -0.4687   34.6076 C.ar    1  UNL1        0.0000
     33 C         -28.0431    0.1773   35.6838 C.ar    1  UNL1        0.0000
     34 C         -28.0754    1.5680   35.6776 C.ar    1  UNL1        0.0000
     35 C         -27.7077    2.2874   34.5589 C.ar    1  UNL1        0.0000
@<TRIPOS>BOND
     1     3     7    1
     2     6    13    1
     3    13    14    1
     4    13    15    1
     5    14    16   am
     6    16    17    1
     7    16    23    2
     8     8    24    1
     9    28    30    1
    10     1     2   ar
    11     2     3   ar
    12     3     4   ar
    13     4     5   ar
    14     5     6   ar
    15     6     1   ar
    16    17    18   ar
    17    18    19   ar
    18    19    20   ar
    19    20    21   ar
    20    21    22   ar
    21    22    17   ar
    22    24    25   ar
    23    25    26   ar
    24    26    29   ar
    25    29    28   ar
    26    28    27   ar
    27    27    24   ar
    28    30    31   ar
    29    31    32   ar
    30    32    33   ar
    31    33    34   ar
    32    34    35   ar
    33    35    30   ar
    34     7     8   ar
    35     8     9   ar
    36     9    10   ar
    37    10    12   ar
    38    12    11   ar
    39    11     7   ar
