@<TRIPOS>MOLECULE
No_163-gen_results/8p0m/2024-11-26-14-13-15/
 25 27 0 0 0
SMALL
GASTEIGER

@<TRIPOS>ATOM
      1 C         -28.0162   -0.8135   28.8779 C.ar    1  UNL1        0.0421
      2 C         -28.4690   -0.7850   29.8287 C.ar    1  UNL1        0.0581
      3 C         -27.1356    0.2359   28.5352 C.ar    1  UNL1        0.1454
      4 C         -26.8050    1.0509   29.2763 C.ar    1  UNL1        0.0375
      5 C         -28.2372    0.1503   30.9300 C.ar    1  UNL1        0.0048
      6 C         -27.3522    1.1239   30.6071 C.ar    1  UNL1        0.0033
      7 O         -26.5358    0.1657   27.2407 O.3     1  UNL1       -0.4535
      8 C         -26.9862    0.7672   26.1889 C.ar    1  UNL1        0.1450
      9 C         -26.5882    0.3736   25.0252 C.ar    1  UNL1        0.0375
     10 C         -27.4006    2.0379   26.2345 C.ar    1  UNL1        0.0336
     11 C         -27.9041    2.6963   25.1221 C.ar    1  UNL1       -0.0148
     12 C         -27.0960    0.8667   23.8008 C.ar    1  UNL1        0.0028
     13 C         -27.6797    2.1580   23.8749 C.ar    1  UNL1       -0.0037
     14 C         -29.4579   -1.9521   30.3385 C.2     1  UNL1        0.2649
     15 N         -30.0838   -1.8080   31.3780 N.am    1  UNL1       -0.1998
     16 O         -29.4278   -2.9933   29.7207 O.2     1  UNL1       -0.2684
     17 C         -30.9722   -2.8830   31.9200 C.3     1  UNL1        0.1388
     18 C         -28.5579    4.0364   25.2496 C.3     1  UNL1        0.0527
     19 C         -29.6033    4.0377   26.2993 C.ar    1  UNL1       -0.0176
     20 C         -30.5957    4.9616   26.1037 C.ar    1  UNL1       -0.0007
     21 C         -30.2935    2.7524   26.6053 C.ar    1  UNL1       -0.0007
     22 C         -31.3067    2.5175   26.7573 C.ar    1  UNL1        0.0417
     23 C         -31.9679    4.8645   26.5757 C.ar    1  UNL1        0.0417
     24 C         -32.3352    3.5712   26.8327 C.ar    1  UNL1        0.1957
     25 O         -33.6271    3.3198   27.1781 O.3     1  UNL1       -0.2866
@<TRIPOS>BOND
     1     3     7    1
     2     7     8    1
     3     2    14    1
     4    14    15   am
     5    14    16    2
     6    15    17    1
     7    11    18    1
     8    18    19    1
     9    24    25    1
    10    19    20   ar
    11    20    23   ar
    12    23    24   ar
    13    24    22   ar
    14    22    21   ar
    15    21    19   ar
    16     8     9   ar
    17     9    12   ar
    18    12    13   ar
    19    13    11   ar
    20    11    10   ar
    21    10     8   ar
    22     1     2   ar
    23     2     5   ar
    24     5     6   ar
    25     6     4   ar
    26     4     3   ar
    27     3     1   ar
