@<TRIPOS>MOLECULE
No_1631-gen_results/8p0m/2024-11-26-14-13-15/
 28 29 0 0 0
SMALL
GASTEIGER

@<TRIPOS>ATOM
      1 C         -28.0162   -0.8135   28.8779 C.ar    1  UNL1        0.0103
      2 C         -27.0636   -0.1189   28.6079 C.ar    1  UNL1        0.0715
      3 C         -25.7647   -0.3897   29.0360 C.ar    1  UNL1        0.0050
      4 C         -25.5296   -1.5302   29.9014 C.ar    1  UNL1        0.0437
      5 C         -24.3236   -1.9076   30.4324 C.3     1  UNL1        0.3410
      6 C         -27.9274   -1.9227   29.7902 C.ar    1  UNL1        0.0755
      7 C         -26.6914   -2.2806   30.2948 C.ar    1  UNL1        0.0076
      8 F         -23.7750   -2.8305   29.8519 F       1  UNL1       -0.1933
      9 F         -23.8103   -1.3452   31.4340 F       1  UNL1       -0.1933
     10 C         -29.0891   -2.7207   30.2413 C.2     1  UNL1        0.3417
     11 O         -29.0862   -3.8780   30.5233 O.2     1  UNL1       -0.2449
     12 O         -30.2122   -2.0995   30.3775 O.3     1  UNL1       -0.4353
     13 C         -27.1143    1.0009   27.6006 C.3     1  UNL1        0.4186
     14 F         -26.5411    0.9318   26.6076 F       1  UNL1       -0.1659
     15 F         -28.4707    1.2016   27.3120 F       1  UNL1       -0.1659
     16 F         -26.8090    2.1984   28.2452 F       1  UNL1       -0.1659
     17 C         -31.4050   -2.7161   30.4211 C.3     1  UNL1        0.2929
     18 C         -32.4993   -2.1008   29.7318 C.2     1  UNL1        0.2706
     19 O         -32.5421   -0.8880   29.5858 O.2     1  UNL1       -0.2708
     20 N         -33.3744   -2.8427   29.0517 N.am    1  UNL1       -0.2706
     21 C         -34.4314   -2.3376   28.1779 C.3     1  UNL1        0.1153
     22 C         -33.3942   -4.3185   29.1462 C.3     1  UNL1        0.1203
     23 C         -33.5122   -4.9562   30.1080 C.ar    1  UNL1       -0.0023
     24 C         -33.9752   -4.4196   31.3075 C.ar    1  UNL1       -0.0026
     25 C         -34.1187   -5.2404   32.5341 C.ar    1  UNL1       -0.0003
     26 C         -33.7506   -6.5784   32.3695 C.ar    1  UNL1       -0.0000
     27 C         -33.2670   -7.1395   31.2475 C.ar    1  UNL1       -0.0003
     28 C         -33.1014   -6.3323   30.1055 C.ar    1  UNL1       -0.0026
@<TRIPOS>BOND
     1     4     5    1
     2     5     8    1
     3     5     9    1
     4     6    10    1
     5    10    11    2
     6    10    12    1
     7     2    13    1
     8    13    14    1
     9    13    15    1
    10    13    16    1
    11    12    17    1
    12    17    18    1
    13    18    19    2
    14    18    20   am
    15    20    21    1
    16    20    22    1
    17    22    23    1
    18    23    24   ar
    19    24    25   ar
    20    25    26   ar
    21    26    27   ar
    22    27    28   ar
    23    28    23   ar
    24     1     2   ar
    25     2     3   ar
    26     3     4   ar
    27     4     7   ar
    28     7     6   ar
    29     6     1   ar
