@<TRIPOS>MOLECULE
No_1633-gen_results/8p0m/2024-11-26-14-13-15/
 16 18 0 0 0
SMALL
GASTEIGER

@<TRIPOS>ATOM
      1 C         -28.0162   -0.8135   28.8779 C.ar    1  UNL1        0.0000
      2 C         -27.0636   -0.1189   28.6079 C.ar    1  UNL1        0.0000
      3 C         -25.7647   -0.3897   29.0360 C.ar    1  UNL1        0.0000
      4 C         -24.5516    0.4058   28.7646 C.ar    1  UNL1        0.0000
      5 C         -23.2300    0.1178   29.2575 C.ar    1  UNL1        0.0000
      6 C         -23.0942   -1.1309   29.8730 C.ar    1  UNL1        0.0000
      7 C         -27.7980   -1.9341   29.8560 C.ar    1  UNL1        0.0000
      8 C         -26.5420   -2.3269   30.2580 C.ar    1  UNL1        0.0000
      9 C         -25.4514   -1.5516   29.9079 C.ar    1  UNL1        0.0000
     10 C         -24.1562   -1.9097   30.2809 C.ar    1  UNL1        0.0000
     11 C         -24.6450    1.6582   27.9464 C.ar    1  UNL1        0.0000
     12 C         -24.8958    2.7559   28.5615 C.ar    1  UNL1        0.0000
     13 C         -25.7918    3.5939   28.0297 C.ar    1  UNL1        0.0000
     14 C         -25.9449    3.5871   26.6052 C.ar    1  UNL1        0.0000
     15 C         -24.6850    1.5903   26.5474 C.ar    1  UNL1        0.0000
     16 C         -25.3254    2.6121   25.9912 C.ar    1  UNL1        0.0000
@<TRIPOS>BOND
     1     4    11    1
     2    11    12   ar
     3    12    13   ar
     4    13    14   ar
     5    14    16   ar
     6    16    15   ar
     7    15    11   ar
     8     1     2   ar
     9     2     3   ar
    10     9     8   ar
    11     8     7   ar
    12     7     1   ar
    13     3     4   ar
    14     4     5   ar
    15     5     6   ar
    16     6    10   ar
    17    10     9   ar
    18     9     3   ar
