@<TRIPOS>MOLECULE
No_1635-gen_results/8p0m/2024-11-26-14-13-15/
 15 17 0 0 0
SMALL
GASTEIGER

@<TRIPOS>ATOM
      1 O         -28.1229   -1.3353   28.4874 O.2     1  UNL1       -0.2699
      2 C         -28.5208   -0.4363   29.0779 C.2     1  UNL1        0.2487
      3 C         -29.6977    0.0507   28.9764 C.ar    1  UNL1        0.0497
      4 N         -27.4735    0.3426   29.7907 N.am    1  UNL1       -0.2774
      5 C         -27.8125    1.4527   30.5890 C.3     1  UNL1        0.0800
      6 C         -30.6222   -0.3879   28.2063 C.ar    1  UNL1        0.0042
      7 C         -29.1203    1.8292   30.4734 C.3     1  UNL1        0.0463
      8 C         -30.0367    1.2835   29.7459 C.ar    1  UNL1       -0.0161
      9 C         -31.6353    0.3136   27.8463 C.ar    1  UNL1        0.0001
     10 C         -32.0600    1.4251   28.5797 C.ar    1  UNL1       -0.0003
     11 C         -31.2381    1.9331   29.4945 C.ar    1  UNL1       -0.0041
     12 C         -26.0920   -0.3153   30.0034 C.3     1  UNL1        0.0937
     13 C         -25.4132    0.0178   30.8213 C.3     1  UNL1        0.0216
     14 C         -25.5996    1.3343   31.5371 C.3     1  UNL1        0.0035
     15 C         -26.8553    1.9371   31.4719 C.3     1  UNL1        0.0202
@<TRIPOS>BOND
     1     1     2    2
     2     2     3    1
     3     2     4   am
     4     4     5    1
     5     5     7    1
     6     4    12    1
     7    13    14    1
     8     5    15    1
     9     8     7    1
    10    15    14    1
    11    13    12    1
    12     3     6   ar
    13     6     9   ar
    14     9    10   ar
    15    10    11   ar
    16    11     8   ar
    17     8     3   ar
