@<TRIPOS>MOLECULE
No_1636-gen_results/8p0m/2024-11-26-14-13-15/
 26 28 0 0 0
SMALL
GASTEIGER

@<TRIPOS>ATOM
      1 O         -28.1229   -1.3353   28.4874 O.2     1  UNL1       -0.2723
      2 C         -27.4806   -0.4044   28.7094 C.2     1  UNL1        0.2533
      3 C         -26.3804   -0.0867   27.9394 C.3     1  UNL1        0.1223
      4 N         -27.6664    0.4468   29.8988 N.am    1  UNL1       -0.1787
      5 C         -25.1773   -0.4388   28.3946 C.ar    1  UNL1       -0.0097
      6 C         -26.5259    0.6036   26.6867 C.2     1  UNL1       -0.0175
      7 C         -24.8099   -1.1180   29.5646 C.ar    1  UNL1       -0.0035
      8 C         -26.9560    1.5703   30.2630 C.ar    1  UNL1        0.0734
      9 C         -26.9574    1.7767   31.4608 C.ar    1  UNL1        0.0166
     10 C         -23.5530   -1.5597   29.8834 C.ar    1  UNL1       -0.0003
     11 C         -22.5089   -1.0601   29.0780 C.ar    1  UNL1       -0.0000
     12 C         -22.6783   -0.1146   28.0825 C.ar    1  UNL1       -0.0003
     13 C         -23.9886    0.1357   27.6956 C.ar    1  UNL1       -0.0035
     14 C         -26.1759    2.9153   31.9961 C.ar    1  UNL1        0.0013
     15 C         -25.4739    3.7599   31.0858 C.ar    1  UNL1        0.0001
     16 C         -25.4908    3.3946   29.7472 C.ar    1  UNL1        0.0013
     17 C         -26.1950    2.2978   29.3474 C.ar    1  UNL1        0.0166
     18 C         -27.2459    0.1350   25.7056 C.2     1  UNL1       -0.0296
     19 C         -27.4143    0.8732   24.5047 C.3     1  UNL1        0.0304
     20 C         -28.4144    0.5610   23.6492 C.3     1  UNL1        0.0310
     21 C         -29.2962   -0.5092   24.0273 C.ar    1  UNL1       -0.0218
     22 C         -30.3010   -0.9214   23.2399 C.ar    1  UNL1       -0.0043
     23 C         -31.5127   -1.1394   23.9594 C.ar    1  UNL1       -0.0003
     24 C         -31.6174   -1.6363   25.2766 C.ar    1  UNL1       -0.0000
     25 C         -30.5232   -1.0841   26.0877 C.ar    1  UNL1       -0.0003
     26 C         -29.5018   -0.4476   25.5565 C.ar    1  UNL1       -0.0043
@<TRIPOS>BOND
     1     1     2    2
     2     2     3    1
     3     2     4   am
     4     3     5    1
     5     3     6    1
     6     4     8    1
     7     6    18    2
     8    18    19    1
     9    19    20    1
    10    20    21    1
    11     5     7   ar
    12     7    10   ar
    13    10    11   ar
    14    11    12   ar
    15    12    13   ar
    16    13     5   ar
    17     8     9   ar
    18     9    14   ar
    19    14    15   ar
    20    15    16   ar
    21    16    17   ar
    22    17     8   ar
    23    21    22   ar
    24    22    23   ar
    25    23    24   ar
    26    24    25   ar
    27    25    26   ar
    28    26    21   ar
