@<TRIPOS>MOLECULE
No_1637-gen_results/8p0m/2024-11-26-14-13-15/
 22 24 0 0 0
SMALL
GASTEIGER

@<TRIPOS>ATOM
      1 C         -28.0162   -0.8135   28.8779 C.3     1  UNL1        0.1004
      2 C         -27.0636   -0.1189   28.6079 C.ar    1  UNL1        0.0072
      3 C         -27.0010    0.6913   27.4910 C.ar    1  UNL1        0.0454
      4 C         -25.8548    1.4825   27.0830 C.ar    1  UNL1        0.0222
      5 C         -24.6901    1.4526   27.8807 C.ar    1  UNL1        0.0987
      6 C         -24.7379    0.6010   29.0416 C.ar    1  UNL1        0.0078
      7 C         -25.8234   -0.1688   29.3887 C.ar    1  UNL1       -0.0014
      8 N         -28.7568   -0.5479   30.0191 N.3     1  UNL1       -0.2689
      9 C         -29.7597   -1.3260   30.5171 C.3     1  UNL1        0.0724
     10 C         -30.3964   -0.9170   31.6880 C.3     1  UNL1        0.0174
     11 C         -28.5369    0.6053   30.8302 C.3     1  UNL1        0.0724
     12 C         -29.1462    0.9775   31.9134 C.3     1  UNL1        0.0174
     13 C         -30.1143    0.2013   32.3866 C.3     1  UNL1        0.0029
     14 C         -23.4890    2.1544   27.5405 C.2     1  UNL1        0.4766
     15 N         -23.3273    2.6232   26.2969 N.pl3   1  UNL1        0.2047
     16 N         -22.3412    2.0330   28.2759 N.pl3   1  UNL1        0.2047
     17 N         -28.0479    0.7852   26.6250 N.pl3   1  UNL1       -0.3077
     18 C         -29.0597    1.4777   26.8542 C.3     1  UNL1        0.0908
     19 C         -30.2091    1.3906   26.0190 C.3     1  UNL1        0.0215
     20 C         -28.0259    0.1830   25.3616 C.3     1  UNL1        0.0908
     21 C         -29.0189    0.0846   24.4638 C.3     1  UNL1        0.0215
     22 C         -30.1493    0.8080   24.8073 C.3     1  UNL1        0.0035
@<TRIPOS>BOND
     1     1     2    1
     2     1     8    1
     3     8     9    1
     4     8    11    1
     5    10    13    1
     6    12    13    1
     7     5    14    1
     8    14    15    2
     9    14    16    1
    10     3    17    1
    11    17    18    1
    12    17    20    1
    13    19    22    1
    14    21    22    1
    15    18    19    1
    16    21    20    1
    17     9    10    1
    18    12    11    1
    19     2     3   ar
    20     3     4   ar
    21     4     5   ar
    22     5     6   ar
    23     6     7   ar
    24     7     2   ar
