@<TRIPOS>MOLECULE
No_1638-gen_results/8p0m/2024-11-26-14-13-15/
 12 12 0 0 0
SMALL
GASTEIGER

@<TRIPOS>ATOM
      1 C         -28.0162   -0.8135   28.8779 C.ar    1  UNL1       -0.0018
      2 C         -27.0636   -0.1190   28.6079 C.ar    1  UNL1        0.0080
      3 C         -25.7923   -0.4302   29.0761 C.ar    1  UNL1       -0.0018
      4 C         -25.5756   -1.5654   29.9363 C.ar    1  UNL1       -0.0002
      5 C         -26.7354   -2.3004   30.2173 C.ar    1  UNL1       -0.0000
      6 C         -27.9184   -1.9537   29.7629 C.ar    1  UNL1       -0.0002
      7 C         -27.1057    1.1023   27.7593 C.3     1  UNL1        0.1707
      8 N         -26.2345    1.4562   27.0152 N.pl3   1  UNL1       -0.2206
      9 BR        -28.7141    2.0674   27.7255 Br      1  UNL1       -0.0528
     10 C         -25.1931    2.0331   27.1721 C.2     1  UNL1        0.1008
     11 C         -24.7633    2.6930   28.2271 C.2     1  UNL1        0.1231
     12 N         -23.3924    3.1413   28.2122 N.pl3   1  UNL1       -0.1252
@<TRIPOS>BOND
     1     2     7    1
     2     7     8    1
     3     7     9    1
     4     8    10    1
     5    10    11    2
     6    11    12    1
     7     1     2   ar
     8     2     3   ar
     9     3     4   ar
    10     4     5   ar
    11     5     6   ar
    12     6     1   ar
