@<TRIPOS>MOLECULE
No_1639-gen_results/8p0m/2024-11-26-14-13-15/
 22 24 0 0 0
SMALL
GASTEIGER

@<TRIPOS>ATOM
      1 C         -28.0162   -0.8135   28.8779 C.ar    1  UNL1        0.0411
      2 C         -27.0636   -0.1190   28.6079 C.ar    1  UNL1        0.0527
      3 C         -25.7923   -0.4302   29.0761 C.ar    1  UNL1       -0.0159
      4 C         -25.5681   -1.2411   29.7572 C.ar    1  UNL1       -0.0010
      5 C         -26.6114   -2.1840   30.2439 C.ar    1  UNL1        0.0366
      6 C         -27.8191   -1.9189   29.8034 C.ar    1  UNL1        0.1393
      7 O         -28.8528   -2.7193   30.2109 O.3     1  UNL1       -0.4672
      8 C         -29.1753   -2.8477   31.5232 C.3     1  UNL1        0.2752
      9 C         -29.8608   -1.8299   32.0483 C.3     1  UNL1        0.2776
     10 CL        -30.5908   -0.8878   31.1844 Cl      1  UNL1       -0.0748
     11 O         -28.9650   -0.9890   32.8157 O.3     1  UNL1       -0.2007
     12 C         -27.2437    1.0360   27.6130 C.2     1  UNL1        0.2488
     13 O         -28.2230    1.3344   27.2711 O.2     1  UNL1       -0.2699
     14 N         -26.1125    1.6808   27.1693 N.am    1  UNL1       -0.2774
     15 C         -26.2111    2.7469   26.1891 C.3     1  UNL1        0.0937
     16 C         -24.9386    3.3227   25.9912 C.3     1  UNL1        0.0216
     17 C         -23.6969    2.5654   26.2043 C.3     1  UNL1        0.0035
     18 C         -23.7707    1.4993   27.0969 C.3     1  UNL1        0.0202
     19 C         -24.8707    1.0997   27.4870 C.3     1  UNL1        0.0800
     20 C         -24.6919    0.2716   28.4310 C.3     1  UNL1        0.0463
     21 C         -29.0851   -4.2515   32.0201 C.2     1  UNL1        0.2547
     22 O         -28.8837   -5.2137   31.3355 O.2     1  UNL1       -0.2842
@<TRIPOS>BOND
     1     6     7    1
     2     7     8    1
     3     8     9    1
     4     9    10    1
     5     9    11    1
     6     2    12    1
     7    12    13    2
     8    12    14   am
     9    14    15    1
    10    16    17    1
    11    14    19    1
    12    18    19    1
    13     3    20    1
    14    19    20    1
    15     8    21    1
    16    21    22    2
    17    15    16    1
    18    17    18    1
    19     1     2   ar
    20     2     3   ar
    21     3     4   ar
    22     4     5   ar
    23     5     6   ar
    24     6     1   ar
