@<TRIPOS>MOLECULE
No_164-gen_results/8p0m/2024-11-26-14-13-15/
 19 20 0 0 0
SMALL
GASTEIGER

@<TRIPOS>ATOM
      1 C         -28.0162   -0.8135   28.8779 C.ar    1  UNL1        0.0293
      2 C         -28.4690   -0.7850   29.8287 C.ar    1  UNL1        0.1401
      3 C         -26.5455   -0.8762   28.8500 C.ar    1  UNL1       -0.0017
      4 C         -25.8041   -1.0324   30.0571 C.ar    1  UNL1       -0.0183
      5 C         -27.9437   -0.9869   31.2075 C.ar    1  UNL1        0.0293
      6 C         -26.5825   -1.0386   31.2231 C.ar    1  UNL1       -0.0017
      7 F         -29.9086   -0.7397   29.8642 F       1  UNL1       -0.2042
      8 C         -24.3767   -1.0979   30.0689 C.3     1  UNL1        0.0446
      9 C         -23.5963   -0.5404   29.1043 C.ar    1  UNL1       -0.0185
     10 C         -22.1327   -0.5733   29.2662 C.ar    1  UNL1       -0.0040
     11 C         -24.1221    0.2265   28.0697 C.ar    1  UNL1       -0.0001
     12 C         -23.2398    1.1151   27.3443 C.ar    1  UNL1        0.0711
     13 C         -21.3140    0.2074   28.4657 C.ar    1  UNL1       -0.0004
     14 C         -21.8219    1.0478   27.5618 C.ar    1  UNL1        0.0038
     15 C         -23.7635    2.0205   26.3219 C.3     1  UNL1        0.4186
     16 F         -24.6442    2.6312   26.6539 F       1  UNL1       -0.1659
     17 F         -22.7129    2.9016   25.9695 F       1  UNL1       -0.1659
     18 F         -24.0352    1.2442   25.2199 F       1  UNL1       -0.1659
     19 C         -23.8849   -0.4996   31.4250 C.3     1  UNL1        0.0094
@<TRIPOS>BOND
     1     2     7    1
     2     4     8    1
     3    12    15    1
     4    15    16    1
     5    15    17    1
     6    15    18    1
     7     8    19    1
     8     8     9    1
     9     9    10   ar
    10    10    13   ar
    11    13    14   ar
    12    14    12   ar
    13    12    11   ar
    14    11     9   ar
    15     1     2   ar
    16     2     5   ar
    17     5     6   ar
    18     6     4   ar
    19     4     3   ar
    20     3     1   ar
