@<TRIPOS>MOLECULE
No_1642-gen_results/8p0m/2024-11-26-14-13-15/
 6 5 0 0 0
SMALL
GASTEIGER

@<TRIPOS>ATOM
      1 C         -28.0162   -0.8135   28.8779 C.3     1  UNL1        0.1026
      2 C         -27.0636   -0.1189   28.6079 C.1     1  UNL1       -0.0731
      3 C         -27.0010    0.6913   27.4910 C.1     1  UNL1       -0.0138
      4 C         -27.9685   -1.6045   30.1257 C.2     1  UNL1       -0.0167
      5 C         -26.7302   -1.8813   30.7074 C.2     1  UNL1       -0.0293
      6 C         -25.5837   -1.2729   30.2513 C.3     1  UNL1        0.0304
@<TRIPOS>BOND
     1     1     2    1
     2     2     3    3
     3     1     4    1
     4     4     5    2
     5     5     6    1
