@<TRIPOS>MOLECULE
No_1643-gen_results/8p0m/2024-11-26-14-13-15/
 28 30 0 0 0
SMALL
GASTEIGER

@<TRIPOS>ATOM
      1 C         -28.0162   -0.8135   28.8779 C.ar    1  UNL1        0.0036
      2 C         -27.0636   -0.1189   28.6079 C.ar    1  UNL1        0.0181
      3 C         -25.7647   -0.3897   29.0360 C.ar    1  UNL1        0.0666
      4 C         -25.5296   -1.5302   29.9014 C.ar    1  UNL1        0.0681
      5 C         -26.6888   -2.2893   30.1810 C.ar    1  UNL1        0.0168
      6 C         -27.8727   -1.9508   29.7373 C.ar    1  UNL1        0.0561
      7 CL        -24.3819    0.5593   28.6789 Cl      1  UNL1       -0.0816
      8 C         -29.0263   -2.8156   30.1581 C.2     1  UNL1        0.2716
      9 N         -28.8777   -4.1041   30.3245 N.am    1  UNL1       -0.1371
     10 O         -30.1659   -2.3362   30.2934 O.2     1  UNL1       -0.2679
     11 C         -29.9240   -5.0616   30.6492 C.2     1  UNL1        0.2716
     12 C         -30.8276   -5.2722   29.6493 C.ar    1  UNL1        0.0577
     13 C         -30.6974   -5.0988   28.4811 C.ar    1  UNL1        0.0052
     14 C         -31.5200   -5.4515   27.3721 C.ar    1  UNL1        0.0091
     15 C         -32.7319   -6.0451   27.6896 C.ar    1  UNL1        0.0620
     16 C         -32.9973   -6.2924   29.0433 C.ar    1  UNL1        0.1464
     17 C         -32.0578   -5.9749   30.0589 C.ar    1  UNL1        0.0347
     18 O         -29.8087   -5.5793   31.8084 O.2     1  UNL1       -0.2679
     19 BR        -34.0572   -6.4208   26.4833 Br      1  UNL1       -0.0467
     20 C         -26.9487    1.0949   27.6143 C.3     1  UNL1        0.1542
     21 N         -26.4683    1.0629   26.4510 N.pl3   1  UNL1       -0.2954
     22 C         -25.9655    0.1556   25.9104 C.2     1  UNL1        0.0576
     23 C         -25.3288    0.3537   24.5704 C.2     1  UNL1       -0.0086
     24 BR        -28.0800    2.4867   28.2769 Br      1  UNL1       -0.0545
     25 C         -26.6409    2.1263   25.5169 C.3     1  UNL1        0.0965
     26 C         -25.8631    1.6001   24.4079 C.3     1  UNL1        0.0488
     27 CL        -23.9825   -1.9287   30.4531 Cl      1  UNL1       -0.0814
     28 F         -34.1481   -6.8840   29.3692 F       1  UNL1       -0.2037
@<TRIPOS>BOND
     1     3     7    1
     2     6     8    1
     3     8     9   am
     4     8    10    2
     5     9    11   am
     6    11    12    1
     7    11    18    2
     8    15    19    1
     9     2    20    1
    10    20    21    1
    11    21    22    1
    12    22    23    2
    13    20    24    1
    14    21    25    1
    15    23    26    1
    16    25    26    1
    17     4    27    1
    18    16    28    1
    19    12    13   ar
    20    13    14   ar
    21    14    15   ar
    22    15    16   ar
    23    16    17   ar
    24    17    12   ar
    25     1     2   ar
    26     2     3   ar
    27     3     4   ar
    28     4     5   ar
    29     5     6   ar
    30     6     1   ar
