@<TRIPOS>MOLECULE
No_1645-gen_results/8p0m/2024-11-26-14-13-15/
 12 13 0 0 0
SMALL
GASTEIGER

@<TRIPOS>ATOM
      1 C         -28.0162   -0.8135   28.8779 C.ar    1  UNL1       -0.0017
      2 C         -28.4690   -0.7850   29.8287 C.ar    1  UNL1        0.0106
      3 C         -27.0871    0.2903   28.6377 C.ar    1  UNL1       -0.0002
      4 C         -26.7676    1.0274   29.4716 C.ar    1  UNL1       -0.0000
      5 C         -29.4593   -1.9217   30.2024 C.3     1  UNL1        0.2086
      6 C         -27.3079    1.0334   30.7802 C.ar    1  UNL1       -0.0002
      7 C         -28.2256   -0.0215   31.0470 C.ar    1  UNL1       -0.0017
      8 O         -29.9014   -1.8474   31.4731 O.3     1  UNL1       -0.2152
      9 C         -26.3741    0.3458   27.2383 C.ar    1  UNL1       -0.0000
     10 C         -25.2296    0.9112   27.0527 C.ar    1  UNL1       -0.0000
     11 C         -24.7414    1.7634   28.1644 C.ar    1  UNL1       -0.0000
     12 C         -25.4268    1.8136   29.3665 C.ar    1  UNL1       -0.0000
@<TRIPOS>BOND
     1     2     5    1
     2     5     8    1
     3     4    12   ar
     4    12    11   ar
     5    11    10   ar
     6    10     9   ar
     7     9     3   ar
     8     1     2   ar
     9     2     7   ar
    10     7     6   ar
    11     6     4   ar
    12     4     3   ar
    13     3     1   ar
