@<TRIPOS>MOLECULE
No_1647-gen_results/8p0m/2024-11-26-14-13-15/
 35 37 0 0 0
SMALL
GASTEIGER

@<TRIPOS>ATOM
      1 C         -28.0162   -0.8135   28.8779 C.ar    1  UNL1        0.0045
      2 C         -28.4690   -0.7850   29.8287 C.ar    1  UNL1        0.0536
      3 C         -26.5042   -0.7777   28.8766 C.ar    1  UNL1        0.0001
      4 C         -25.9500    0.1157   29.4052 C.ar    1  UNL1       -0.0005
      5 C         -27.9964    0.1190   30.9527 C.ar    1  UNL1        0.0045
      6 C         -26.6037    0.4647   30.8030 C.ar    1  UNL1        0.0001
      7 C         -29.8281   -1.2296   30.0522 C.2     1  UNL1        0.2491
      8 O         -30.7587   -0.9918   29.3056 O.2     1  UNL1       -0.2699
      9 N         -30.0716   -2.1418   31.1730 N.am    1  UNL1       -0.2726
     10 C         -31.3493   -2.7989   31.3253 C.3     1  UNL1        0.1152
     11 C         -29.0419   -2.4727   32.1433 C.3     1  UNL1        0.1152
     12 C         -24.5311    0.4381   29.3739 C.ar    1  UNL1       -0.0058
     13 C         -23.5286   -0.3674   29.6896 C.ar    1  UNL1        0.0053
     14 C         -23.4588   -1.4354   30.4291 C.3     1  UNL1        0.0334
     15 C         -22.1973   -0.1049   29.0120 C.ar    1  UNL1        0.1361
     16 F         -21.3214   -0.9714   29.0998 F       1  UNL1       -0.2045
     17 C         -21.9684    0.9790   28.1160 C.ar    1  UNL1        0.0290
     18 C         -22.9738    1.8493   27.8039 C.ar    1  UNL1       -0.0020
     19 C         -24.2382    1.4140   28.1007 C.ar    1  UNL1       -0.0225
     20 C         -25.3677    2.3508   27.7413 C.3     1  UNL1        0.0260
     21 C         -25.7486    2.2393   26.5227 C.3     1  UNL1        0.0048
     22 C         -25.1288    3.7606   28.2508 C.3     1  UNL1        0.0506
     23 C         -26.3249    4.6029   28.4755 C.3     1  UNL1        0.1992
     24 O         -26.2920    5.2412   29.5038 O.2     1  UNL1       -0.4722
     25 C         -27.2692    5.7858   30.1482 C.2     1  UNL1        0.2191
     26 C         -28.3328    5.2294   30.1288 C.2     1  UNL1        0.1060
     27 C         -28.7117    4.6323   28.8396 C.3     1  UNL1        0.2213
     28 C         -27.5147    3.7248   28.4025 C.3     1  UNL1        0.2268
     29 O         -28.8544    5.6053   27.8424 O.3     1  UNL1       -0.2144
     30 CL        -29.7787    6.1603   30.6825 Cl      1  UNL1       -0.0812
     31 C         -26.9876    7.0489   30.9275 C.3     1  UNL1        0.4511
     32 F         -26.0305    7.4075   30.9164 F       1  UNL1       -0.1632
     33 F         -27.2969    6.7343   32.2442 F       1  UNL1       -0.1632
     34 F         -27.7835    7.9617   30.3973 F       1  UNL1       -0.1632
     35 O         -27.4739    2.6811   29.3306 O.3     1  UNL1       -0.2161
@<TRIPOS>BOND
     1     2     7    1
     2     7     8    2
     3     7     9   am
     4     9    10    1
     5     9    11    1
     6     4    12    1
     7    13    14    1
     8    15    16    1
     9    19    20    1
    10    20    21    1
    11    20    22    1
    12    22    23    1
    13    23    24    1
    14    24    25    1
    15    25    26    2
    16    26    27    1
    17    23    28    1
    18    27    28    1
    19    27    29    1
    20    26    30    1
    21    25    31    1
    22    31    32    1
    23    31    33    1
    24    31    34    1
    25    28    35    1
    26    12    13   ar
    27    13    15   ar
    28    15    17   ar
    29    17    18   ar
    30    18    19   ar
    31    19    12   ar
    32     1     2   ar
    33     2     5   ar
    34     5     6   ar
    35     6     4   ar
    36     4     3   ar
    37     3     1   ar
