@<TRIPOS>MOLECULE
No_1648-gen_results/8p0m/2024-11-26-14-13-15/
 11 12 0 0 0
SMALL
GASTEIGER

@<TRIPOS>ATOM
      1 O         -28.1229   -1.3353   28.4874 O.2     1  UNL1       -0.2684
      2 C         -27.4806   -0.4044   28.7094 C.2     1  UNL1        0.2645
      3 C         -27.1904    0.2460   29.5268 C.ar    1  UNL1        0.0511
      4 N         -26.6021   -0.1576   27.5515 N.am    1  UNL1       -0.2013
      5 C         -25.6821    0.8355   27.5846 C.3     1  UNL1        0.1201
      6 C         -27.9875    0.0498   30.8883 C.ar    1  UNL1        0.0042
      7 C         -25.5187    1.5770   28.7207 C.3     1  UNL1        0.0499
      8 C         -26.2243    1.3434   29.7702 C.ar    1  UNL1       -0.0160
      9 C         -27.8262    0.2818   31.8800 C.ar    1  UNL1        0.0001
     10 C         -26.7797    1.4568   32.0824 C.ar    1  UNL1       -0.0003
     11 C         -25.9770    1.8694   31.0758 C.ar    1  UNL1       -0.0041
@<TRIPOS>BOND
     1     1     2    2
     2     2     3    1
     3     2     4   am
     4     5     7    1
     5     8     7    1
     6     5     4    1
     7     3     6   ar
     8     6     9   ar
     9     9    10   ar
    10    10    11   ar
    11    11     8   ar
    12     8     3   ar
