@<TRIPOS>MOLECULE
No_1649-gen_results/8p0m/2024-11-26-14-13-15/
 11 11 0 0 0
SMALL
GASTEIGER

@<TRIPOS>ATOM
      1 C         -28.0162   -0.8135   28.8779 C.ar    1  UNL1        0.0297
      2 C         -28.4690   -0.7850   29.8287 C.ar    1  UNL1        0.1401
      3 C         -26.5042   -0.7777   28.8766 C.ar    1  UNL1        0.0050
      4 C         -25.8103   -0.8531   30.1028 C.ar    1  UNL1        0.0290
      5 C         -27.9906   -0.8916   31.2257 C.ar    1  UNL1        0.0297
      6 C         -26.6042   -0.8676   31.2652 C.ar    1  UNL1        0.0050
      7 F         -29.9203   -0.8331   29.8239 F       1  UNL1       -0.2042
      8 P         -24.0852   -0.8052   30.1523 P.3     1  UNL1        0.1395
      9 O         -23.5860   -1.9272   29.6259 O.3     1  UNL1       -0.3542
     10 O         -23.6424   -0.6997   31.6175 O.3     1  UNL1       -0.3542
     11 O         -23.6997    0.4709   29.4360 O.2     1  UNL1       -0.4557
@<TRIPOS>BOND
     1     2     7    1
     2     4     8    1
     3     8     9    1
     4     8    10    1
     5     8    11    2
     6     1     2   ar
     7     2     5   ar
     8     5     6   ar
     9     6     4   ar
    10     4     3   ar
    11     3     1   ar
