@<TRIPOS>MOLECULE
No_165-gen_results/8p0m/2024-11-26-14-13-15/
 7 6 0 0 0
SMALL
GASTEIGER

@<TRIPOS>ATOM
      1 C         -28.0162   -0.8135   28.8779 C.3     1  UNL1        0.0520
      2 C         -27.0636   -0.1189   28.6079 C.2     1  UNL1       -0.0214
      3 C         -25.7923   -0.4302   29.0761 C.2     1  UNL1       -0.0042
      4 C         -25.5756   -1.5654   29.9363 C.2     1  UNL1       -0.0003
      5 C         -24.3722   -1.9422   30.4466 C.2     1  UNL1       -0.0000
      6 C         -27.9640   -1.9247   29.7899 C.2     1  UNL1       -0.0214
      7 C         -26.7624   -2.3055   30.3031 C.2     1  UNL1       -0.0046
@<TRIPOS>BOND
     1     1     2    1
     2     2     3    2
     3     3     4    1
     4     4     5    2
     5     1     6    1
     6     6     7    2
