@<TRIPOS>MOLECULE
No_1651-gen_results/8p0m/2024-11-26-14-13-15/
 17 18 0 0 0
SMALL
GASTEIGER

@<TRIPOS>ATOM
      1 C         -28.0162   -0.8135   28.8779 C.ar    1  UNL1        0.0045
      2 C         -28.4690   -0.7850   29.8287 C.ar    1  UNL1        0.0536
      3 C         -26.5042   -0.7777   28.8766 C.ar    1  UNL1        0.0001
      4 C         -25.8103   -0.8531   30.1028 C.ar    1  UNL1        0.0000
      5 C         -27.9906   -0.8916   31.2257 C.ar    1  UNL1        0.0045
      6 C         -26.4962   -0.8058   31.1829 C.ar    1  UNL1        0.0001
      7 C         -30.0619   -0.8389   29.8957 C.2     1  UNL1        0.2490
      8 O         -30.6760   -1.6924   30.3121 O.2     1  UNL1       -0.2699
      9 N         -30.6163    0.0187   28.8742 N.am    1  UNL1       -0.2761
     10 C         -31.9941   -0.0648   28.6265 C.3     1  UNL1        0.0940
     11 C         -32.2948    0.1814   27.3579 C.3     1  UNL1        0.0243
     12 C         -33.1416   -0.2628   26.6889 C.3     1  UNL1        0.0277
     13 C         -31.1884    0.8867   26.5423 C.3     1  UNL1        0.0038
     14 C         -29.9377    1.2706   27.0571 C.3     1  UNL1        0.0216
     15 C         -29.6468    0.6287   28.1237 C.3     1  UNL1        0.0937
     16 C         -34.1563   -1.0853   27.3241 C.2     1  UNL1       -0.0261
     17 C         -35.2972   -1.6559   26.6480 C.2     1  UNL1       -0.0049
@<TRIPOS>BOND
     1     2     7    1
     2     7     8    2
     3     7     9   am
     4     9    10    1
     5    10    11    1
     6    11    13    1
     7     9    15    1
     8    14    15    1
     9    12    16    1
    10    16    17    2
    11    12    11    1
    12    13    14    1
    13     1     2   ar
    14     2     5   ar
    15     5     6   ar
    16     6     4   ar
    17     4     3   ar
    18     3     1   ar
