@<TRIPOS>MOLECULE
No_1652-gen_results/8p0m/2024-11-26-14-13-15/
 13 14 0 0 0
SMALL
GASTEIGER

@<TRIPOS>ATOM
      1 C         -28.0162   -0.8135   28.8779 C.ar    1  UNL1        0.0000
      2 C         -27.0636   -0.1190   28.6079 C.ar    1  UNL1        0.0000
      3 C         -27.0010    0.6913   27.4910 C.ar    1  UNL1        0.0002
      4 C         -25.8548    1.4825   27.0830 C.ar    1  UNL1        0.0066
      5 C         -24.6901    1.4526   27.8807 C.ar    1  UNL1        0.0798
      6 C         -24.7379    0.6010   29.0416 C.ar    1  UNL1        0.0066
      7 C         -25.8234   -0.1688   29.3887 C.ar    1  UNL1        0.0002
      8 C         -28.0352   -1.4960   30.2343 C.ar    1  UNL1        0.0000
      9 C         -26.8434   -1.6453   30.9623 C.ar    1  UNL1        0.0000
     10 C         -25.7466   -0.9161   30.5933 C.ar    1  UNL1        0.0000
     11 C         -23.5006    2.2359   27.5419 C.2     1  UNL1        0.3878
     12 O         -23.3865    2.7732   26.4173 O.co2   1  UNL1       -0.2406
     13 O         -22.4155    2.1480   28.2632 O.co2   1  UNL1       -0.2406
@<TRIPOS>BOND
     1     5    11    1
     2    11    12   ar
     3    11    13   ar
     4     2     3   ar
     5     3     4   ar
     6     4     5   ar
     7     5     6   ar
     8     6     7   ar
     9     1     2   ar
    10     2     7   ar
    11     7    10   ar
    12    10     9   ar
    13     9     8   ar
    14     8     1   ar
