@<TRIPOS>MOLECULE
No_1653-gen_results/8p0m/2024-11-26-14-13-15/
 10 10 0 0 0
SMALL
GASTEIGER

@<TRIPOS>ATOM
      1 C         -28.0162   -0.8135   28.8779 C.ar    1  UNL1       -0.0039
      2 C         -27.0636   -0.1190   28.6079 C.ar    1  UNL1       -0.0178
      3 C         -25.7923   -0.4302   29.0761 C.ar    1  UNL1       -0.0039
      4 C         -25.5756   -1.5654   29.9363 C.ar    1  UNL1       -0.0003
      5 C         -26.7354   -2.3004   30.2173 C.ar    1  UNL1       -0.0000
      6 C         -27.9184   -1.9537   29.7629 C.ar    1  UNL1       -0.0003
      7 C         -27.1057    1.1023   27.7593 C.3     1  UNL1        0.0520
      8 C         -27.8576    1.5309   27.2156 C.2     1  UNL1       -0.0260
      9 C         -29.2019    0.9365   27.3166 C.2     1  UNL1       -0.0300
     10 C         -29.5854   -0.0583   28.0376 C.3     1  UNL1        0.0304
@<TRIPOS>BOND
     1     2     7    1
     2     7     8    1
     3     8     9    2
     4     9    10    1
     5     1     2   ar
     6     2     3   ar
     7     3     4   ar
     8     4     5   ar
     9     5     6   ar
    10     6     1   ar
