@<TRIPOS>MOLECULE
No_1654-gen_results/8p0m/2024-11-26-14-13-15/
 13 14 0 0 0
SMALL
GASTEIGER

@<TRIPOS>ATOM
      1 C         -28.0162   -0.8135   28.8779 C.ar    1  UNL1        0.0296
      2 C         -28.4690   -0.7850   29.8287 C.ar    1  UNL1        0.0023
      3 C         -27.0871    0.2903   28.6377 C.ar    1  UNL1        0.1401
      4 C         -26.7676    1.0274   29.4716 C.ar    1  UNL1        0.0275
      5 C         -28.2764    0.0268   31.0145 C.ar    1  UNL1        0.0001
      6 C         -27.3287    1.0538   30.7535 C.ar    1  UNL1        0.0022
      7 C         -25.7516    2.1742   29.2500 C.ar    1  UNL1        0.0022
      8 C         -25.3424    2.8864   29.9134 C.ar    1  UNL1        0.0001
      9 C         -25.2436    2.1589   27.8082 C.ar    1  UNL1        0.0001
     10 C         -24.1809    2.9542   27.4277 C.ar    1  UNL1        0.0000
     11 C         -24.2743    3.9785   29.6727 C.ar    1  UNL1        0.0000
     12 C         -23.7285    3.9094   28.4134 C.ar    1  UNL1        0.0000
     13 F         -26.4850    0.2041   27.3491 F       1  UNL1       -0.2042
@<TRIPOS>BOND
     1     4     7    1
     2     3    13    1
     3     7     8   ar
     4     8    11   ar
     5    11    12   ar
     6    12    10   ar
     7    10     9   ar
     8     9     7   ar
     9     1     2   ar
    10     2     5   ar
    11     5     6   ar
    12     6     4   ar
    13     4     3   ar
    14     3     1   ar
