@<TRIPOS>MOLECULE
No_1655-gen_results/8p0m/2024-11-26-14-13-15/
 17 17 0 0 0
SMALL
GASTEIGER

@<TRIPOS>ATOM
      1 C         -28.0162   -0.8135   28.8779 C.ar    1  UNL1       -0.0003
      2 C         -28.4690   -0.7850   29.8287 C.ar    1  UNL1       -0.0000
      3 C         -26.5455   -0.8762   28.8500 C.ar    1  UNL1       -0.0039
      4 C         -25.8041   -1.0324   30.0571 C.ar    1  UNL1       -0.0181
      5 C         -27.9437   -0.9869   31.2075 C.ar    1  UNL1       -0.0003
      6 C         -26.5825   -1.0386   31.2231 C.ar    1  UNL1       -0.0039
      7 C         -24.3810   -1.1082   30.0855 C.3     1  UNL1        0.0483
      8 C         -23.7055    0.0955   29.8440 C.2     1  UNL1       -0.0397
      9 C         -22.4285    0.1160   29.2171 C.2     1  UNL1       -0.0340
     10 C         -21.8149    1.2942   28.8765 C.3     1  UNL1        0.0254
     11 C         -24.1974    1.3766   30.2708 C.3     1  UNL1        0.0480
     12 C         -25.4179    1.4203   31.0567 C.2     1  UNL1       -0.0218
     13 C         -20.7674    1.2145   27.8638 C.3     1  UNL1        0.0050
     14 C         -25.7878    2.8981   31.3953 C.2     1  UNL1       -0.0046
     15 C         -26.8155    3.2664   30.9946 C.2     1  UNL1       -0.0049
     16 C         -27.2201    4.6925   31.2219 C.2     1  UNL1       -0.0258
     17 C         -28.4143    5.2746   30.7369 C.3     1  UNL1        0.0307
@<TRIPOS>BOND
     1     4     7    1
     2     7     8    1
     3     8     9    2
     4     9    10    1
     5     8    11    1
     6    11    12    1
     7    10    13    1
     8    12    14    2
     9    14    15    1
    10    15    16    2
    11    16    17    1
    12     1     2   ar
    13     2     5   ar
    14     5     6   ar
    15     6     4   ar
    16     4     3   ar
    17     3     1   ar
