@<TRIPOS>MOLECULE
No_1656-gen_results/8p0m/2024-11-26-14-13-15/
 17 18 0 0 0
SMALL
GASTEIGER

@<TRIPOS>ATOM
      1 O         -28.1229   -1.3353   28.4874 O.2     1  UNL1       -0.2716
      2 C         -28.5208   -0.4363   29.0779 C.2     1  UNL1        0.2595
      3 C         -28.5894    0.5916   28.9464 C.3     1  UNL1        0.1537
      4 N         -29.3752   -0.9434   30.2659 N.am    1  UNL1       -0.2040
      5 N         -27.7039    1.2399   28.1408 N.am    1  UNL1       -0.2708
      6 C         -29.2956    1.7275   29.7766 C.3     1  UNL1        0.0311
      7 C         -30.1118   -0.1280   31.0732 C.3     1  UNL1        0.1153
      8 C         -30.0044    1.2133   30.8777 C.3     1  UNL1        0.0256
      9 C         -27.8988    1.3108   26.8147 C.3     1  UNL1        0.0977
     10 C         -26.7865    1.6126   25.9476 C.3     1  UNL1        0.0249
     11 C         -25.6387    1.5456   26.3549 C.3     1  UNL1        0.0116
     12 C         -25.1208    1.5401   27.2443 C.3     1  UNL1        0.0854
     13 C         -26.2085    1.2691   28.5383 C.2     1  UNL1        0.2261
     14 O         -25.7840    1.1028   29.6756 O.2     1  UNL1       -0.2749
     15 C         -29.2228    1.2205   26.3533 C.2     1  UNL1       -0.0112
     16 C         -30.0658    2.3006   26.6055 C.2     1  UNL1       -0.0287
     17 C         -31.4192    2.2736   26.2015 C.3     1  UNL1        0.0304
@<TRIPOS>BOND
     1     1     2    2
     2     2     3    1
     3     2     4   am
     4     3     5    1
     5     3     6    1
     6     4     7    1
     7     6     8    1
     8     5     9    1
     9    10    11    1
    10     5    13   am
    11    12    13    1
    12    13    14    2
    13     9    15    1
    14    15    16    2
    15    16    17    1
    16     9    10    1
    17    11    12    1
    18     8     7    1
