@<TRIPOS>MOLECULE
No_1657-gen_results/8p0m/2024-11-26-14-13-15/
 11 11 0 0 0
SMALL
GASTEIGER

@<TRIPOS>ATOM
      1 C         -28.0162   -0.8135   28.8779 C.ar    1  UNL1        0.0178
      2 C         -28.4690   -0.7850   29.8287 C.ar    1  UNL1        0.0687
      3 C         -26.5042   -0.7777   28.8766 C.ar    1  UNL1        0.0684
      4 C         -25.8103   -0.8531   30.1028 C.ar    1  UNL1        0.0682
      5 C         -30.0136   -0.8410   29.8508 C.2     1  UNL1        0.3335
      6 C         -26.5670   -0.8850   31.2517 C.ar    1  UNL1        0.0124
      7 C         -27.9410   -0.9069   31.1850 C.ar    1  UNL1        0.0065
      8 O         -30.5389   -0.4288   28.9958 O.2     1  UNL1       -0.2541
      9 F         -30.6943   -1.4225   30.8668 F       1  UNL1       -0.1586
     10 CL        -25.5225   -0.7025   27.4709 Cl      1  UNL1       -0.0814
     11 CL        -24.1003   -0.8016   30.1692 Cl      1  UNL1       -0.0814
@<TRIPOS>BOND
     1     2     5    1
     2     5     8    2
     3     5     9    1
     4     3    10    1
     5     4    11    1
     6     1     2   ar
     7     2     7   ar
     8     7     6   ar
     9     6     4   ar
    10     4     3   ar
    11     3     1   ar
