@<TRIPOS>MOLECULE
No_1658-gen_results/8p0m/2024-11-26-14-13-15/
 20 22 0 0 0
SMALL
GASTEIGER

@<TRIPOS>ATOM
      1 N         -28.0544   -1.0498   28.7246 N.pl3   1  UNL1       -0.2213
      2 C         -27.7460   -0.0733   29.0098 C.3     1  UNL1        0.1730
      3 C         -27.1737    0.7565   28.1070 C.3     1  UNL1        0.0804
      4 C         -25.8200    1.2606   28.2149 C.ar    1  UNL1       -0.0154
      5 C         -25.2536    1.2938   29.5375 C.ar    1  UNL1       -0.0039
      6 C         -23.9532    1.6549   29.6951 C.ar    1  UNL1       -0.0003
      7 C         -23.1811    1.9606   28.5738 C.ar    1  UNL1       -0.0000
      8 C         -23.6619    1.9368   27.3054 C.ar    1  UNL1       -0.0003
      9 C         -25.0045    1.5235   27.1474 C.ar    1  UNL1       -0.0039
     10 C         -27.8736    1.1269   26.9503 C.2     1  UNL1       -0.0235
     11 C         -28.9718    0.2422   26.6337 C.2     1  UNL1       -0.0299
     12 C         -28.4465   -1.9258   29.7892 C.ar    1  UNL1        0.0642
     13 C         -28.8539   -3.2244   29.5412 C.ar    1  UNL1        0.0159
     14 C         -29.1470   -4.0716   30.7275 C.ar    1  UNL1        0.0013
     15 C         -29.3015   -3.5296   31.9702 C.ar    1  UNL1       -0.0002
     16 C         -28.9826   -2.2198   32.1842 C.ar    1  UNL1       -0.0016
     17 C         -28.5751   -1.3970   31.1261 C.ar    1  UNL1        0.0102
     18 N         -27.5311    0.3956   30.3189 N.3     1  UNL1       -0.1933
     19 C         -28.0393   -0.1088   31.2511 C.3     1  UNL1        0.1181
     20 C         -29.7023    0.6202   25.4234 C.3     1  UNL1        0.0304
@<TRIPOS>BOND
     1     1     2    1
     2     2     3    1
     3     3    10    1
     4    10    11    2
     5     1    12    1
     6     2    18    1
     7    17    19    1
     8    18    19    1
     9    11    20    1
    10     3     4    1
    11    12    13   ar
    12    13    14   ar
    13    14    15   ar
    14    15    16   ar
    15    16    17   ar
    16    17    12   ar
    17     4     5   ar
    18     5     6   ar
    19     6     7   ar
    20     7     8   ar
    21     8     9   ar
    22     9     4   ar
