@<TRIPOS>MOLECULE
No_1659-gen_results/8p0m/2024-11-26-14-13-15/
 27 29 0 0 0
SMALL
GASTEIGER

@<TRIPOS>ATOM
      1 C         -28.0162   -0.8135   28.8779 C.ar    1  UNL1        0.0000
      2 C         -28.4690   -0.7850   29.8287 C.ar    1  UNL1        0.0000
      3 C         -27.1356    0.2359   28.5352 C.ar    1  UNL1        0.0000
      4 C         -26.8050    1.0509   29.2763 C.ar    1  UNL1        0.0001
      5 C         -27.3158    1.1492   30.6054 C.ar    1  UNL1        0.0000
      6 C         -28.1939    0.1246   30.9393 C.ar    1  UNL1        0.0000
      7 C         -26.4862    0.2120   27.1229 C.ar    1  UNL1        0.0001
      8 C         -25.1258    0.4926   27.0587 C.ar    1  UNL1        0.0046
      9 C         -24.5837    1.4106   28.0035 C.ar    1  UNL1        0.0554
     10 C         -23.2353    1.8780   27.9629 C.2     1  UNL1        0.2690
     11 C         -25.3996    1.6661   29.2395 C.ar    1  UNL1        0.0046
     12 N         -22.2264    1.3998   28.1281 N.am    1  UNL1       -0.1754
     13 O         -23.2819    3.1642   27.3808 O.2     1  UNL1       -0.2680
     14 C         -21.9454    0.2037   28.8301 C.2     1  UNL1        0.0737
     15 C         -20.7884   -0.4376   28.6203 C.2     1  UNL1        0.0179
     16 C         -22.6941   -0.1991   29.9118 C.2     1  UNL1        0.0166
     17 C         -22.5137   -1.4323   30.6121 C.2     1  UNL1        0.0013
     18 C         -23.4576   -1.6615   31.6804 C.2     1  UNL1        0.0000
     19 C         -24.5689   -0.7739   31.9204 C.2     1  UNL1        0.0000
     20 C         -25.4725   -1.1535   32.9065 C.2     1  UNL1        0.0000
     21 C         -26.6092   -0.2083   33.1376 C.2     1  UNL1        0.0000
     22 C         -27.4681   -0.5556   34.1766 C.ar    1  UNL1        0.0000
     23 C         -28.7397   -0.3630   34.0943 C.ar    1  UNL1        0.0000
     24 C         -29.6135   -0.9170   35.0602 C.ar    1  UNL1        0.0000
     25 C         -29.0865   -1.6362   36.1426 C.ar    1  UNL1        0.0000
     26 C         -27.7438   -1.8339   36.2589 C.ar    1  UNL1        0.0000
     27 C         -26.9004   -1.3187   35.2763 C.ar    1  UNL1        0.0000
@<TRIPOS>BOND
     1     9    10    1
     2    10    12   am
     3    10    13    2
     4    12    14    1
     5    14    15    2
     6    14    16    1
     7    16    17    2
     8    17    18    1
     9    18    19    2
    10    19    20    1
    11    20    21    2
    12    21    22    1
    13     1     2   ar
    14     2     6   ar
    15     6     5   ar
    16     5     4   ar
    17     3     1   ar
    18    22    23   ar
    19    23    24   ar
    20    24    25   ar
    21    25    26   ar
    22    26    27   ar
    23    27    22   ar
    24     3     4   ar
    25     4    11   ar
    26    11     9   ar
    27     9     8   ar
    28     8     7   ar
    29     7     3   ar
