@<TRIPOS>MOLECULE
No_166-gen_results/8p0m/2024-11-26-14-13-15/
 14 16 0 0 0
SMALL
GASTEIGER

@<TRIPOS>ATOM
      1 C         -28.0162   -0.8135   28.8779 C.ar    1  UNL1        0.0000
      2 C         -27.0636   -0.1189   28.6079 C.ar    1  UNL1        0.0000
      3 C         -27.0010    0.6913   27.4910 C.ar    1  UNL1        0.0000
      4 C         -28.1420    0.8282   26.7994 C.ar    1  UNL1        0.0000
      5 C         -27.9310   -1.6069   30.1504 C.ar    1  UNL1        0.0000
      6 C         -26.7094   -1.7845   30.7448 C.ar    1  UNL1        0.0000
      7 C         -25.5731   -1.1815   30.3081 C.ar    1  UNL1        0.0000
      8 C         -25.6842   -0.3065   29.2345 C.ar    1  UNL1        0.0000
      9 C         -28.1056    1.5319   25.4838 C.ar    1  UNL1        0.0000
     10 C         -26.8924    2.0642   25.0042 C.ar    1  UNL1        0.0000
     11 C         -25.7431    1.1980   26.8598 C.ar    1  UNL1        0.0000
     12 C         -24.5087    1.0357   27.5911 C.ar    1  UNL1        0.0000
     13 C         -24.4885    0.2856   28.7365 C.ar    1  UNL1        0.0000
     14 C         -25.7157    1.8995   25.6679 C.ar    1  UNL1        0.0000
@<TRIPOS>BOND
     1     2     3   ar
     2    11    12   ar
     3    12    13   ar
     4    13     8   ar
     5     1     2   ar
     6     2     8   ar
     7     8     7   ar
     8     7     6   ar
     9     6     5   ar
    10     5     1   ar
    11     3     4   ar
    12     4     9   ar
    13     9    10   ar
    14    10    14   ar
    15    14    11   ar
    16    11     3   ar
