@<TRIPOS>MOLECULE
No_1660-gen_results/8p0m/2024-11-26-14-13-15/
 11 12 0 0 0
SMALL
GASTEIGER

@<TRIPOS>ATOM
      1 C         -28.0162   -0.8135   28.8779 C.ar    1  UNL1       -0.0039
      2 C         -28.4690   -0.7850   29.8287 C.ar    1  UNL1       -0.0003
      3 C         -27.1356    0.2359   28.5352 C.ar    1  UNL1       -0.0178
      4 C         -26.8050    1.0509   29.2763 C.ar    1  UNL1       -0.0036
      5 C         -28.2372    0.1503   30.9300 C.ar    1  UNL1       -0.0000
      6 C         -25.8141    2.1978   28.9924 C.2     1  UNL1       -0.0003
      7 C         -27.3373    1.1366   30.5955 C.ar    1  UNL1       -0.0003
      8 C         -25.0548    2.2634   28.0279 C.2     1  UNL1       -0.0003
      9 C         -24.6129    1.1635   27.3580 C.2     1  UNL1       -0.0042
     10 C         -24.5073   -0.0012   27.9617 C.2     1  UNL1       -0.0214
     11 C         -25.9293   -0.5598   28.1397 C.3     1  UNL1        0.0523
@<TRIPOS>BOND
     1     4     6    1
     2     6     8    2
     3     8     9    1
     4     9    10    2
     5     3    11    1
     6    10    11    1
     7     1     2   ar
     8     2     5   ar
     9     5     7   ar
    10     7     4   ar
    11     4     3   ar
    12     3     1   ar
