@<TRIPOS>MOLECULE
No_1661-gen_results/8p0m/2024-11-26-14-13-15/
 11 11 0 0 0
SMALL
GASTEIGER

@<TRIPOS>ATOM
      1 C         -28.0162   -0.8135   28.8779 C.ar    1  UNL1        0.0141
      2 C         -28.4690   -0.7850   29.8287 C.ar    1  UNL1        0.0803
      3 C         -27.1356    0.2359   28.5352 C.ar    1  UNL1        0.0453
      4 C         -26.8745    1.2825   29.3982 C.ar    1  UNL1        0.0639
      5 C         -28.3613    0.1987   30.9244 C.ar    1  UNL1        0.0075
      6 C         -27.5277    1.2234   30.6356 C.ar    1  UNL1        0.0121
      7 BR        -26.2178    0.2819   26.8747 Br      1  UNL1       -0.0481
      8 C         -29.4261   -1.9762   30.3261 C.2     1  UNL1        0.3878
      9 O         -29.1369   -3.1902   30.3907 O.co2   1  UNL1       -0.2406
     10 O         -30.6534   -1.7143   30.7364 O.co2   1  UNL1       -0.2406
     11 CL        -25.9131    2.6901   29.0564 Cl      1  UNL1       -0.0817
@<TRIPOS>BOND
     1     3     7    1
     2     2     8    1
     3     8     9   ar
     4     8    10   ar
     5     4    11    1
     6     1     2   ar
     7     2     5   ar
     8     5     6   ar
     9     6     4   ar
    10     4     3   ar
    11     3     1   ar
