@<TRIPOS>MOLECULE
No_1662-gen_results/8p0m/2024-11-26-14-13-15/
 35 38 0 0 0
SMALL
GASTEIGER

@<TRIPOS>ATOM
      1 C         -28.0162   -0.8135   28.8779 C.ar    1  UNL1        0.0111
      2 C         -28.4690   -0.7850   29.8287 C.ar    1  UNL1        0.0799
      3 C         -26.5042   -0.7777   28.8766 C.ar    1  UNL1        0.0541
      4 C         -25.6540   -0.6597   27.7191 C.2     1  UNL1        0.2528
      5 C         -27.9180   -0.9374   31.1824 C.ar    1  UNL1        0.0066
      6 C         -26.5424   -0.9399   31.2606 C.ar    1  UNL1        0.0004
      7 C         -25.7832   -0.8935   30.1201 C.ar    1  UNL1        0.0045
      8 N         -25.9648    0.0122   26.7100 N.am    1  UNL1       -0.2534
      9 O         -24.6234   -1.4581   27.6199 O.2     1  UNL1       -0.2696
     10 C         -26.9627    1.0340   26.6565 C.ar    1  UNL1        0.0541
     11 C         -27.9751    1.0013   26.3018 C.ar    1  UNL1        0.0149
     12 C         -28.8806    2.1501   26.2644 C.ar    1  UNL1        0.0013
     13 C         -28.3587    3.3770   26.7521 C.ar    1  UNL1        0.0001
     14 C         -26.3296    2.3589   27.1516 C.ar    1  UNL1        0.0139
     15 C         -27.0573    3.4875   27.1195 C.ar    1  UNL1        0.0012
     16 C         -30.0725   -0.6600   29.9000 C.2     1  UNL1        0.3878
     17 O         -30.5809   -0.3421   30.9074 O.co2   1  UNL1       -0.2406
     18 O         -30.6866   -1.0799   28.8405 O.co2   1  UNL1       -0.2406
     19 C         -24.8815    2.4672   27.5771 C.ar    1  UNL1        0.0074
     20 C         -24.5484    2.6211   28.9996 C.ar    1  UNL1        0.0757
     21 C         -23.8258    2.4365   26.6383 C.ar    1  UNL1        0.0002
     22 C         -22.5051    2.3243   27.0969 C.ar    1  UNL1        0.0000
     23 C         -25.6704    2.6411   29.9877 C.2     1  UNL1        0.3414
     24 C         -22.2643    2.2482   28.5304 C.ar    1  UNL1        0.0002
     25 C         -23.2653    2.3829   29.4460 C.ar    1  UNL1        0.0064
     26 O         -25.3104    2.6395   31.1330 O.2     1  UNL1       -0.2449
     27 O         -26.7990    3.1887   29.6862 O.3     1  UNL1       -0.4446
     28 C         -27.8453    2.9485   30.6501 C.3     1  UNL1        0.1915
     29 C         -29.1876    3.2324   30.1869 C.3     1  UNL1        0.0530
     30 C         -29.8142    4.3565   30.7514 C.3     1  UNL1        0.0301
     31 C         -30.4386    4.0202   31.9432 C.2     1  UNL1       -0.0260
     32 C         -29.7790    3.6895   32.9144 C.2     1  UNL1       -0.0048
     33 C         -28.8351    3.2807   32.9939 C.2     1  UNL1       -0.0014
     34 C         -27.6419    2.9499   32.0336 C.2     1  UNL1        0.0167
     35 C         -25.4833   -0.2451   25.3385 C.3     1  UNL1        0.1203
@<TRIPOS>BOND
     1     3     4    1
     2     4     8   am
     3     4     9    2
     4     8    10    1
     5     2    16    1
     6    16    17   ar
     7    16    18   ar
     8    14    19    1
     9    20    23    1
    10    23    26    2
    11    23    27    1
    12    27    28    1
    13    28    29    1
    14    29    30    1
    15    30    31    1
    16    31    32    2
    17    32    33    1
    18    28    34    1
    19    33    34    2
    20     8    35    1
    21    10    11   ar
    22    11    12   ar
    23    12    13   ar
    24    13    15   ar
    25    15    14   ar
    26    14    10   ar
    27     1     2   ar
    28     2     5   ar
    29     5     6   ar
    30     6     7   ar
    31     7     3   ar
    32     3     1   ar
    33    19    20   ar
    34    20    25   ar
    35    25    24   ar
    36    24    22   ar
    37    22    21   ar
    38    21    19   ar
