@<TRIPOS>MOLECULE
No_1663-gen_results/8p0m/2024-11-26-14-13-15/
 30 33 0 0 0
SMALL
GASTEIGER

@<TRIPOS>ATOM
      1 C         -28.0162   -0.8135   28.8779 C.ar    1  UNL1        0.0489
      2 C         -27.0636   -0.1189   28.6079 C.ar    1  UNL1        0.1461
      3 C         -26.9287    1.1713   29.0083 C.ar    1  UNL1        0.0375
      4 C         -27.9560    1.7411   29.7840 C.ar    1  UNL1        0.0040
      5 C         -29.0569   -0.3271   29.7466 C.ar    1  UNL1        0.0607
      6 C         -28.9828    0.9722   30.1516 C.ar    1  UNL1        0.0116
      7 O         -25.9911   -0.6119   27.8566 O.3     1  UNL1       -0.4534
      8 C         -24.9038   -1.1483   28.5775 C.ar    1  UNL1        0.1480
      9 C         -23.7733   -0.9238   28.7488 C.ar    1  UNL1        0.0711
     10 C         -25.2670   -2.5528   29.1249 C.ar    1  UNL1        0.0376
     11 C         -22.7926   -1.5184   29.4729 C.ar    1  UNL1        0.0271
     12 C         -24.3845   -3.2812   29.7863 C.ar    1  UNL1        0.0029
     13 C         -23.1236   -2.7642   30.0154 C.ar    1  UNL1       -0.0004
     14 CL        -30.3412   -1.3550   30.1753 Cl      1  UNL1       -0.0821
     15 C         -23.2799    0.4784   28.1337 C.2     1  UNL1        0.1772
     16 C         -22.1629    1.1139   28.5809 C.2     1  UNL1        0.1724
     17 C         -21.7903    2.3356   27.8461 C.2     1  UNL1        0.0363
     18 C         -22.5906    2.4205   26.7067 C.2     1  UNL1        0.0149
     19 C         -23.7187    1.0438   26.9046 C.3     1  UNL1        0.1365
     20 O         -23.8847    1.0201   28.7487 O.2     1  UNL1       -0.4552
     21 C         -24.6176    0.8899   25.9916 C.3     1  UNL1        0.0367
     22 O         -22.9759    0.4777   26.3874 O.3     1  UNL1       -0.3476
     23 C         -22.5436    1.3716   25.7645 C.3     1  UNL1        0.1671
     24 C         -23.5897    1.4892   30.0287 C.3     1  UNL1        0.2424
     25 O         -21.9283    0.8829   29.7623 O.2     1  UNL1       -0.4676
     26 N         -24.0925    0.8842   31.0972 N.3     1  UNL1       -0.1733
     27 C         -23.6917    2.9428   30.2479 C.3     1  UNL1        0.0754
     28 C         -21.8770   -0.3681   30.2154 C.3     1  UNL1        0.2323
     29 BR        -23.8371    2.4162   30.4511 Br      1  UNL1       -0.0191
     30 C         -23.9453    0.0309   32.0910 C.3     1  UNL1        0.1119
@<TRIPOS>BOND
     1     2     7    1
     2     7     8    1
     3     5    14    1
     4     9    15    1
     5    15    16    2
     6    16    17    1
     7    17    18    2
     8    18    19    1
     9    15    20    1
    10    19    21    1
    11    19    22    1
    12    18    23    1
    13    22    23    1
    14    20    24    1
    15    16    25    1
    16    24    26    1
    17    24    27    1
    18    11    28    1
    19    25    28    1
    20    24    29    1
    21    26    30    1
    22     8     9   ar
    23     9    11   ar
    24    11    13   ar
    25    13    12   ar
    26    12    10   ar
    27    10     8   ar
    28     1     2   ar
    29     2     3   ar
    30     3     4   ar
    31     4     6   ar
    32     6     5   ar
    33     5     1   ar
