@<TRIPOS>MOLECULE
No_1666-gen_results/8p0m/2024-11-26-14-13-15/
 17 19 0 0 0
SMALL
GASTEIGER

@<TRIPOS>ATOM
      1 C         -28.0162   -0.8135   28.8779 C.ar    1  UNL1        0.0066
      2 C         -27.0636   -0.1190   28.6079 C.ar    1  UNL1        0.0002
      3 C         -27.0010    0.6913   27.4910 C.ar    1  UNL1        0.0000
      4 C         -25.8548    1.4825   27.0830 C.ar    1  UNL1        0.0000
      5 C         -25.8227    2.3296   25.9941 C.ar    1  UNL1        0.0000
      6 C         -27.9874   -1.6326   30.1036 C.ar    1  UNL1        0.0798
      7 C         -29.0494   -2.5010   30.5090 C.2     1  UNL1        0.3878
      8 C         -26.7105   -1.6674   30.8273 C.ar    1  UNL1        0.0066
      9 C         -25.6230   -1.0176   30.4149 C.ar    1  UNL1        0.0002
     10 C         -25.7120   -0.1886   29.2782 C.ar    1  UNL1        0.0000
     11 C         -24.5830    3.0819   25.7616 C.ar    1  UNL1        0.0000
     12 C         -23.4308    2.7825   26.5555 C.ar    1  UNL1        0.0000
     13 C         -23.4765    1.8517   27.5343 C.ar    1  UNL1        0.0000
     14 C         -24.6359    1.2019   27.8108 C.ar    1  UNL1        0.0000
     15 C         -24.5717    0.4700   28.8262 C.ar    1  UNL1        0.0000
     16 O         -28.9235   -3.7313   30.5901 O.co2   1  UNL1       -0.2406
     17 O         -30.1974   -2.0149   30.6956 O.co2   1  UNL1       -0.2406
@<TRIPOS>BOND
     1     6     7    1
     2     7    16   ar
     3     7    17   ar
     4     2     3   ar
     5     3     4   ar
     6    14    15   ar
     7    15    10   ar
     8     4     5   ar
     9     5    11   ar
    10    11    12   ar
    11    12    13   ar
    12    13    14   ar
    13    14     4   ar
    14     1     2   ar
    15     2    10   ar
    16    10     9   ar
    17     9     8   ar
    18     8     6   ar
    19     6     1   ar
