@<TRIPOS>MOLECULE
No_1667-gen_results/8p0m/2024-11-26-14-13-15/
 19 20 0 0 0
SMALL
GASTEIGER

@<TRIPOS>ATOM
      1 O         -28.1229   -1.3353   28.4874 O.2     1  UNL1       -0.2449
      2 C         -27.0637   -0.8242   28.8687 C.2     1  UNL1        0.3411
      3 C         -26.9592    0.0926   29.7582 C.2     1  UNL1        0.0777
      4 O         -25.8788   -1.3797   28.3925 O.3     1  UNL1       -0.4447
      5 C         -25.8746    0.5483   30.1391 C.2     1  UNL1       -0.0123
      6 C         -25.5616    1.6957   31.0076 C.2     1  UNL1       -0.0252
      7 C         -24.2632    2.1481   31.2687 C.2     1  UNL1       -0.0049
      8 C         -23.2009    1.4058   30.7420 C.2     1  UNL1       -0.0045
      9 C         -23.3960    0.3295   29.9583 C.2     1  UNL1       -0.0184
     10 C         -24.6340   -0.0954   29.7121 C.3     1  UNL1        0.0880
     11 C         -24.7986   -1.1383   28.7685 C.3     1  UNL1        0.2173
     12 C         -26.6951    2.4489   31.6031 C.3     1  UNL1        0.0307
     13 C         -27.1982    3.4075   31.0973 C.3     1  UNL1        0.0307
     14 C         -26.5947    4.2252   30.1900 C.2     1  UNL1       -0.0258
     15 C         -26.8134    4.6284   29.1904 C.2     1  UNL1       -0.0046
     16 C         -25.9436    5.4498   28.2416 C.2     1  UNL1       -0.0003
     17 C         -25.4913    4.9353   27.1854 C.2     1  UNL1       -0.0000
     18 C         -26.0423    3.7015   26.6848 C.2     1  UNL1       -0.0000
     19 C         -27.0477    3.0881   27.3736 C.2     1  UNL1       -0.0000
@<TRIPOS>BOND
     1     1     2    2
     2     2     3    1
     3     2     4    1
     4     3     5    2
     5     5     6    1
     6     6     7    2
     7     7     8    1
     8     8     9    2
     9     5    10    1
    10     9    10    1
    11     4    11    1
    12    10    11    1
    13     6    12    1
    14    12    13    1
    15    13    14    1
    16    14    15    2
    17    15    16    1
    18    16    17    2
    19    17    18    1
    20    18    19    2
