@<TRIPOS>MOLECULE
No_1668-gen_results/8p0m/2024-11-26-14-13-15/
 16 17 0 0 0
SMALL
GASTEIGER

@<TRIPOS>ATOM
      1 C         -28.0162   -0.8135   28.8779 C.ar    1  UNL1        0.0026
      2 C         -28.4690   -0.7850   29.8287 C.ar    1  UNL1        0.0795
      3 C         -28.1816    0.4277   28.1134 C.ar    1  UNL1       -0.0176
      4 C         -28.9841    1.4155   28.5154 C.ar    1  UNL1       -0.0039
      5 C         -28.3375   -2.0481   30.7873 C.2     1  UNL1        0.3877
      6 C         -29.5615    1.2930   29.7416 C.ar    1  UNL1       -0.0001
      7 C         -29.3196    0.1647   30.4451 C.ar    1  UNL1        0.0066
      8 O         -28.9433   -3.0348   30.7309 O.co2   1  UNL1       -0.2406
      9 O         -27.2195   -2.0572   31.5946 O.co2   1  UNL1       -0.2406
     10 C         -27.4470    0.4995   26.7471 C.3     1  UNL1        0.0526
     11 C         -26.4012    0.9584   26.6137 C.ar    1  UNL1       -0.0178
     12 C         -25.5368    1.4917   27.7059 C.ar    1  UNL1       -0.0039
     13 C         -24.2160    1.9463   27.4472 C.ar    1  UNL1       -0.0003
     14 C         -23.8608    2.1136   26.0752 C.ar    1  UNL1       -0.0000
     15 C         -24.5687    1.6505   25.0743 C.ar    1  UNL1       -0.0003
     16 C         -25.7998    1.0714   25.3307 C.ar    1  UNL1       -0.0039
@<TRIPOS>BOND
     1     2     5    1
     2     5     8   ar
     3     5     9   ar
     4     3    10    1
     5    10    11    1
     6    11    12   ar
     7    12    13   ar
     8    13    14   ar
     9    14    15   ar
    10    15    16   ar
    11    16    11   ar
    12     1     2   ar
    13     2     7   ar
    14     7     6   ar
    15     6     4   ar
    16     4     3   ar
    17     3     1   ar
