@<TRIPOS>MOLECULE
No_1669-gen_results/8p0m/2024-11-26-14-13-15/
 16 17 0 0 0
SMALL
GASTEIGER

@<TRIPOS>ATOM
      1 F         -28.0727   -1.2542   28.5316 F       1  UNL1       -0.2042
      2 C         -27.0607   -0.6291   28.8721 C.ar    1  UNL1        0.1401
      3 C         -26.1528   -1.1557   29.4537 C.ar    1  UNL1        0.0298
      4 C         -24.8778   -0.5788   29.8639 C.ar    1  UNL1        0.0089
      5 C         -24.7426    0.8273   29.4808 C.ar    1  UNL1        0.0799
      6 C         -25.7883    1.3927   28.7628 C.ar    1  UNL1        0.0088
      7 C         -26.9145    0.7309   28.4427 C.ar    1  UNL1        0.0277
      8 C         -23.5403    1.5267   29.8447 C.2     1  UNL1        0.3878
      9 O         -23.1733    1.5522   30.9444 O.co2   1  UNL1       -0.2406
     10 O         -22.7974    2.0063   28.8574 O.co2   1  UNL1       -0.2406
     11 C         -27.9496    1.3862   27.6731 C.ar    1  UNL1        0.0022
     12 C         -28.7517    2.1716   28.3415 C.ar    1  UNL1        0.0001
     13 C         -29.8178    2.8535   27.6456 C.ar    1  UNL1        0.0000
     14 C         -29.9590    2.5921   26.2589 C.ar    1  UNL1        0.0000
     15 C         -29.1147    1.7379   25.5837 C.ar    1  UNL1        0.0000
     16 C         -28.0689    1.1271   26.3060 C.ar    1  UNL1        0.0001
@<TRIPOS>BOND
     1     1     2    1
     2     5     8    1
     3     8     9   ar
     4     8    10   ar
     5     7    11    1
     6    11    12   ar
     7    12    13   ar
     8    13    14   ar
     9    14    15   ar
    10    15    16   ar
    11    16    11   ar
    12     2     3   ar
    13     3     4   ar
    14     4     5   ar
    15     5     6   ar
    16     6     7   ar
    17     7     2   ar
