@<TRIPOS>MOLECULE
No_167-gen_results/8p0m/2024-11-26-14-13-15/
 21 23 0 0 0
SMALL
GASTEIGER

@<TRIPOS>ATOM
      1 C         -28.0162   -0.8135   28.8779 C.ar    1  UNL1        0.0460
      2 C         -28.4690   -0.7850   29.8287 C.ar    1  UNL1        0.1414
      3 C         -26.5042   -0.7777   28.8766 C.ar    1  UNL1        0.0722
      4 C         -25.8103   -0.8531   30.1028 C.ar    1  UNL1       -0.0066
      5 C         -27.9906   -0.8916   31.2257 C.ar    1  UNL1        0.0294
      6 C         -26.6042   -0.8676   31.2652 C.ar    1  UNL1       -0.0007
      7 F         -29.9203   -0.8331   29.8239 F       1  UNL1       -0.2041
      8 C         -24.3796   -0.8022   30.1424 C.3     1  UNL1        0.0280
      9 C         -23.6617   -1.3645   30.7155 C.3     1  UNL1        0.0051
     10 C         -23.8148   -0.2789   28.8363 C.3     1  UNL1        0.0322
     11 C         -24.1319    0.7575   28.0585 C.ar    1  UNL1       -0.0034
     12 C         -23.7266    1.8062   27.8575 C.ar    1  UNL1       -0.0028
     13 C         -24.2085    2.8236   26.8915 C.ar    1  UNL1        0.0029
     14 C         -25.3841    2.4916   26.2200 C.ar    1  UNL1        0.0382
     15 C         -25.8992    1.2756   26.4209 C.ar    1  UNL1        0.1537
     16 C         -25.3681    0.4008   27.2774 C.ar    1  UNL1        0.1037
     17 N         -25.7051    0.0124   28.0413 N.pl3   1  UNL1       -0.1876
     18 O         -26.5187    0.0326   27.3522 O.3     1  UNL1       -0.4701
     19 N         -26.0759    0.8706   28.8989 N.2     1  UNL1       -0.1705
     20 C         -27.4974   -0.3578   26.5657 C.3     1  UNL1        0.2525
     21 C         -26.9755    1.8490   28.9714 C.2     1  UNL1        0.1404
@<TRIPOS>BOND
     1     2     7    1
     2     4     8    1
     3     8     9    1
     4     8    10    1
     5    10    11    1
     6     3    17    1
     7    16    17    1
     8    15    18    1
     9    17    19    1
    10    18    20    1
    11    19    21    2
    12    11    12   ar
    13    12    13   ar
    14    13    14   ar
    15    14    15   ar
    16    15    16   ar
    17    16    11   ar
    18     1     2   ar
    19     2     5   ar
    20     5     6   ar
    21     6     4   ar
    22     4     3   ar
    23     3     1   ar
