@<TRIPOS>MOLECULE
No_1670-gen_results/8p0m/2024-11-26-14-13-15/
 22 23 0 0 0
SMALL
GASTEIGER

@<TRIPOS>ATOM
      1 C         -28.0162   -0.8135   28.8779 C.ar    1  UNL1        0.0152
      2 C         -28.4690   -0.7850   29.8287 C.ar    1  UNL1        0.0578
      3 C         -27.1356    0.2359   28.5352 C.ar    1  UNL1        0.0724
      4 C         -26.8745    1.2825   29.3982 C.ar    1  UNL1        0.0084
      5 C         -28.3613    0.1987   30.9244 C.ar    1  UNL1        0.0159
      6 C         -27.5277    1.2234   30.6356 C.ar    1  UNL1        0.0544
      7 C         -26.3987    0.2949   27.2279 C.3     1  UNL1        0.4186
      8 F         -26.2345    1.5269   26.9601 F       1  UNL1       -0.1659
      9 F         -25.2362   -0.3484   27.3099 F       1  UNL1       -0.1659
     10 F         -27.1496   -0.2082   26.2061 F       1  UNL1       -0.1659
     11 CL        -29.5897   -2.1072   30.4564 Cl      1  UNL1       -0.0822
     12 C         -27.2920    2.3674   31.5823 C.2     1  UNL1        0.2493
     13 N         -26.3818    2.7484   31.9338 N.am    1  UNL1       -0.2702
     14 C         -25.2565    2.1803   32.0649 C.3     1  UNL1        0.1155
     15 C         -26.2499    4.2230   32.4142 C.3     1  UNL1        0.1205
     16 O         -28.4634    2.7131   32.0906 O.2     1  UNL1       -0.2699
     17 C         -26.2161    5.1282   31.3187 C.ar    1  UNL1       -0.0023
     18 C         -26.0810    4.8379   30.1808 C.ar    1  UNL1       -0.0026
     19 C         -25.9640    5.8217   29.0681 C.ar    1  UNL1       -0.0003
     20 C         -25.7626    7.1396   29.4532 C.ar    1  UNL1       -0.0000
     21 C         -25.7866    7.4734   30.7916 C.ar    1  UNL1       -0.0003
     22 C         -25.9435    6.5241   31.7306 C.ar    1  UNL1       -0.0026
@<TRIPOS>BOND
     1     3     7    1
     2     7     8    1
     3     7     9    1
     4     7    10    1
     5     2    11    1
     6     6    12    1
     7    12    13   am
     8    13    14    1
     9    13    15    1
    10    12    16    2
    11    15    17    1
    12    17    18   ar
    13    18    19   ar
    14    19    20   ar
    15    20    21   ar
    16    21    22   ar
    17    22    17   ar
    18     1     2   ar
    19     2     5   ar
    20     5     6   ar
    21     6     4   ar
    22     4     3   ar
    23     3     1   ar
