@<TRIPOS>MOLECULE
No_1671-gen_results/8p0m/2024-11-26-14-13-15/
 18 19 0 0 0
SMALL
GASTEIGER

@<TRIPOS>ATOM
      1 C         -28.0162   -0.8135   28.8779 C.ar    1  UNL1       -0.0026
      2 C         -28.4690   -0.7850   29.8287 C.ar    1  UNL1       -0.0003
      3 C         -28.1960    0.3478   28.0550 C.ar    1  UNL1       -0.0024
      4 C         -29.0191    1.3501   28.3782 C.ar    1  UNL1       -0.0026
      5 C         -29.4107    0.1803   30.3782 C.ar    1  UNL1       -0.0000
      6 C         -29.6059    1.2495   29.6193 C.ar    1  UNL1       -0.0003
      7 C         -27.4597    0.3802   26.7091 C.3     1  UNL1        0.1178
      8 N         -26.6620    1.4083   26.5085 N.pl3   1  UNL1       -0.3018
      9 C         -25.4030    1.5103   27.1730 C.ar    1  UNL1        0.0483
     10 C         -24.6313    2.6716   26.9522 C.ar    1  UNL1        0.0145
     11 C         -24.8687    0.5307   27.9820 C.ar    1  UNL1        0.0211
     12 C         -23.6549    0.6898   28.6145 C.ar    1  UNL1        0.0810
     13 C         -23.3515    2.8049   27.5142 C.ar    1  UNL1        0.0015
     14 C         -23.0467   -0.3572   29.4364 C.2     1  UNL1        0.3878
     15 C         -22.8470    1.7940   28.3369 C.ar    1  UNL1        0.0067
     16 O         -23.6774   -1.0348   30.0904 O.co2   1  UNL1       -0.2406
     17 O         -21.7039   -0.6169   29.1984 O.co2   1  UNL1       -0.2406
     18 C         -27.1404    2.4873   25.7371 C.3     1  UNL1        0.1125
@<TRIPOS>BOND
     1     3     7    1
     2     7     8    1
     3     8     9    1
     4    12    14    1
     5    14    16   ar
     6    14    17   ar
     7     8    18    1
     8     9    10   ar
     9    10    13   ar
    10    13    15   ar
    11    15    12   ar
    12    12    11   ar
    13    11     9   ar
    14     1     2   ar
    15     2     5   ar
    16     5     6   ar
    17     6     4   ar
    18     4     3   ar
    19     3     1   ar
