@<TRIPOS>MOLECULE
No_1673-gen_results/8p0m/2024-11-26-14-13-15/
 17 18 0 0 0
SMALL
GASTEIGER

@<TRIPOS>ATOM
      1 C         -28.0162   -0.8135   28.8779 C.3     1  UNL1        0.0044
      2 C         -27.0636   -0.1190   28.6079 C.3     1  UNL1        0.0227
      3 C         -27.0010    0.6913   27.4910 C.ar    1  UNL1       -0.0225
      4 C         -27.1778    1.9037   27.5632 C.ar    1  UNL1       -0.0043
      5 C         -28.7446   -0.3657   29.8430 C.3     1  UNL1        0.0003
      6 C         -28.1633    0.0823   31.0800 C.3     1  UNL1        0.0000
      7 C         -26.8214    0.5935   30.9673 C.3     1  UNL1        0.0008
      8 C         -26.2666    0.5981   29.6530 C.3     1  UNL1        0.0114
      9 C         -26.5570    0.0054   26.2512 C.ar    1  UNL1       -0.0043
     10 C         -27.0798    2.7226   26.2552 C.ar    1  UNL1       -0.0003
     11 C         -26.4895    0.6892   25.0132 C.ar    1  UNL1       -0.0003
     12 C         -26.7017    2.0989   25.0124 C.ar    1  UNL1       -0.0000
     13 C         -24.9525    1.1910   29.4443 C.3     1  UNL1        0.0652
     14 C         -23.8739    0.5551   30.0825 C.3     1  UNL1        0.0078
     15 C         -23.1260   -0.3849   29.3929 C.3     1  UNL1        0.0005
     16 C         -24.6457    2.3135   28.6417 C.2     1  UNL1        0.2070
     17 O         -25.1059    3.4603   28.7786 O.2     1  UNL1       -0.2883
@<TRIPOS>BOND
     1     1     2    1
     2     2     3    1
     3     1     5    1
     4     5     6    1
     5     6     7    1
     6     2     8    1
     7     7     8    1
     8     8    13    1
     9    13    14    1
    10    14    15    1
    11    13    16    1
    12    16    17    2
    13     3     4   ar
    14     4    10   ar
    15    10    12   ar
    16    12    11   ar
    17    11     9   ar
    18     9     3   ar
