@<TRIPOS>MOLECULE
No_1674-gen_results/8p0m/2024-11-26-14-13-15/
 14 15 0 0 0
SMALL
GASTEIGER

@<TRIPOS>ATOM
      1 C         -28.0162   -0.8135   28.8779 C.ar    1  UNL1        0.0293
      2 C         -28.4690   -0.7850   29.8287 C.ar    1  UNL1        0.1401
      3 C         -26.5042   -0.7777   28.8766 C.ar    1  UNL1       -0.0016
      4 C         -25.8103   -0.8531   30.1028 C.ar    1  UNL1       -0.0176
      5 C         -27.9906   -0.8916   31.2257 C.ar    1  UNL1        0.0293
      6 C         -26.6042   -0.8676   31.2652 C.ar    1  UNL1       -0.0016
      7 F         -29.9203   -0.8331   29.8239 F       1  UNL1       -0.2042
      8 C         -24.3796   -0.8022   30.1424 C.3     1  UNL1        0.0526
      9 C         -23.6323   -0.3170   29.1196 C.ar    1  UNL1       -0.0178
     10 C         -22.1884   -0.2415   29.2461 C.ar    1  UNL1       -0.0039
     11 C         -21.4465    0.3223   28.1882 C.ar    1  UNL1       -0.0003
     12 C         -22.1232    1.2259   27.3046 C.ar    1  UNL1       -0.0000
     13 C         -23.5021    1.3684   27.3406 C.ar    1  UNL1       -0.0003
     14 C         -24.2580    0.6956   28.2849 C.ar    1  UNL1       -0.0039
@<TRIPOS>BOND
     1     2     7    1
     2     4     8    1
     3     8     9    1
     4     9    10   ar
     5    10    11   ar
     6    11    12   ar
     7    12    13   ar
     8    13    14   ar
     9    14     9   ar
    10     1     2   ar
    11     2     5   ar
    12     5     6   ar
    13     6     4   ar
    14     4     3   ar
    15     3     1   ar
