@<TRIPOS>MOLECULE
No_1675-gen_results/8p0m/2024-11-26-14-13-15/
 9 9 0 0 0
SMALL
GASTEIGER

@<TRIPOS>ATOM
      1 C         -28.0162   -0.8135   28.8779 C.ar    1  UNL1        0.0000
      2 C         -27.0636   -0.1189   28.6079 C.ar    1  UNL1        0.0000
      3 C         -25.7647   -0.3897   29.0360 C.ar    1  UNL1        0.0014
      4 C         -25.5296   -1.5302   29.9014 C.ar    1  UNL1        0.0000
      5 C         -26.6577   -2.2915   30.2035 C.ar    1  UNL1        0.0000
      6 C         -27.8548   -1.9555   29.7630 C.ar    1  UNL1        0.0000
      7 C         -24.5441    0.4126   28.7379 C.2     1  UNL1        0.0194
      8 C         -24.0952    1.3785   29.5751 C.2     1  UNL1        0.1057
      9 N         -22.9905    2.0286   29.1402 N.pl3   1  UNL1       -0.1266
@<TRIPOS>BOND
     1     3     7    1
     2     7     8    2
     3     8     9    1
     4     1     2   ar
     5     2     3   ar
     6     3     4   ar
     7     4     5   ar
     8     5     6   ar
     9     6     1   ar
