@<TRIPOS>MOLECULE
No_1676-gen_results/8p0m/2024-11-26-14-13-15/
 35 36 0 0 0
SMALL
GASTEIGER

@<TRIPOS>ATOM
      1 C         -28.0162   -0.8135   28.8779 C.2     1  UNL1        0.2552
      2 C         -27.0636   -0.1189   28.6079 C.ar    1  UNL1        0.0542
      3 C         -26.9287    1.1713   29.0083 C.ar    1  UNL1        0.0111
      4 C         -25.7702    2.0341   28.6884 C.ar    1  UNL1        0.0802
      5 C         -24.7141    1.4431   27.9188 C.ar    1  UNL1        0.0613
      6 C         -24.8590    0.0783   27.5836 C.ar    1  UNL1        0.0049
      7 C         -25.9647   -0.6606   27.9164 C.ar    1  UNL1        0.0047
      8 N         -27.9821   -1.6367   30.0748 N.am    1  UNL1       -0.2156
      9 O         -29.1950   -0.6035   28.4621 O.2     1  UNL1       -0.2695
     10 C         -26.7538   -1.9334   30.7876 C.3     1  UNL1        0.1236
     11 C         -29.1048   -2.4435   30.4917 C.2     1  UNL1        0.3352
     12 C         -23.5133    2.1530   27.5481 C.2     1  UNL1        0.2671
     13 N         -22.4314    1.7013   27.1528 N.am    1  UNL1       -0.1713
     14 O         -23.7733    3.4035   27.1615 O.2     1  UNL1       -0.2683
     15 C         -28.9281   -3.7977   30.4368 C.2     1  UNL1        0.4408
     16 O         -29.7946   -4.5132   30.8783 O.co2   1  UNL1       -0.2354
     17 O         -27.8425   -4.3933   30.0209 O.co2   1  UNL1       -0.2354
     18 C         -21.7228    0.7391   28.0271 C.3     1  UNL1        0.2434
     19 C         -21.3225    1.1347   29.2409 C.3     1  UNL1        0.1972
     20 O         -21.0029    0.0347   29.9925 O.3     1  UNL1       -0.3239
     21 O         -30.0722   -1.8614   30.8467 O.2     1  UNL1       -0.2622
     22 C         -22.0876   -1.0628   29.6720 C.3     1  UNL1        0.2710
     23 O         -22.5959   -0.3683   28.2219 O.3     1  UNL1       -0.3078
     24 C         -23.2208   -0.9482   30.5809 C.3     1  UNL1        0.2431
     25 O         -23.5974   -2.0705   31.0495 O.3     1  UNL1       -0.2148
     26 C         -25.7252    3.4220   29.1265 C.2     1  UNL1        0.3414
     27 O         -25.5649    3.5579   30.3500 O.2     1  UNL1       -0.2449
     28 O         -25.8429    4.3370   28.2977 O.3     1  UNL1       -0.4451
     29 C         -26.0290    5.6470   28.8718 C.3     1  UNL1        0.2133
     30 C         -25.6850    6.7349   27.9893 C.3     1  UNL1        0.0702
     31 C         -25.6121    6.5703   26.7580 C.2     1  UNL1       -0.0224
     32 C         -24.9187    7.6899   25.9721 C.2     1  UNL1       -0.0048
     33 C         -25.2928    8.0371   28.4972 C.3     1  UNL1        0.0341
     34 C         -25.4090    8.3267   29.9909 C.2     1  UNL1       -0.0257
     35 C         -24.8477    9.4546   30.4582 C.2     1  UNL1       -0.0049
@<TRIPOS>BOND
     1     1     2    1
     2     1     8   am
     3     1     9    2
     4     8    10    1
     5     8    11   am
     6     5    12    1
     7    12    13   am
     8    12    14    2
     9    11    15    1
    10    15    16   ar
    11    15    17   ar
    12    13    18    1
    13    18    19    1
    14    19    20    1
    15    11    21    2
    16    20    22    1
    17    18    23    1
    18    22    23    1
    19    22    24    1
    20    24    25    1
    21     4    26    1
    22    26    27    2
    23    26    28    1
    24    28    29    1
    25    29    30    1
    26    30    31    1
    27    31    32    2
    28    30    33    1
    29    33    34    1
    30    34    35    2
    31     2     3   ar
    32     3     4   ar
    33     4     5   ar
    34     5     6   ar
    35     6     7   ar
    36     7     2   ar
