@<TRIPOS>MOLECULE
No_1677-gen_results/8p0m/2024-11-26-14-13-15/
 24 26 0 0 0
SMALL
GASTEIGER

@<TRIPOS>ATOM
      1 C         -28.0162   -0.8135   28.8779 C.ar    1  UNL1        0.0046
      2 C         -28.4690   -0.7850   29.8287 C.ar    1  UNL1        0.0554
      3 C         -26.5455   -0.8762   28.8500 C.ar    1  UNL1        0.0001
      4 C         -25.8041   -1.0324   30.0571 C.ar    1  UNL1        0.0000
      5 C         -27.9437   -0.9869   31.2075 C.ar    1  UNL1        0.0046
      6 C         -26.5825   -1.0386   31.2231 C.ar    1  UNL1        0.0001
      7 C         -30.0606   -0.7371   29.9024 C.2     1  UNL1        0.2690
      8 O         -30.5524   -0.2769   29.0111 O.2     1  UNL1       -0.2680
      9 N         -30.7281   -1.6248   30.8070 N.am    1  UNL1       -0.1754
     10 C         -32.1405   -1.6790   30.7351 C.ar    1  UNL1        0.0739
     11 C         -24.3700   -1.0727   30.0681 C.ar    1  UNL1        0.0000
     12 C         -23.7283    0.2057   30.0349 C.ar    1  UNL1        0.0000
     13 C         -22.4834    0.3436   29.3418 C.ar    1  UNL1        0.0000
     14 C         -21.8193   -0.8991   29.0113 C.ar    1  UNL1        0.0000
     15 C         -22.5569   -2.0444   28.9486 C.ar    1  UNL1        0.0000
     16 C         -23.8045   -2.1896   29.4804 C.ar    1  UNL1        0.0000
     17 C         -32.9074   -0.9851   30.4678 C.ar    1  UNL1        0.0197
     18 C         -34.3212   -1.1893   30.4263 C.ar    1  UNL1        0.0388
     19 C         -32.5148   -3.0373   31.2264 C.ar    1  UNL1        0.0197
     20 C         -33.8754   -3.3301   31.2341 C.ar    1  UNL1        0.0388
     21 C         -34.7540   -2.3748   30.8705 C.ar    1  UNL1        0.1455
     22 O         -36.0845   -2.6773   30.9309 O.3     1  UNL1       -0.4504
     23 C         -36.7174   -3.3721   30.1998 C.2     1  UNL1        0.1796
     24 C         -37.8884   -3.4388   30.2100 C.2     1  UNL1        0.0439
@<TRIPOS>BOND
     1     2     7    1
     2     7     8    2
     3     7     9   am
     4     9    10    1
     5     4    11    1
     6    21    22    1
     7    22    23    1
     8    23    24    2
     9    11    12   ar
    10    12    13   ar
    11    13    14   ar
    12    14    15   ar
    13    15    16   ar
    14    16    11   ar
    15     1     2   ar
    16     2     5   ar
    17     5     6   ar
    18     6     4   ar
    19     4     3   ar
    20     3     1   ar
    21    10    17   ar
    22    17    18   ar
    23    18    21   ar
    24    21    20   ar
    25    20    19   ar
    26    19    10   ar
