@<TRIPOS>MOLECULE
No_1678-gen_results/8p0m/2024-11-26-14-13-15/
 31 35 0 0 0
SMALL
GASTEIGER

@<TRIPOS>ATOM
      1 C         -28.0162   -0.8135   28.8779 C.ar    1  UNL1        0.1727
      2 C         -27.0636   -0.1189   28.6079 C.ar    1  UNL1        0.0381
      3 C         -25.7923   -0.4302   29.0761 C.ar    1  UNL1        0.0044
      4 C         -25.5756   -1.5654   29.9363 C.ar    1  UNL1        0.0026
      5 C         -26.7354   -2.3004   30.2173 C.ar    1  UNL1        0.0328
      6 C         -27.9184   -1.9537   29.7629 C.ar    1  UNL1        0.1744
      7 F         -28.9649   -2.6957   30.0722 F       1  UNL1       -0.2009
      8 C         -24.5349    0.3596   28.8024 C.ar    1  UNL1        0.0168
      9 C         -24.4932    1.2316   27.8004 C.ar    1  UNL1        0.0887
     10 C         -23.2661    1.9212   27.4967 C.ar    1  UNL1        0.1543
     11 C         -22.0624    1.6133   28.1592 C.ar    1  UNL1        0.0383
     12 C         -23.3055    0.0266   29.4521 C.ar    1  UNL1        0.0014
     13 C         -22.0895    0.7052   29.1259 C.ar    1  UNL1        0.0032
     14 O         -23.3149    2.8449   26.4819 O.3     1  UNL1       -0.4536
     15 C         -24.5163    2.7054   25.7422 C.3     1  UNL1        0.3097
     16 N         -25.3500    1.6713   26.8703 N.pl3   1  UNL1       -0.2460
     17 O         -29.2962   -0.5411   28.4620 O.3     1  UNL1       -0.4469
     18 C         -30.1246    0.1614   29.2024 C.2     1  UNL1        0.1979
     19 C         -31.2742   -0.0170   28.9623 C.2     1  UNL1        0.1581
     20 N         -31.7546   -0.5625   27.9085 N.pl3   1  UNL1       -0.3019
     21 C         -31.3146   -0.3139   26.7027 C.3     1  UNL1        0.0908
     22 C         -32.7192   -1.7023   27.8812 C.3     1  UNL1        0.0908
     23 C         -32.1758   -0.0631   25.7738 C.3     1  UNL1        0.0215
     24 C         -32.9517   -1.3181   25.3502 C.3     1  UNL1        0.0035
     25 C         -33.6464   -1.7060   26.7593 C.3     1  UNL1        0.0215
     26 C         -32.1521    1.2757   29.2330 C.3     1  UNL1        0.4337
     27 F         -33.1957    1.2509   28.8492 F       1  UNL1       -0.1646
     28 F         -31.4966    2.3415   28.6610 F       1  UNL1       -0.1646
     29 F         -32.1153    1.5612   30.5896 F       1  UNL1       -0.1646
     30 C         -26.6474    1.3881   26.4959 C.2     1  UNL1        0.0684
     31 C         -27.3008    0.5320   27.5291 C.2     1  UNL1        0.0193
@<TRIPOS>BOND
     1     6     7    1
     2     3     8    1
     3    10    14    1
     4    14    15    1
     5     9    16    1
     6    15    16    1
     7     1    17    1
     8    17    18    1
     9    18    19    2
    10    19    20    1
    11    20    21    1
    12    20    22    1
    13    23    24    1
    14    22    25    1
    15    24    25    1
    16    19    26    1
    17    26    27    1
    18    26    28    1
    19    26    29    1
    20    16    30    1
    21     2    31    1
    22    30    31    2
    23    21    23    1
    24     1     2   ar
    25     2     3   ar
    26     3     4   ar
    27     4     5   ar
    28     5     6   ar
    29     6     1   ar
    30     8     9   ar
    31     9    10   ar
    32    10    11   ar
    33    11    13   ar
    34    13    12   ar
    35    12     8   ar
