@<TRIPOS>MOLECULE
No_1679-gen_results/8p0m/2024-11-26-14-13-15/
 20 21 0 0 0
SMALL
GASTEIGER

@<TRIPOS>ATOM
      1 C         -28.0162   -0.8135   28.8779 C.3     1  UNL1        0.1135
      2 C         -27.0636   -0.1190   28.6079 C.ar    1  UNL1       -0.0129
      3 C         -26.9716    0.7139   27.5060 C.ar    1  UNL1       -0.0015
      4 C         -25.8205    1.4909   27.1160 C.ar    1  UNL1        0.0293
      5 C         -24.6775    1.4226   27.9573 C.ar    1  UNL1        0.1401
      6 C         -24.7275    0.5623   29.0847 C.ar    1  UNL1        0.0293
      7 C         -25.8339   -0.1353   29.3368 C.ar    1  UNL1       -0.0015
      8 C         -28.6264   -0.5428   30.1737 C.2     1  UNL1        0.2500
      9 N         -29.7421    0.0007   30.2986 N.am    1  UNL1       -0.1789
     10 C         -30.5300    0.2488   29.4203 C.ar    1  UNL1        0.0734
     11 F         -23.6346    2.1345   27.6736 F       1  UNL1       -0.2042
     12 C         -31.8063    0.2306   29.3663 C.ar    1  UNL1        0.0166
     13 C         -32.6426    0.5627   28.2606 C.ar    1  UNL1        0.0013
     14 C         -31.9588    0.8834   27.0775 C.ar    1  UNL1        0.0001
     15 C         -30.6164    0.8754   26.9969 C.ar    1  UNL1        0.0010
     16 C         -29.8711    0.6012   28.1064 C.ar    1  UNL1        0.0166
     17 O         -28.1004   -1.2393   31.1897 O.2     1  UNL1       -0.2726
     18 C         -29.9731    1.2701   25.6956 C.2     1  UNL1       -0.0045
     19 C         -29.5778    0.3084   24.7174 C.2     1  UNL1       -0.0258
     20 C         -28.8378    0.7517   23.6455 C.3     1  UNL1        0.0307
@<TRIPOS>BOND
     1     1     8    1
     2     8     9   am
     3     9    10    1
     4     5    11    1
     5     8    17    2
     6    15    18    1
     7    18    19    2
     8    19    20    1
     9     1     2    1
    10     2     3   ar
    11     3     4   ar
    12     4     5   ar
    13     5     6   ar
    14     6     7   ar
    15     7     2   ar
    16    10    12   ar
    17    12    13   ar
    18    13    14   ar
    19    14    15   ar
    20    15    16   ar
    21    16    10   ar
