@<TRIPOS>MOLECULE
No_168-gen_results/8p0m/2024-11-26-14-13-15/
 10 10 0 0 0
SMALL
GASTEIGER

@<TRIPOS>ATOM
      1 O         -28.1229   -1.3353   28.4874 O.2     1  UNL1       -0.2733
      2 C         -27.0637   -0.8242   28.8687 C.2     1  UNL1        0.2414
      3 N         -26.8937   -0.2656   29.6815 N.am    1  UNL1       -0.2048
      4 C         -25.6437   -1.2145   28.1394 C.3     1  UNL1        0.0874
      5 C         -24.4551   -0.7002   28.6246 C.3     1  UNL1        0.0227
      6 C         -25.7402    0.4235   30.3148 C.3     1  UNL1        0.1263
      7 C         -24.5066    0.1586   29.6941 C.3     1  UNL1        0.1255
      8 C         -23.2859    0.7682   30.1849 C.2     1  UNL1        0.3661
      9 O         -22.1432    0.3619   29.7425 O.co2   1  UNL1       -0.2456
     10 O         -23.3311    1.8537   30.8522 O.co2   1  UNL1       -0.2456
@<TRIPOS>BOND
     1     1     2    2
     2     2     3   am
     3     2     4    1
     4     4     5    1
     5     6     7    1
     6     7     8    1
     7     8     9   ar
     8     8    10   ar
     9     3     6    1
    10     7     5    1
