@<TRIPOS>MOLECULE
No_1680-gen_results/8p0m/2024-11-26-14-13-15/
 13 14 0 0 0
SMALL
GASTEIGER

@<TRIPOS>ATOM
      1 C         -28.0162   -0.8135   28.8779 C.ar    1  UNL1        0.0009
      2 C         -27.0636   -0.1189   28.6079 C.ar    1  UNL1        0.0001
      3 C         -26.9716    0.7139   27.5060 C.ar    1  UNL1        0.0009
      4 C         -28.1053    0.7744   26.6421 C.ar    1  UNL1        0.0114
      5 C         -29.2008    0.1044   27.0527 C.ar    1  UNL1        0.0577
      6 C         -29.2096   -0.6029   28.1853 C.ar    1  UNL1        0.0114
      7 CL        -30.5720    0.2423   26.0548 Cl      1  UNL1       -0.0822
      8 C         -25.7026   -0.2359   29.4139 C.ar    1  UNL1        0.0000
      9 C         -25.5964   -0.4791   30.4557 C.ar    1  UNL1        0.0000
     10 C         -24.6917   -0.4412   31.2490 C.ar    1  UNL1        0.0000
     11 C         -23.3064   -0.1237   30.7691 C.ar    1  UNL1        0.0000
     12 C         -23.3302    0.2261   29.4289 C.ar    1  UNL1        0.0000
     13 C         -24.5189    0.1905   28.6219 C.ar    1  UNL1        0.0000
@<TRIPOS>BOND
     1     5     7    1
     2     2     8    1
     3     1     2   ar
     4     2     3   ar
     5     3     4   ar
     6     4     5   ar
     7     5     6   ar
     8     6     1   ar
     9     8     9   ar
    10     9    10   ar
    11    10    11   ar
    12    11    12   ar
    13    12    13   ar
    14    13     8   ar
