@<TRIPOS>MOLECULE
No_1682-gen_results/8p0m/2024-11-26-14-13-15/
 12 12 0 0 0
SMALL
GASTEIGER

@<TRIPOS>ATOM
      1 C         -28.0162   -0.8135   28.8779 C.3     1  UNL1        0.0676
      2 C         -28.4690   -0.7850   29.8287 C.3     1  UNL1        0.0080
      3 C         -26.5455   -0.8762   28.8500 C.2     1  UNL1        0.1882
      4 C         -25.8041   -1.0324   30.0571 C.3     1  UNL1        0.2700
      5 C         -26.5373   -1.0386   31.2171 C.3     1  UNL1        0.0486
      6 C         -27.8843   -0.9532   31.1862 C.3     1  UNL1        0.0039
      7 C         -24.3555   -1.1121   30.0346 C.3     1  UNL1        0.4309
      8 F         -23.9555   -1.8467   30.7883 F       1  UNL1       -0.1668
      9 F         -23.8529    0.1274   30.4009 F       1  UNL1       -0.1668
     10 F         -23.8124   -1.3055   28.8248 F       1  UNL1       -0.1668
     11 F         -25.5209   -2.0074   29.7617 F       1  UNL1       -0.2236
     12 O         -25.9174   -0.6829   27.6609 O.2     1  UNL1       -0.2930
@<TRIPOS>BOND
     1     1     3    1
     2     3     4    1
     3     4     5    1
     4     2     6    1
     5     5     6    1
     6     4     7    1
     7     7     8    1
     8     7     9    1
     9     7    10    1
    10     4    11    1
    11     3    12    2
    12     1     2    1
