@<TRIPOS>MOLECULE
No_1683-gen_results/8p0m/2024-11-26-14-13-15/
 10 10 0 0 0
SMALL
GASTEIGER

@<TRIPOS>ATOM
      1 C         -28.0162   -0.8135   28.8779 C.2     1  UNL1        0.0972
      2 C         -27.0636   -0.1190   28.6079 C.2     1  UNL1       -0.0262
      3 C         -26.8756    1.1325   28.9134 C.3     1  UNL1        0.0238
      4 C         -25.6883    1.9515   28.5672 C.3     1  UNL1        0.0104
      5 C         -24.6394    1.2834   27.8753 C.3     1  UNL1        0.0440
      6 C         -24.8068   -0.0513   27.6040 C.3     1  UNL1        0.0104
      7 C         -25.9019   -0.7670   27.9511 C.3     1  UNL1        0.0238
      8 N         -27.9893   -1.5850   30.1056 N.pl3   1  UNL1       -0.1273
      9 C         -23.4455    1.9844   27.4704 C.2     1  UNL1        0.0953
     10 N         -22.2764    1.5556   27.5020 N.2     1  UNL1       -0.1514
@<TRIPOS>BOND
     1     1     2    2
     2     2     3    1
     3     3     4    1
     4     4     5    1
     5     5     6    1
     6     2     7    1
     7     6     7    1
     8     1     8    1
     9     5     9    1
    10     9    10    2
