@<TRIPOS>MOLECULE
No_1685-gen_results/8p0m/2024-11-26-14-13-15/
 16 17 0 0 0
SMALL
GASTEIGER

@<TRIPOS>ATOM
      1 C         -28.0162   -0.8135   28.8779 C.ar    1  UNL1       -0.0039
      2 C         -28.4690   -0.7850   29.8287 C.ar    1  UNL1       -0.0001
      3 C         -28.1960    0.3478   28.0550 C.ar    1  UNL1       -0.0176
      4 C         -29.0191    1.3501   28.3782 C.ar    1  UNL1        0.0026
      5 C         -29.6249    1.2683   29.6012 C.ar    1  UNL1        0.0795
      6 C         -29.3821    0.1816   30.4004 C.ar    1  UNL1        0.0066
      7 C         -27.4497    0.3750   26.7070 C.3     1  UNL1        0.0526
      8 C         -26.4790    1.3700   26.6045 C.ar    1  UNL1       -0.0178
      9 C         -25.1571    0.9785   26.3311 C.ar    1  UNL1       -0.0039
     10 C         -24.0775    1.8930   26.3251 C.ar    1  UNL1       -0.0003
     11 C         -24.4136    3.2186   26.6450 C.ar    1  UNL1       -0.0000
     12 C         -25.6894    3.6644   26.9254 C.ar    1  UNL1       -0.0003
     13 C         -26.7188    2.6733   26.9548 C.ar    1  UNL1       -0.0039
     14 C         -30.5319    2.3636   30.0232 C.2     1  UNL1        0.3877
     15 O         -30.5445    2.8547   31.0257 O.co2   1  UNL1       -0.2406
     16 O         -31.3368    2.7304   28.9961 O.co2   1  UNL1       -0.2406
@<TRIPOS>BOND
     1     3     7    1
     2     7     8    1
     3     5    14    1
     4    14    15   ar
     5    14    16   ar
     6     1     2   ar
     7     2     6   ar
     8     6     5   ar
     9     5     4   ar
    10     4     3   ar
    11     3     1   ar
    12     8     9   ar
    13     9    10   ar
    14    10    11   ar
    15    11    12   ar
    16    12    13   ar
    17    13     8   ar
