@<TRIPOS>MOLECULE
No_1686-gen_results/8p0m/2024-11-26-14-13-15/
 31 35 0 0 0
SMALL
GASTEIGER

@<TRIPOS>ATOM
      1 C         -28.0162   -0.8135   28.8779 C.ar    1  UNL1        0.0369
      2 C         -27.0636   -0.1189   28.6079 C.ar    1  UNL1        0.0031
      3 C         -25.7923   -0.4302   29.0761 C.ar    1  UNL1        0.0002
      4 C         -25.5756   -1.5654   29.9363 C.ar    1  UNL1        0.0031
      5 C         -26.7354   -2.3004   30.2173 C.ar    1  UNL1        0.0369
      6 C         -27.9184   -1.9537   29.7629 C.ar    1  UNL1        0.1393
      7 O         -29.0001   -2.7012   30.1151 O.3     1  UNL1       -0.4656
      8 C         -24.5290    0.3490   28.7998 C.ar    1  UNL1        0.0000
      9 C         -24.4808    1.2113   27.7998 C.ar    1  UNL1        0.0000
     10 C         -23.2478    1.8974   27.4951 C.ar    1  UNL1        0.0000
     11 C         -22.0497    1.5890   28.1642 C.ar    1  UNL1        0.0000
     12 C         -23.3072    0.0149   29.4618 C.ar    1  UNL1        0.0000
     13 C         -22.0852    0.6899   29.1374 C.ar    1  UNL1        0.0000
     14 C         -30.1248   -2.1320   30.5843 C.3     1  UNL1        0.2911
     15 C         -31.1953   -2.7086   30.1286 C.2     1  UNL1        0.2859
     16 O         -31.9897   -2.1591   29.4810 O.2     1  UNL1       -0.2693
     17 N         -31.2472   -4.1736   29.9880 N.am    1  UNL1       -0.2020
     18 C         -32.2038   -4.8618   29.2447 C.3     1  UNL1        0.1178
     19 C         -31.9141   -5.1014   27.9422 C.3     1  UNL1        0.0509
     20 C         -32.6673   -5.8645   27.2589 C.ar    1  UNL1       -0.0071
     21 C         -32.3226   -6.2541   25.8816 C.ar    1  UNL1       -0.0030
     22 C         -32.3977   -7.3348   25.6123 C.ar    1  UNL1       -0.0002
     23 C         -33.1709   -8.3688   26.2444 C.ar    1  UNL1        0.0012
     24 C         -33.5604   -8.0459   27.5049 C.ar    1  UNL1        0.0142
     25 C         -33.2049   -6.8545   28.0304 C.ar    1  UNL1        0.0438
     26 C         -32.4380   -6.2392   29.8151 C.3     1  UNL1        0.0930
     27 C         -32.4758   -6.1993   31.3442 C.3     1  UNL1        0.0215
     28 N         -32.5742   -6.6298   29.2012 N.pl3   1  UNL1       -0.3077
     29 C         -31.8437   -8.0063   29.6708 C.3     1  UNL1        0.0908
     30 C         -31.7515   -8.3433   31.0006 C.3     1  UNL1        0.0215
     31 C         -31.8887   -7.3346   31.8980 C.3     1  UNL1        0.0035
@<TRIPOS>BOND
     1     6     7    1
     2     3     8    1
     3     7    14    1
     4    14    15    1
     5    15    16    2
     6    15    17   am
     7    17    18    1
     8    18    19    1
     9    18    26    1
    10    26    27    1
    11    25    28    1
    12    26    28    1
    13    28    29    1
    14    30    31    1
    15    20    19    1
    16    27    31    1
    17    30    29    1
    18     1     2   ar
    19     2     3   ar
    20     3     4   ar
    21     4     5   ar
    22     5     6   ar
    23     6     1   ar
    24    20    21   ar
    25    21    22   ar
    26    22    23   ar
    27    23    24   ar
    28    24    25   ar
    29    25    20   ar
    30     8     9   ar
    31     9    10   ar
    32    10    11   ar
    33    11    13   ar
    34    13    12   ar
    35    12     8   ar
