@<TRIPOS>MOLECULE
No_1687-gen_results/8p0m/2024-11-26-14-13-15/
 15 16 0 0 0
SMALL
GASTEIGER

@<TRIPOS>ATOM
      1 C         -28.0162   -0.8135   28.8779 C.ar    1  UNL1        0.0374
      2 C         -27.0636   -0.1189   28.6079 C.ar    1  UNL1        0.0098
      3 C         -25.7923   -0.4302   29.0761 C.ar    1  UNL1        0.0348
      4 C         -25.5756   -1.5654   29.9363 C.ar    1  UNL1        0.0098
      5 C         -26.7354   -2.3004   30.2173 C.ar    1  UNL1        0.0374
      6 C         -27.9184   -1.9537   29.7629 C.ar    1  UNL1        0.1391
      7 O         -29.0001   -2.7012   30.1151 O.3     1  UNL1       -0.4706
      8 BR        -24.2168    0.5765   28.7081 Br      1  UNL1       -0.0490
      9 C         -30.0970   -2.0977   30.6212 C.3     1  UNL1        0.2320
     10 C         -30.0948   -1.1937   31.3267 C.ar    1  UNL1        0.0212
     11 C         -28.8307   -0.7712   31.9811 C.ar    1  UNL1       -0.0007
     12 C         -28.6719    0.1055   32.6052 C.ar    1  UNL1       -0.0002
     13 C         -29.7111    0.9432   33.0722 C.ar    1  UNL1       -0.0000
     14 C         -30.9930    0.5903   32.5733 C.ar    1  UNL1       -0.0002
     15 C         -31.1241   -0.4135   31.7412 C.ar    1  UNL1       -0.0007
@<TRIPOS>BOND
     1     6     7    1
     2     3     8    1
     3     7     9    1
     4     9    10    1
     5     1     2   ar
     6     2     3   ar
     7     3     4   ar
     8     4     5   ar
     9     5     6   ar
    10     6     1   ar
    11    10    11   ar
    12    11    12   ar
    13    12    13   ar
    14    13    14   ar
    15    14    15   ar
    16    15    10   ar
