@<TRIPOS>MOLECULE
No_1688-gen_results/8p0m/2024-11-26-14-13-15/
 12 13 0 0 0
SMALL
GASTEIGER

@<TRIPOS>ATOM
      1 C         -28.0162   -0.8135   28.8779 C.ar    1  UNL1        0.0000
      2 C         -27.0636   -0.1190   28.6079 C.ar    1  UNL1        0.0000
      3 C         -25.7647   -0.3897   29.0360 C.ar    1  UNL1        0.0000
      4 C         -24.5516    0.4058   28.7646 C.ar    1  UNL1        0.0000
      5 C         -24.6957    1.4480   27.7988 C.ar    1  UNL1        0.0000
      6 C         -23.5821    2.2165   27.4626 C.ar    1  UNL1        0.0000
      7 C         -22.3295    1.8427   27.9661 C.ar    1  UNL1        0.0000
      8 C         -22.1809    0.8284   28.8814 C.ar    1  UNL1        0.0000
      9 C         -23.3190    0.0774   29.2471 C.ar    1  UNL1        0.0000
     10 C         -27.9056   -1.8765   29.8669 C.ar    1  UNL1        0.0000
     11 C         -26.6648   -2.3322   30.2886 C.ar    1  UNL1        0.0000
     12 C         -25.5477   -1.5609   29.9180 C.ar    1  UNL1        0.0000
@<TRIPOS>BOND
     1     3     4    1
     2     1     2   ar
     3     2     3   ar
     4     3    12   ar
     5    12    11   ar
     6    11    10   ar
     7    10     1   ar
     8     4     5   ar
     9     5     6   ar
    10     6     7   ar
    11     7     8   ar
    12     8     9   ar
    13     9     4   ar
