@<TRIPOS>MOLECULE
No_1689-gen_results/8p0m/2024-11-26-14-13-15/
 20 22 0 0 0
SMALL
GASTEIGER

@<TRIPOS>ATOM
      1 C         -28.0162   -0.8135   28.8779 C.3     1  UNL1        0.0539
      2 C         -27.0636   -0.1189   28.6079 C.ar    1  UNL1       -0.0044
      3 C         -27.0010    0.6913   27.4910 C.ar    1  UNL1        0.0450
      4 C         -25.8548    1.4825   27.0830 C.ar    1  UNL1        0.0256
      5 C         -24.6901    1.4526   27.8807 C.ar    1  UNL1        0.0589
      6 C         -24.7379    0.6010   29.0416 C.ar    1  UNL1        0.0112
      7 C         -25.8234   -0.1688   29.3887 C.ar    1  UNL1       -0.0019
      8 C         -28.7350   -0.4637   30.1419 C.ar    1  UNL1       -0.0177
      9 C         -28.7831    0.6118   30.5175 C.ar    1  UNL1       -0.0039
     10 C         -29.5935    0.9569   31.7959 C.ar    1  UNL1       -0.0003
     11 C         -30.1904   -0.1138   32.4264 C.ar    1  UNL1       -0.0000
     12 C         -29.5331   -1.5073   30.9239 C.ar    1  UNL1       -0.0039
     13 C         -30.1678   -1.3200   32.0082 C.ar    1  UNL1       -0.0003
     14 CL        -23.2900    2.2925   27.5015 Cl      1  UNL1       -0.0822
     15 N         -28.0509    0.7776   26.6395 N.pl3   1  UNL1       -0.3077
     16 C         -28.0205    0.7724   25.3279 C.3     1  UNL1        0.0908
     17 C         -28.9337    0.9582   24.6726 C.3     1  UNL1        0.0215
     18 C         -30.1556    0.6248   25.0685 C.3     1  UNL1        0.0035
     19 C         -30.3703    0.4354   26.4315 C.3     1  UNL1        0.0215
     20 C         -29.2940    0.5958   27.2556 C.3     1  UNL1        0.0908
@<TRIPOS>BOND
     1     1     2    1
     2     1     8    1
     3     5    14    1
     4     3    15    1
     5    15    16    1
     6    17    18    1
     7    15    20    1
     8    19    20    1
     9    16    17    1
    10    18    19    1
    11     2     3   ar
    12     3     4   ar
    13     4     5   ar
    14     5     6   ar
    15     6     7   ar
    16     7     2   ar
    17     8     9   ar
    18     9    10   ar
    19    10    11   ar
    20    11    13   ar
    21    13    12   ar
    22    12     8   ar
