@<TRIPOS>MOLECULE
No_169-gen_results/8p0m/2024-11-26-14-13-15/
 13 13 0 0 0
SMALL
GASTEIGER

@<TRIPOS>ATOM
      1 C         -28.0162   -0.8135   28.8779 C.ar    1  UNL1       -0.0043
      2 C         -28.4690   -0.7850   29.8287 C.ar    1  UNL1       -0.0003
      3 C         -28.1960    0.3478   28.0550 C.ar    1  UNL1       -0.0222
      4 C         -29.0191    1.3501   28.3782 C.ar    1  UNL1       -0.0043
      5 C         -29.2330    0.0588   30.3450 C.ar    1  UNL1       -0.0000
      6 C         -29.5334    1.2062   29.6597 C.ar    1  UNL1       -0.0003
      7 C         -27.4957    0.3867   26.6807 C.3     1  UNL1        0.0267
      8 C         -28.0145    0.5973   25.6630 C.3     1  UNL1        0.0050
      9 C         -26.0285    0.1690   26.7229 C.3     1  UNL1        0.0304
     10 C         -25.1723    1.1775   27.1772 C.2     1  UNL1       -0.0241
     11 C         -23.9058    0.9225   27.7515 C.2     1  UNL1        0.0179
     12 C         -22.9568    1.9498   27.7908 C.2     1  UNL1        0.1218
     13 N         -21.7359    1.6570   28.3722 N.2     1  UNL1       -0.1464
@<TRIPOS>BOND
     1     3     7    1
     2     7     8    1
     3     7     9    1
     4     9    10    1
     5    10    11    2
     6    11    12    1
     7    12    13    2
     8     1     2   ar
     9     2     5   ar
    10     5     6   ar
    11     6     4   ar
    12     4     3   ar
    13     3     1   ar
