@<TRIPOS>MOLECULE
No_1690-gen_results/8p0m/2024-11-26-14-13-15/
 12 13 0 0 0
SMALL
GASTEIGER

@<TRIPOS>ATOM
      1 C         -28.0162   -0.8135   28.8779 C.ar    1  UNL1        0.0000
      2 C         -28.4690   -0.7850   29.8287 C.ar    1  UNL1        0.0000
      3 C         -27.0871    0.2903   28.6377 C.ar    1  UNL1        0.0000
      4 C         -26.8317    1.2487   29.5869 C.ar    1  UNL1        0.0000
      5 C         -28.3914    0.0801   31.0065 C.ar    1  UNL1        0.0000
      6 C         -27.4940    1.1521   30.7841 C.ar    1  UNL1        0.0000
      7 C         -26.3109    0.3918   27.3640 C.ar    1  UNL1        0.0000
      8 C         -24.9686    0.2477   27.4806 C.ar    1  UNL1        0.0000
      9 C         -26.9237    0.5760   26.1378 C.ar    1  UNL1        0.0000
     10 C         -26.2090    0.4232   24.9761 C.ar    1  UNL1        0.0000
     11 C         -24.1633    0.3442   26.2973 C.ar    1  UNL1        0.0000
     12 C         -24.8293    0.3966   25.0413 C.ar    1  UNL1        0.0000
@<TRIPOS>BOND
     1     3     7    1
     2     7     8   ar
     3     8    11   ar
     4    11    12   ar
     5    12    10   ar
     6    10     9   ar
     7     9     7   ar
     8     1     2   ar
     9     2     5   ar
    10     5     6   ar
    11     6     4   ar
    12     4     3   ar
    13     3     1   ar
