@<TRIPOS>MOLECULE
No_1691-gen_results/8p0m/2024-11-26-14-13-15/
 17 18 0 0 0
SMALL
GASTEIGER

@<TRIPOS>ATOM
      1 C         -28.0162   -0.8135   28.8779 C.ar    1  UNL1        0.0814
      2 C         -27.0636   -0.1189   28.6079 C.ar    1  UNL1        0.0177
      3 C         -25.7923   -0.4302   29.0761 C.ar    1  UNL1        0.0017
      4 C         -24.5456    0.3494   28.8225 C.ar    1  UNL1        0.0066
      5 C         -24.6586    1.4196   27.8878 C.ar    1  UNL1        0.0798
      6 C         -25.9471    1.6811   27.3792 C.ar    1  UNL1        0.0066
      7 C         -27.0439    0.9739   27.6871 C.ar    1  UNL1        0.0017
      8 N         -29.1882   -0.1472   29.0918 N.ar    1  UNL1       -0.2420
      9 CA        -30.2017   -0.7833   29.7303 C.ar    1  UNL1        0.1234
     10 C         -23.4507    2.1524   27.6005 C.2     1  UNL1        0.3878
     11 O         -22.3163    1.8630   28.0595 O.co2   1  UNL1       -0.2406
     12 O         -23.5922    3.2207   26.8470 O.co2   1  UNL1       -0.2406
     13 C         -31.5132   -0.4792   29.4402 C.2     1  UNL1        0.2531
     14 C         -29.9465   -1.7952   30.7500 C.ar    1  UNL1        0.0225
     15 C         -28.6474   -2.0832   31.1695 C.ar    1  UNL1        0.0032
     16 C         -27.6702   -1.8779   29.9749 C.ar    1  UNL1        0.0191
     17 O         -31.7869    0.5605   28.9053 O.2     1  UNL1       -0.2815
@<TRIPOS>BOND
     1     1     2    1
     2     5    10    1
     3    10    11   ar
     4    10    12   ar
     5    13    17    2
     6    13     9    1
     7     1     8   ar
     8     8     9   ar
     9     9    14   ar
    10    14    15   ar
    11    15    16   ar
    12    16     1   ar
    13     2     3   ar
    14     3     4   ar
    15     4     5   ar
    16     5     6   ar
    17     6     7   ar
    18     7     2   ar
