@<TRIPOS>MOLECULE
No_1693-gen_results/8p0m/2024-11-26-14-13-15/
 10 10 0 0 0
SMALL
GASTEIGER

@<TRIPOS>ATOM
      1 O         -28.1229   -1.3353   28.4874 O.2     1  UNL1       -0.2733
      2 C         -27.4806   -0.4044   28.7094 C.2     1  UNL1        0.2430
      3 C         -27.1904    0.2460   29.5268 C.3     1  UNL1        0.0870
      4 N         -26.8157    0.1371   27.4262 N.am    1  UNL1       -0.1827
      5 C         -26.3550    1.4196   29.7643 C.3     1  UNL1        0.0135
      6 C         -26.0709    1.1987   27.5450 C.3     1  UNL1        0.1967
      7 C         -25.7589    1.9059   28.6134 C.3     1  UNL1        0.0473
      8 N         -25.4797    1.6503   26.2966 N.2     1  UNL1       -0.2535
      9 C         -24.6195    2.7544   26.3541 C.2     1  UNL1        0.0691
     10 C         -24.3746    3.4378   27.4721 C.3     1  UNL1        0.0530
@<TRIPOS>BOND
     1     1     2    2
     2     2     3    1
     3     2     4   am
     4     4     6    1
     5     5     7    1
     6     6     8    1
     7     8     9    2
     8     9    10    1
     9     3     5    1
    10     7     6    1
