@<TRIPOS>MOLECULE
No_1694-gen_results/8p0m/2024-11-26-14-13-15/
 17 18 0 0 0
SMALL
GASTEIGER

@<TRIPOS>ATOM
      1 C         -28.0162   -0.8135   28.8779 C.ar    1  UNL1        0.0043
      2 C         -28.4690   -0.7850   29.8287 C.ar    1  UNL1        0.0550
      3 C         -26.5455   -0.8762   28.8500 C.ar    1  UNL1       -0.0038
      4 C         -25.8041   -1.0324   30.0571 C.ar    1  UNL1       -0.0178
      5 C         -27.9437   -0.9869   31.2075 C.ar    1  UNL1        0.0043
      6 C         -26.5825   -1.0386   31.2231 C.ar    1  UNL1       -0.0038
      7 C         -30.0606   -0.7371   29.9024 C.2     1  UNL1        0.2648
      8 O         -30.5524   -0.2769   29.0111 O.2     1  UNL1       -0.2684
      9 N         -30.7428   -1.2890   30.9939 N.am    1  UNL1       -0.1998
     10 C         -32.1712   -1.2600   30.9749 C.3     1  UNL1        0.1388
     11 C         -24.3688   -1.0881   30.0880 C.3     1  UNL1        0.0526
     12 C         -23.5808   -0.7799   29.0756 C.ar    1  UNL1       -0.0178
     13 C         -22.1319   -0.6858   29.1927 C.ar    1  UNL1       -0.0039
     14 C         -21.3960   -0.1584   28.1410 C.ar    1  UNL1       -0.0003
     15 C         -22.0338    0.8623   27.3306 C.ar    1  UNL1       -0.0000
     16 C         -23.4607    1.0124   27.3680 C.ar    1  UNL1       -0.0003
     17 C         -24.1728    0.2953   28.2164 C.ar    1  UNL1       -0.0039
@<TRIPOS>BOND
     1     2     7    1
     2     7     8    2
     3     7     9   am
     4     9    10    1
     5     4    11    1
     6    11    12    1
     7    12    13   ar
     8    13    14   ar
     9    14    15   ar
    10    15    16   ar
    11    16    17   ar
    12    17    12   ar
    13     1     2   ar
    14     2     5   ar
    15     5     6   ar
    16     6     4   ar
    17     4     3   ar
    18     3     1   ar
