@<TRIPOS>MOLECULE
No_1697-gen_results/8p0m/2024-11-26-14-13-15/
 10 10 0 0 0
SMALL
GASTEIGER

@<TRIPOS>ATOM
      1 O         -28.1229   -1.3353   28.4874 O.2     1  UNL1       -0.2680
      2 C         -27.0637   -0.8242   28.8687 C.2     1  UNL1        0.2691
      3 C         -26.4017   -0.0623   28.6224 C.ar    1  UNL1        0.0554
      4 N         -26.3805   -1.7991   29.9619 N.am    1  UNL1       -0.1727
      5 C         -25.0334    0.3743   29.0484 C.ar    1  UNL1        0.0046
      6 C         -24.2291    1.4474   28.6285 C.ar    1  UNL1        0.0001
      7 C         -24.7930    2.2384   27.5681 C.ar    1  UNL1        0.0000
      8 C         -26.0246    1.9553   27.0799 C.ar    1  UNL1        0.0001
      9 C         -26.7498    0.9381   27.4878 C.ar    1  UNL1        0.0046
     10 C         -26.7751   -2.9391   30.1498 C.2     1  UNL1        0.1068
@<TRIPOS>BOND
     1     1     2    2
     2     2     3    1
     3     2     4    1
     4     4    10    2
     5     3     5   ar
     6     5     6   ar
     7     6     7   ar
     8     7     8   ar
     9     8     9   ar
    10     9     3   ar
