@<TRIPOS>MOLECULE
No_1698-gen_results/8p0m/2024-11-26-14-13-15/
 17 18 0 0 0
SMALL
GASTEIGER

@<TRIPOS>ATOM
      1 C         -28.0162   -0.8135   28.8779 C.ar    1  UNL1        0.0671
      2 C         -27.0636   -0.1189   28.6079 C.ar    1  UNL1        0.1475
      3 C         -26.9287    1.1713   29.0083 C.ar    1  UNL1        0.0376
      4 C         -27.9560    1.7411   29.7840 C.ar    1  UNL1        0.0054
      5 C         -29.0569   -0.3271   29.7466 C.ar    1  UNL1        0.1432
      6 C         -28.9828    0.9722   30.1516 C.ar    1  UNL1        0.0298
      7 O         -25.9911   -0.6119   27.8566 O.3     1  UNL1       -0.4532
      8 C         -24.6317   -0.3327   28.2530 C.ar    1  UNL1        0.1516
      9 C         -23.9205   -1.2516   28.9900 C.ar    1  UNL1        0.1142
     10 C         -22.6222   -0.9519   29.3203 C.ar    1  UNL1        0.0097
     11 C         -24.0886    0.9101   27.8946 C.ar    1  UNL1        0.0377
     12 C         -22.8136    1.2494   28.3161 C.ar    1  UNL1        0.0031
     13 C         -22.0361    0.3303   28.9994 C.ar    1  UNL1        0.0004
     14 F         -30.0438   -1.1276   30.1004 F       1  UNL1       -0.2041
     15 C         -24.4018   -2.5506   29.2812 C.2     1  UNL1        0.3907
     16 O         -25.1934   -3.0561   28.8688 O.co2   1  UNL1       -0.2404
     17 O         -23.6967   -3.1898   30.2484 O.co2   1  UNL1       -0.2404
@<TRIPOS>BOND
     1     2     7    1
     2     7     8    1
     3     5    14    1
     4     9    15    1
     5    15    16   ar
     6    15    17   ar
     7     8     9   ar
     8     9    10   ar
     9    10    13   ar
    10    13    12   ar
    11    12    11   ar
    12    11     8   ar
    13     1     2   ar
    14     2     3   ar
    15     3     4   ar
    16     4     6   ar
    17     6     5   ar
    18     5     1   ar
