@<TRIPOS>MOLECULE
No_1699-gen_results/8p0m/2024-11-26-14-13-15/
 10 10 0 0 0
SMALL
GASTEIGER

@<TRIPOS>ATOM
      1 C         -28.0162   -0.8135   28.8779 C.ar    1  UNL1        0.0001
      2 C         -27.0636   -0.1189   28.6079 C.ar    1  UNL1        0.0000
      3 C         -26.9716    0.7139   27.5060 C.ar    1  UNL1        0.0001
      4 C         -28.1053    0.7744   26.6421 C.ar    1  UNL1        0.0046
      5 C         -29.2008    0.1044   27.0527 C.ar    1  UNL1        0.0550
      6 C         -29.2096   -0.6029   28.1853 C.ar    1  UNL1        0.0046
      7 C         -30.3702    0.2264   26.1604 C.2     1  UNL1        0.2648
      8 N         -30.9928    1.1454   26.0580 N.am    1  UNL1       -0.1998
      9 O         -30.7351   -0.8643   25.5339 O.2     1  UNL1       -0.2684
     10 C         -32.1949    1.3553   25.1703 C.3     1  UNL1        0.1388
@<TRIPOS>BOND
     1     5     7    1
     2     7     8   am
     3     7     9    2
     4     8    10    1
     5     1     2   ar
     6     2     3   ar
     7     3     4   ar
     8     4     5   ar
     9     5     6   ar
    10     6     1   ar
