@<TRIPOS>MOLECULE
No_17-gen_results/8p0m/2024-11-26-14-13-15/
 35 37 0 0 0
SMALL
GASTEIGER

@<TRIPOS>ATOM
      1 C         -28.0162   -0.8135   28.8779 C.ar    1  UNL1        0.0066
      2 C         -28.4690   -0.7850   29.8287 C.ar    1  UNL1        0.0798
      3 C         -26.5455   -0.8762   28.8500 C.ar    1  UNL1        0.0003
      4 C         -25.8041   -1.0324   30.0571 C.ar    1  UNL1        0.0024
      5 C         -27.9437   -0.9869   31.2075 C.ar    1  UNL1        0.0066
      6 C         -26.5825   -1.0386   31.2231 C.ar    1  UNL1        0.0003
      7 C         -30.0606   -0.7371   29.9024 C.2     1  UNL1        0.3878
      8 O         -30.6052    0.0855   30.7066 O.co2   1  UNL1       -0.2406
      9 O         -30.6701   -1.4594   29.0728 O.co2   1  UNL1       -0.2406
     10 C         -24.3711   -1.0948   30.0783 C.ar    1  UNL1        0.0337
     11 C         -23.7030    0.1902   30.1011 C.ar    1  UNL1        0.0778
     12 C         -22.4581    0.3375   29.4175 C.ar    1  UNL1        0.0066
     13 C         -21.7917   -0.8470   29.0286 C.ar    1  UNL1        0.0025
     14 C         -22.5518   -2.0221   28.9300 C.ar    1  UNL1        0.0296
     15 C         -23.8053   -2.1778   29.4359 C.ar    1  UNL1        0.1403
     16 F         -24.3779   -3.3042   29.3631 F       1  UNL1       -0.2042
     17 C         -24.2949    1.4143   30.7547 C.2     1  UNL1        0.3413
     18 O         -24.3848    1.5895   31.8849 O.2     1  UNL1       -0.2449
     19 O         -24.8617    2.3165   29.8591 O.3     1  UNL1       -0.4451
     20 C         -25.8650    3.1007   30.2170 C.3     1  UNL1        0.2133
     21 C         -26.5895    3.6799   29.1496 C.3     1  UNL1        0.0702
     22 C         -26.2222    3.6163   27.9590 C.3     1  UNL1        0.0344
     23 C         -26.2315    2.6592   27.3081 C.ar    1  UNL1       -0.0217
     24 C         -25.6428    2.5677   25.9552 C.ar    1  UNL1       -0.0043
     25 C         -25.4569    1.3630   25.2755 C.ar    1  UNL1       -0.0003
     26 C         -26.0960    0.2264   25.5716 C.ar    1  UNL1       -0.0000
     27 C         -26.9170    0.2890   26.7138 C.ar    1  UNL1       -0.0003
     28 C         -26.9836    1.4972   27.4868 C.ar    1  UNL1       -0.0043
     29 C         -28.0913    3.3660   29.2788 C.2     1  UNL1       -0.0224
     30 C         -28.9640    4.4385   29.2132 C.2     1  UNL1       -0.0045
     31 C         -30.3746    4.2259   29.3684 C.2     1  UNL1       -0.0003
     32 C         -30.7613    2.8827   29.4479 C.2     1  UNL1       -0.0003
     33 C         -32.1572    2.7256   29.5144 C.2     1  UNL1       -0.0046
     34 C         -32.9750    3.7632   29.5042 C.2     1  UNL1       -0.0258
     35 C         -32.5876    5.0525   29.4201 C.3     1  UNL1        0.0307
@<TRIPOS>BOND
     1     2     7    1
     2     7     8   ar
     3     7     9   ar
     4     4    10    1
     5    15    16    1
     6    11    17    1
     7    17    18    2
     8    17    19    1
     9    19    20    1
    10    20    21    1
    11    21    22    1
    12    21    29    1
    13    29    30    2
    14    30    31    1
    15    31    32    2
    16    32    33    1
    17    33    34    2
    18    34    35    1
    19    22    23    1
    20    23    24   ar
    21    24    25   ar
    22    25    26   ar
    23    26    27   ar
    24    27    28   ar
    25    28    23   ar
    26     1     2   ar
    27     2     5   ar
    28     5     6   ar
    29     6     4   ar
    30     4     3   ar
    31     3     1   ar
    32    10    11   ar
    33    11    12   ar
    34    12    13   ar
    35    13    14   ar
    36    14    15   ar
    37    15    10   ar
