@<TRIPOS>MOLECULE
No_170-gen_results/8p0m/2024-11-26-14-13-15/
 17 18 0 0 0
SMALL
GASTEIGER

@<TRIPOS>ATOM
      1 C         -28.0162   -0.8135   28.8779 C.ar    1  UNL1        0.0028
      2 C         -28.4690   -0.7850   29.8287 C.ar    1  UNL1        0.0001
      3 C         -28.1960    0.3478   28.0550 C.ar    1  UNL1        0.0347
      4 C         -27.4421    0.5100   26.7946 C.2     1  UNL1        0.1734
      5 C         -26.4394    0.8329   26.6142 C.3     1  UNL1        0.0735
      6 C         -25.2140    0.6624   26.7020 C.3     1  UNL1        0.0300
      7 C         -24.3985    0.0427   27.6996 C.ar    1  UNL1       -0.0221
      8 C         -23.2270    0.5345   28.2267 C.ar    1  UNL1       -0.0043
      9 C         -22.5415   -0.1250   29.2949 C.ar    1  UNL1       -0.0003
     10 C         -29.5184    0.0578   30.3532 C.ar    1  UNL1        0.0000
     11 C         -29.8119    1.1316   29.5782 C.ar    1  UNL1        0.0001
     12 C         -29.1492    1.3054   28.3882 C.ar    1  UNL1        0.0028
     13 C         -23.0326   -1.3159   29.7624 C.ar    1  UNL1       -0.0000
     14 C         -24.2056   -1.8525   29.3043 C.ar    1  UNL1       -0.0003
     15 C         -24.9001   -1.1611   28.2841 C.ar    1  UNL1       -0.0043
     16 O         -28.2071   -0.1432   25.8259 O.2     1  UNL1       -0.2913
     17 C         -24.3937    0.8115   25.4539 C.3     1  UNL1        0.0051
@<TRIPOS>BOND
     1     3     4    1
     2     4     5    1
     3     5     6    1
     4     6     7    1
     5     4    16    2
     6     6    17    1
     7     1     2   ar
     8     2    10   ar
     9    10    11   ar
    10    11    12   ar
    11    12     3   ar
    12     3     1   ar
    13     7     8   ar
    14     8     9   ar
    15     9    13   ar
    16    13    14   ar
    17    14    15   ar
    18    15     7   ar
