@<TRIPOS>MOLECULE
No_1700-gen_results/8p0m/2024-11-26-14-13-15/
 16 17 0 0 0
SMALL
GASTEIGER

@<TRIPOS>ATOM
      1 CL        -28.1493   -0.8198   28.9079 Cl      1  UNL1       -0.0822
      2 C         -26.9116   -0.0797   28.9452 C.ar    1  UNL1        0.0577
      3 C         -26.7384    1.0439   29.2534 C.ar    1  UNL1        0.0108
      4 C         -25.4392    1.7115   29.2755 C.ar    1  UNL1        0.0074
      5 C         -24.2812    0.9888   28.8542 C.ar    1  UNL1        0.0798
      6 C         -24.4869   -0.3041   28.4957 C.ar    1  UNL1        0.0074
      7 C         -25.7046   -0.8667   28.5244 C.ar    1  UNL1        0.0116
      8 C         -22.9690    1.6346   28.7977 C.2     1  UNL1        0.3878
      9 O         -21.9160    1.0426   28.7571 O.co2   1  UNL1       -0.2406
     10 O         -22.9930    2.9440   28.3935 O.co2   1  UNL1       -0.2406
     11 C         -27.8147    1.9695   29.7406 C.ar    1  UNL1        0.0008
     12 C         -27.9360    3.0872   29.2720 C.ar    1  UNL1        0.0000
     13 C         -28.9959    4.0356   29.7522 C.ar    1  UNL1        0.0000
     14 C         -29.9024    3.4924   30.6507 C.ar    1  UNL1        0.0000
     15 C         -29.7356    2.2156   31.0940 C.ar    1  UNL1        0.0000
     16 C         -28.6802    1.4039   30.7081 C.ar    1  UNL1        0.0000
@<TRIPOS>BOND
     1     1     2    1
     2     5     8    1
     3     8     9   ar
     4     8    10   ar
     5     3    11    1
     6    11    12   ar
     7    12    13   ar
     8    13    14   ar
     9    14    15   ar
    10    15    16   ar
    11    16    11   ar
    12     2     3   ar
    13     3     4   ar
    14     4     5   ar
    15     5     6   ar
    16     6     7   ar
    17     7     2   ar
