@<TRIPOS>MOLECULE
No_1701-gen_results/8p0m/2024-11-26-14-13-15/
 18 19 0 0 0
SMALL
GASTEIGER

@<TRIPOS>ATOM
      1 C         -28.0162   -0.8135   28.8779 C.3     1  UNL1        0.0526
      2 C         -27.0636   -0.1190   28.6079 C.ar    1  UNL1       -0.0177
      3 C         -26.9716    0.7139   27.5060 C.ar    1  UNL1       -0.0032
      4 C         -25.8205    1.4909   27.1160 C.ar    1  UNL1        0.0100
      5 C         -24.6562    1.4242   27.9180 C.ar    1  UNL1        0.0684
      6 C         -24.7114    0.5419   29.0507 C.ar    1  UNL1        0.0100
      7 C         -25.8042   -0.2058   29.3881 C.ar    1  UNL1       -0.0032
      8 C         -29.2771   -0.1377   29.0363 C.ar    1  UNL1       -0.0176
      9 C         -29.8652    0.0502   29.9088 C.ar    1  UNL1       -0.0039
     10 C         -31.1158    0.7615   29.8982 C.ar    1  UNL1       -0.0001
     11 C         -31.6274    1.1128   28.6761 C.ar    1  UNL1        0.0066
     12 C         -30.9528    0.8124   27.5552 C.ar    1  UNL1        0.0795
     13 C         -29.7530    0.1731   27.6525 C.ar    1  UNL1        0.0026
     14 C         -23.4661    2.1557   27.6255 C.1     1  UNL1        0.1004
     15 N         -22.4253    1.6111   27.3124 N.1     1  UNL1       -0.1908
     16 C         -31.4567    1.1840   26.2146 C.2     1  UNL1        0.3877
     17 O         -31.5786    2.2590   25.8403 O.co2   1  UNL1       -0.2406
     18 O         -31.6385    0.1256   25.4238 O.co2   1  UNL1       -0.2406
@<TRIPOS>BOND
     1     1     8    1
     2     5    14    1
     3    14    15    3
     4    12    16    1
     5    16    17   ar
     6    16    18   ar
     7     1     2    1
     8     2     3   ar
     9     3     4   ar
    10     4     5   ar
    11     5     6   ar
    12     6     7   ar
    13     7     2   ar
    14     8     9   ar
    15     9    10   ar
    16    10    11   ar
    17    11    12   ar
    18    12    13   ar
    19    13     8   ar
