@<TRIPOS>MOLECULE
No_1702-gen_results/8p0m/2024-11-26-14-13-15/
 17 18 0 0 0
SMALL
GASTEIGER

@<TRIPOS>ATOM
      1 O         -28.1229   -1.3353   28.4874 O.2     1  UNL1       -0.2749
      2 C         -27.0637   -0.8242   28.8687 C.2     1  UNL1        0.2255
      3 C         -26.4017   -0.0623   28.6224 C.3     1  UNL1        0.0808
      4 N         -26.3805   -1.7991   29.9619 N.am    1  UNL1       -0.2778
      5 C         -25.0334    0.3743   29.0484 C.3     1  UNL1        0.0112
      6 C         -24.5462   -0.4703   30.1069 C.3     1  UNL1        0.0220
      7 C         -25.2361   -1.5529   30.4712 C.3     1  UNL1        0.0935
      8 C         -26.8307    0.9807   27.5238 C.3     1  UNL1        0.0309
      9 C         -27.0620    2.1351   27.7177 C.ar    1  UNL1       -0.0220
     10 C         -26.8232    2.6833   28.9884 C.ar    1  UNL1       -0.0043
     11 C         -26.8889    3.7696   29.3567 C.ar    1  UNL1       -0.0003
     12 C         -27.2614    4.7983   28.3198 C.ar    1  UNL1       -0.0000
     13 C         -27.4945    4.3971   27.0334 C.ar    1  UNL1       -0.0003
     14 C         -27.3694    3.0525   26.7132 C.ar    1  UNL1       -0.0043
     15 C         -26.9796    0.3309   26.1967 C.3     1  UNL1        0.0048
     16 C         -27.2221   -2.9707   30.3083 C.3     1  UNL1        0.1148
     17 C         -28.1301    0.2938   25.6368 C.3     1  UNL1        0.0004
@<TRIPOS>BOND
     1     1     2    2
     2     2     3    1
     3     2     4   am
     4     3     5    1
     5     4     7    1
     6     6     7    1
     7     3     8    1
     8     8     9    1
     9     8    15    1
    10     4    16    1
    11    15    17    1
    12     5     6    1
    13     9    10   ar
    14    10    11   ar
    15    11    12   ar
    16    12    13   ar
    17    13    14   ar
    18    14     9   ar
