@<TRIPOS>MOLECULE
No_1703-gen_results/8p0m/2024-11-26-14-13-15/
 24 26 0 0 0
SMALL
GASTEIGER

@<TRIPOS>ATOM
      1 C         -28.0162   -0.8135   28.8779 C.ar    1  UNL1        0.0463
      2 C         -28.4690   -0.7850   29.8287 C.ar    1  UNL1        0.0582
      3 C         -26.5455   -0.8762   28.8500 C.ar    1  UNL1        0.1922
      4 C         -25.8041   -1.0324   30.0571 C.ar    1  UNL1        0.0211
      5 C         -30.0055   -0.7457   29.8978 C.2     1  UNL1        0.2652
      6 C         -26.5747   -1.0565   31.2005 C.ar    1  UNL1       -0.0006
      7 C         -27.9251   -0.9738   31.1683 C.ar    1  UNL1        0.0045
      8 O         -30.6342   -0.0988   29.1602 O.2     1  UNL1       -0.2684
      9 N         -30.6627   -1.2806   31.0265 N.am    1  UNL1       -0.1967
     10 C         -32.1011   -1.2682   31.0883 C.3     1  UNL1        0.1433
     11 C         -24.3554   -1.1005   30.0629 C.3     1  UNL1        0.0559
     12 C         -23.7019    0.1327   29.9120 C.ar    1  UNL1       -0.0177
     13 C         -22.4840    0.2150   29.1524 C.ar    1  UNL1       -0.0039
     14 C         -21.9095    1.4020   28.8187 C.ar    1  UNL1       -0.0003
     15 C         -22.8176    2.5057   28.5791 C.ar    1  UNL1       -0.0000
     16 C         -24.0761    2.4301   29.2330 C.ar    1  UNL1       -0.0003
     17 C         -24.5491    1.3006   29.8940 C.ar    1  UNL1       -0.0039
     18 O         -25.8598   -0.7282   27.6681 O.3     1  UNL1       -0.2869
     19 C         -32.8681   -0.6721   30.7030 C.ar    1  UNL1        0.0186
     20 C         -32.5484    0.6006   30.1483 C.ar    1  UNL1        0.0963
     21 N         -33.5161    1.6510   30.0208 N.ar    1  UNL1       -0.2426
     22 C         -34.6211    1.6476   30.5428 C.ar    1  UNL1        0.0989
     23 C         -35.0946    0.4277   30.9244 C.ar    1  UNL1        0.0204
     24 C         -34.1190   -0.2910   31.7779 C.ar    1  UNL1        0.0006
@<TRIPOS>BOND
     1     2     5    1
     2     5     8    2
     3     5     9   am
     4     9    10    1
     5     4    11    1
     6    11    12    1
     7     3    18    1
     8    10    19    1
     9    12    13   ar
    10    13    14   ar
    11    14    15   ar
    12    15    16   ar
    13    16    17   ar
    14    17    12   ar
    15    19    20   ar
    16    20    21   ar
    17    21    22   ar
    18    22    23   ar
    19    23    24   ar
    20    24    19   ar
    21     1     2   ar
    22     2     7   ar
    23     7     6   ar
    24     6     4   ar
    25     4     3   ar
    26     3     1   ar
