@<TRIPOS>MOLECULE
No_1704-gen_results/8p0m/2024-11-26-14-13-15/
 12 12 0 0 0
SMALL
GASTEIGER

@<TRIPOS>ATOM
      1 C         -28.0162   -0.8135   28.8779 C.ar    1  UNL1        0.0813
      2 C         -27.0636   -0.1190   28.6079 C.ar    1  UNL1        0.0067
      3 C         -27.0010    0.6913   27.4910 C.ar    1  UNL1        0.0018
      4 C         -28.1373    0.7363   26.6350 C.ar    1  UNL1        0.0191
      5 C         -29.2360    0.0765   27.0690 C.ar    1  UNL1        0.0812
      6 C         -29.2177   -0.6429   28.1747 C.ar    1  UNL1        0.0257
      7 C         -27.7867   -1.6669   30.1199 C.2     1  UNL1        0.3878
      8 O         -26.8112   -2.1895   30.3867 O.co2   1  UNL1       -0.2406
      9 O         -28.8252   -1.7265   30.9708 O.co2   1  UNL1       -0.2406
     10 N         -30.2675    0.2769   26.0933 N.2     1  UNL1       -0.2485
     11 C         -31.4295   -0.3358   26.4177 C.2     1  UNL1        0.0728
     12 C         -32.4931   -0.2221   25.3939 C.3     1  UNL1        0.0534
@<TRIPOS>BOND
     1     1     7    1
     2     7     8   ar
     3     7     9   ar
     4     5    10    1
     5    10    11    2
     6    11    12    1
     7     1     2   ar
     8     2     3   ar
     9     3     4   ar
    10     4     5   ar
    11     5     6   ar
    12     6     1   ar
