@<TRIPOS>MOLECULE
No_1705-gen_results/8p0m/2024-11-26-14-13-15/
 11 11 0 0 0
SMALL
GASTEIGER

@<TRIPOS>ATOM
      1 C         -28.0162   -0.8135   28.8779 C.ar    1  UNL1       -0.0026
      2 C         -28.4690   -0.7850   29.8287 C.ar    1  UNL1       -0.0003
      3 C         -27.1356    0.2359   28.5352 C.ar    1  UNL1       -0.0007
      4 C         -26.8745    1.2825   29.3982 C.ar    1  UNL1       -0.0026
      5 C         -27.5070    1.2380   30.6295 C.ar    1  UNL1       -0.0003
      6 C         -28.3293    0.1745   30.9350 C.ar    1  UNL1       -0.0000
      7 C         -26.4077    0.3070   27.2259 C.3     1  UNL1        0.1386
      8 N         -25.1258    0.2690   27.2739 N.pl3   1  UNL1       -0.2319
      9 C         -24.3923   -0.4757   28.1001 C.2     1  UNL1        0.0759
     10 C         -23.0497   -0.1251   28.4425 C.2     1  UNL1       -0.0084
     11 C         -22.2404   -0.7194   29.4112 C.3     1  UNL1        0.0321
@<TRIPOS>BOND
     1     3     7    1
     2     7     8    1
     3     8     9    1
     4     9    10    2
     5    10    11    1
     6     1     2   ar
     7     2     6   ar
     8     6     5   ar
     9     5     4   ar
    10     4     3   ar
    11     3     1   ar
