@<TRIPOS>MOLECULE
No_1706-gen_results/8p0m/2024-11-26-14-13-15/
 12 13 0 0 0
SMALL
GASTEIGER

@<TRIPOS>ATOM
      1 O         -28.1229   -1.3353   28.4874 O.2     1  UNL1       -0.2725
      2 C         -27.4806   -0.4044   28.7094 C.2     1  UNL1        0.2526
      3 N         -27.2412    0.3910   29.5098 N.am    1  UNL1       -0.1407
      4 C         -26.4066   -0.1069   27.4496 C.3     1  UNL1        0.1137
      5 C         -25.4358    0.8473   27.6341 C.ar    1  UNL1       -0.0086
      6 C         -25.4291    1.6632   28.7353 C.ar    1  UNL1        0.0520
      7 C         -26.3098    1.3583   29.7618 C.2     1  UNL1        0.2710
      8 C         -24.5011    1.1239   26.5229 C.ar    1  UNL1       -0.0036
      9 C         -23.7305    1.7684   26.4419 C.ar    1  UNL1       -0.0003
     10 C         -23.4465    2.6594   27.7114 C.ar    1  UNL1        0.0001
     11 C         -24.3099    2.5678   28.7369 C.ar    1  UNL1        0.0043
     12 O         -26.1743    1.8552   30.9300 O.2     1  UNL1       -0.2679
@<TRIPOS>BOND
     1     1     2    2
     2     2     3   am
     3     2     4    1
     4     4     5    1
     5     3     7   am
     6     6     7    1
     7     7    12    2
     8     5     8   ar
     9     8     9   ar
    10     9    10   ar
    11    10    11   ar
    12    11     6   ar
    13     6     5   ar
