@<TRIPOS>MOLECULE
No_1707-gen_results/8p0m/2024-11-26-14-13-15/
 7 6 0 0 0
SMALL
GASTEIGER

@<TRIPOS>ATOM
      1 N         -28.0544   -1.0498   28.7246 N.pl3   1  UNL1       -0.1270
      2 C         -27.7460   -0.0733   29.0098 C.2     1  UNL1        0.1015
      3 C         -27.1737    0.7565   28.1070 C.2     1  UNL1       -0.0020
      4 C         -26.9667    0.3705   26.7848 C.3     1  UNL1        0.0531
      5 C         -26.3605    1.1964   25.8054 C.2     1  UNL1       -0.0259
      6 C         -25.8496    2.4469   26.1842 C.2     1  UNL1       -0.0300
      7 C         -25.9731    2.9022   27.4884 C.3     1  UNL1        0.0304
@<TRIPOS>BOND
     1     1     2    1
     2     2     3    2
     3     3     4    1
     4     4     5    1
     5     5     6    2
     6     6     7    1
