@<TRIPOS>MOLECULE
No_1709-gen_results/8p0m/2024-11-26-14-13-15/
 13 13 0 0 0
SMALL
GASTEIGER

@<TRIPOS>ATOM
      1 C         -28.0162   -0.8135   28.8779 C.2     1  UNL1        0.0772
      2 C         -27.0636   -0.1190   28.6079 C.2     1  UNL1       -0.0277
      3 C         -26.8756    1.1325   28.9134 C.3     1  UNL1        0.0239
      4 C         -25.6883    1.9515   28.5672 C.3     1  UNL1        0.0156
      5 C         -24.6394    1.2834   27.8753 C.3     1  UNL1        0.1041
      6 C         -24.8068   -0.0513   27.6040 C.3     1  UNL1        0.0156
      7 C         -25.9019   -0.7670   27.9511 C.3     1  UNL1        0.0239
      8 N         -29.1549   -0.2294   28.9998 N.pl3   1  UNL1       -0.2105
      9 C         -23.4352    1.9745   27.4960 C.2     1  UNL1        0.3643
     10 C         -29.9562   -0.3984   30.0158 C.2     1  UNL1        0.0857
     11 O         -23.3606    2.6766   26.6782 O.co2   1  UNL1       -0.2457
     12 O         -22.2915    1.5399   28.1820 O.co2   1  UNL1       -0.2457
     13 C         -31.0730    0.4146   30.2274 C.2     1  UNL1        0.0192
@<TRIPOS>BOND
     1     1     2    2
     2     2     3    1
     3     3     4    1
     4     4     5    1
     5     5     6    1
     6     2     7    1
     7     6     7    1
     8     1     8    1
     9     5     9    1
    10     8    10    1
    11     9    11   ar
    12     9    12   ar
    13    10    13    2
