@<TRIPOS>MOLECULE
No_171-gen_results/8p0m/2024-11-26-14-13-15/
 13 13 0 0 0
SMALL
GASTEIGER

@<TRIPOS>ATOM
      1 O         -28.1229   -1.3353   28.4874 O.2     1  UNL1       -0.2684
      2 C         -28.5208   -0.4363   29.0779 C.2     1  UNL1        0.2648
      3 C         -27.6655    0.1129   30.0346 C.ar    1  UNL1        0.0547
      4 N         -29.7419    0.1102   28.8873 N.am    1  UNL1       -0.1998
      5 C         -27.8398    1.2287   30.6424 C.ar    1  UNL1        0.0006
      6 C         -30.6012   -0.3458   28.0242 C.3     1  UNL1        0.1388
      7 C         -26.3652   -0.6286   30.3303 C.ar    1  UNL1        0.0045
      8 C         -26.9238    1.7551   31.6460 C.ar    1  UNL1       -0.0177
      9 C         -27.0676    3.0015   32.2357 C.3     1  UNL1        0.0523
     10 C         -25.4831   -0.1952   31.3680 C.ar    1  UNL1       -0.0002
     11 C         -25.7030    1.0513   31.9898 C.ar    1  UNL1       -0.0039
     12 C         -28.1051    3.4166   32.6083 C.2     1  UNL1       -0.0214
     13 C         -28.3263    4.7742   33.1791 C.2     1  UNL1       -0.0046
@<TRIPOS>BOND
     1     1     2    2
     2     2     3    1
     3     2     4   am
     4     4     6    1
     5     9    12    1
     6    12    13    2
     7     9     8    1
     8     3     5   ar
     9     5     8   ar
    10     8    11   ar
    11    11    10   ar
    12    10     7   ar
    13     7     3   ar
