@<TRIPOS>MOLECULE
No_1710-gen_results/8p0m/2024-11-26-14-13-15/
 25 26 0 0 0
SMALL
GASTEIGER

@<TRIPOS>ATOM
      1 C         -28.0162   -0.8135   28.8779 C.ar    1  UNL1       -0.0043
      2 C         -28.4690   -0.7850   29.8287 C.ar    1  UNL1       -0.0003
      3 C         -27.0871    0.2903   28.6377 C.ar    1  UNL1       -0.0222
      4 C         -26.8317    1.2487   29.5869 C.ar    1  UNL1       -0.0043
      5 C         -28.3914    0.0801   31.0065 C.ar    1  UNL1       -0.0000
      6 C         -27.4940    1.1521   30.7841 C.ar    1  UNL1       -0.0003
      7 C         -26.3172    0.3994   27.3653 C.3     1  UNL1        0.0267
      8 C         -24.9405    0.2550   27.5028 C.3     1  UNL1        0.0097
      9 C         -26.9129    0.5860   26.1397 C.3     1  UNL1        0.0264
     10 C         -28.2688    0.7168   25.9850 C.ar    1  UNL1       -0.0222
     11 C         -28.7657    0.7315   24.6860 C.ar    1  UNL1       -0.0043
     12 C         -30.1595    0.8701   24.4627 C.ar    1  UNL1       -0.0004
     13 C         -30.9938    0.9584   25.5406 C.ar    1  UNL1        0.0038
     14 C         -30.5076    0.9507   26.8390 C.ar    1  UNL1        0.0711
     15 C         -29.1995    0.8714   27.0780 C.ar    1  UNL1       -0.0004
     16 C         -26.1028    0.0791   25.0737 C.3     1  UNL1        0.0050
     17 C         -31.5453    1.1344   27.9281 C.3     1  UNL1        0.4186
     18 F         -31.6993    0.0809   28.4207 F       1  UNL1       -0.1659
     19 F         -30.9504    1.9560   28.8988 F       1  UNL1       -0.1659
     20 F         -32.5944    1.7341   27.5416 F       1  UNL1       -0.1659
     21 C         -24.2102    1.1365   28.3663 C.3     1  UNL1        0.0333
     22 C         -23.0978    0.8209   28.8608 C.2     1  UNL1        0.0308
     23 C         -21.8850    1.1989   28.2037 C.1     1  UNL1        0.1246
     24 C         -22.9557   -0.1978   29.8836 C.3     1  UNL1        0.0380
     25 O         -20.6972    0.6976   28.5267 O.2     1  UNL1       -0.2318
@<TRIPOS>BOND
     1     3     7    1
     2     7     8    1
     3     7     9    1
     4     9    10    1
     5     9    16    1
     6    14    17    1
     7    17    18    1
     8    17    19    1
     9    17    20    1
    10     8    21    1
    11    21    22    1
    12    22    23    2
    13    22    24    1
    14    23    25    2
    15     1     2   ar
    16     2     5   ar
    17     5     6   ar
    18     6     4   ar
    19     4     3   ar
    20     3     1   ar
    21    10    11   ar
    22    11    12   ar
    23    12    13   ar
    24    13    14   ar
    25    14    15   ar
    26    15    10   ar
