@<TRIPOS>MOLECULE
No_1711-gen_results/8p0m/2024-11-26-14-13-15/
 24 27 0 0 0
SMALL
GASTEIGER

@<TRIPOS>ATOM
      1 C         -28.0162   -0.8135   28.8779 C.ar    1  UNL1       -0.0031
      2 C         -28.4690   -0.7850   29.8287 C.ar    1  UNL1       -0.0003
      3 C         -27.1356    0.2359   28.5352 C.ar    1  UNL1       -0.0070
      4 C         -26.3351    0.2900   27.2835 C.3     1  UNL1        0.1237
      5 C         -28.3692    0.1957   30.9236 C.ar    1  UNL1       -0.0003
      6 C         -27.5158    1.2655   30.6540 C.ar    1  UNL1       -0.0039
      7 C         -26.8411    1.2942   29.4761 C.ar    1  UNL1       -0.0209
      8 CL        -25.9754   -0.2930   26.4391 Cl      1  UNL1       -0.1054
      9 C         -25.8816    1.8385   27.0746 C.ar    1  UNL1       -0.0041
     10 C         -24.8194    2.0768   26.9074 C.ar    1  UNL1       -0.0249
     11 C         -24.2785    3.4458   26.6787 C.ar    1  UNL1       -0.0045
     12 C         -25.2363    4.4779   26.7678 C.ar    1  UNL1       -0.0002
     13 C         -26.5159    4.1423   27.1075 C.ar    1  UNL1        0.0030
     14 C         -26.9043    2.8299   27.2504 C.ar    1  UNL1        0.0394
     15 C         -27.2934    2.3305   31.6588 C.2     1  UNL1       -0.0003
     16 C         -26.6749    3.2132   31.8394 C.2     1  UNL1       -0.0003
     17 C         -25.6420    3.5982   30.7685 C.2     1  UNL1       -0.0043
     18 C         -25.1962    2.9573   29.6881 C.2     1  UNL1       -0.0221
     19 C         -25.7460    2.1412   29.2111 C.3     1  UNL1        0.0443
     20 C         -24.5925    1.1119   29.0625 C.3     1  UNL1        0.0130
     21 C         -23.7250    1.4789   28.0237 C.3     1  UNL1        0.0227
     22 C         -22.4189    1.1975   27.7217 C.3     1  UNL1        0.0047
     23 C         -28.3138    2.5205   26.9930 C.2     1  UNL1        0.2339
     24 O         -29.2094    2.9759   27.7309 O.2     1  UNL1       -0.2832
@<TRIPOS>BOND
     1     3     4    1
     2     4     8    1
     3     4     9    1
     4     6    15    1
     5    15    16    2
     6    16    17    1
     7    17    18    2
     8     7    19    1
     9    18    19    1
    10    19    20    1
    11    10    21    1
    12    20    21    1
    13    21    22    1
    14    14    23    1
    15    23    24    2
    16     9    10   ar
    17    10    11   ar
    18    11    12   ar
    19    12    13   ar
    20    13    14   ar
    21    14     9   ar
    22     1     2   ar
    23     2     5   ar
    24     5     6   ar
    25     6     7   ar
    26     7     3   ar
    27     3     1   ar
