@<TRIPOS>MOLECULE
No_1712-gen_results/8p0m/2024-11-26-14-13-15/
 11 11 0 0 0
SMALL
GASTEIGER

@<TRIPOS>ATOM
      1 C         -28.0162   -0.8135   28.8779 C.ar    1  UNL1       -0.0000
      2 C         -28.4690   -0.7850   29.8287 C.ar    1  UNL1        0.0000
      3 C         -27.1356    0.2359   28.5352 C.ar    1  UNL1       -0.0000
      4 C         -26.3351    0.2900   27.2835 C.2     1  UNL1       -0.0000
      5 C         -28.3692    0.1957   30.9236 C.ar    1  UNL1        0.0000
      6 C         -27.5158    1.2655   30.6540 C.ar    1  UNL1        0.0000
      7 C         -26.8411    1.2942   29.4761 C.ar    1  UNL1       -0.0000
      8 C         -25.3614    0.7751   26.9672 C.2     1  UNL1       -0.0003
      9 C         -24.6559    0.7452   25.7259 C.2     1  UNL1       -0.0046
     10 C         -23.4669    1.4075   25.4765 C.2     1  UNL1       -0.0258
     11 C         -22.9382    2.2099   26.4930 C.3     1  UNL1        0.0307
@<TRIPOS>BOND
     1     3     4    1
     2     4     8    2
     3     8     9    1
     4     9    10    2
     5    10    11    1
     6     1     2   ar
     7     2     5   ar
     8     5     6   ar
     9     6     7   ar
    10     7     3   ar
    11     3     1   ar
