@<TRIPOS>MOLECULE
No_1713-gen_results/8p0m/2024-11-26-14-13-15/
 12 13 0 0 0
SMALL
GASTEIGER

@<TRIPOS>ATOM
      1 C         -28.0162   -0.8135   28.8779 C.ar    1  UNL1        0.0000
      2 C         -27.0636   -0.1190   28.6079 C.ar    1  UNL1        0.0015
      3 C         -25.7647   -0.3897   29.0360 C.ar    1  UNL1        0.0177
      4 C         -25.5296   -1.5302   29.9014 C.ar    1  UNL1        0.0015
      5 C         -26.6888   -2.2893   30.1810 C.ar    1  UNL1        0.0000
      6 C         -27.8727   -1.9508   29.7373 C.ar    1  UNL1        0.0000
      7 C         -24.5491    0.4100   28.7341 C.ar    1  UNL1        0.0813
      8 N         -24.1597    1.2751   29.5288 N.ar    1  UNL1       -0.2438
      9 C         -23.0186    1.9785   29.2075 C.ar    1  UNL1        0.0988
     10 C         -23.9270    0.2589   27.5530 C.ar    1  UNL1        0.0191
     11 C         -22.8264    1.0123   27.1925 C.ar    1  UNL1        0.0031
     12 C         -22.3332    1.9159   28.1137 C.ar    1  UNL1        0.0207
@<TRIPOS>BOND
     1     3     7    1
     2     1     2   ar
     3     2     3   ar
     4     3     4   ar
     5     4     5   ar
     6     5     6   ar
     7     6     1   ar
     8     7     8   ar
     9     8     9   ar
    10     9    12   ar
    11    12    11   ar
    12    11    10   ar
    13    10     7   ar
