@<TRIPOS>MOLECULE
No_1715-gen_results/8p0m/2024-11-26-14-13-15/
 10 10 0 0 0
SMALL
GASTEIGER

@<TRIPOS>ATOM
      1 C         -28.0162   -0.8135   28.8779 C.ar    1  UNL1        0.0296
      2 C         -28.4690   -0.7850   29.8287 C.ar    1  UNL1        0.0023
      3 C         -27.1356    0.2359   28.5352 C.ar    1  UNL1        0.1401
      4 C         -26.8745    1.2825   29.3982 C.ar    1  UNL1        0.0296
      5 C         -28.3613    0.1987   30.9244 C.ar    1  UNL1       -0.0002
      6 C         -27.5277    1.2234   30.6356 C.ar    1  UNL1        0.0023
      7 F         -26.4877    0.2566   27.3533 F       1  UNL1       -0.2042
      8 C         -29.0652    0.1000   32.2285 C.2     1  UNL1       -0.0046
      9 C         -28.5203    0.6621   33.2022 C.2     1  UNL1       -0.0258
     10 C         -27.6034    1.8560   32.9813 C.3     1  UNL1        0.0307
@<TRIPOS>BOND
     1     3     7    1
     2     5     8    1
     3     8     9    2
     4     9    10    1
     5     1     2   ar
     6     2     5   ar
     7     5     6   ar
     8     6     4   ar
     9     4     3   ar
    10     3     1   ar
