@<TRIPOS>MOLECULE
No_1716-gen_results/8p0m/2024-11-26-14-13-15/
 6 5 0 0 0
SMALL
GASTEIGER

@<TRIPOS>ATOM
      1 N         -28.0544   -1.0498   28.7246 N.1     1  UNL1       -0.1955
      2 C         -26.9659   -0.4722   28.7709 C.1     1  UNL1        0.0779
      3 C         -25.9250   -0.7447   29.5664 C.3     1  UNL1        0.1310
      4 C         -24.6435   -0.0636   29.6258 C.2     1  UNL1       -0.0146
      5 C         -24.3964    0.9266   28.6609 C.2     1  UNL1       -0.0293
      6 C         -25.4798    1.1783   27.7420 C.3     1  UNL1        0.0304
@<TRIPOS>BOND
     1     1     2    3
     2     2     3    1
     3     3     4    1
     4     4     5    2
     5     5     6    1
