@<TRIPOS>MOLECULE
No_1717-gen_results/8p0m/2024-11-26-14-13-15/
 15 15 0 0 0
SMALL
GASTEIGER

@<TRIPOS>ATOM
      1 C         -28.0162   -0.8135   28.8779 C.2     1  UNL1       -0.0085
      2 C         -27.0636   -0.1190   28.6079 C.2     1  UNL1       -0.0442
      3 C         -26.8756    1.1325   28.9134 C.3     1  UNL1        0.0226
      4 C         -25.6883    1.9515   28.5672 C.3     1  UNL1        0.0156
      5 C         -24.6394    1.2834   27.8753 C.3     1  UNL1        0.1041
      6 C         -24.8068   -0.0513   27.6040 C.3     1  UNL1        0.0156
      7 C         -25.9019   -0.7670   27.9511 C.3     1  UNL1        0.0226
      8 C         -29.2158   -0.1185   29.1813 C.2     1  UNL1       -0.0007
      9 C         -30.2339   -0.7910   29.8154 C.2     1  UNL1       -0.0004
     10 C         -23.4188    1.9753   27.5047 C.2     1  UNL1        0.3643
     11 O         -23.2912    2.7094   26.6521 O.co2   1  UNL1       -0.2457
     12 O         -22.3571    1.7969   28.4004 O.co2   1  UNL1       -0.2457
     13 C         -31.5269   -0.3152   29.8330 C.2     1  UNL1       -0.0046
     14 C         -31.7490    0.9646   29.3588 C.2     1  UNL1       -0.0258
     15 C         -30.7652    1.6453   28.7158 C.3     1  UNL1        0.0307
@<TRIPOS>BOND
     1     1     2    2
     2     2     3    1
     3     3     4    1
     4     4     5    1
     5     5     6    1
     6     2     7    1
     7     6     7    1
     8     1     8    1
     9     8     9    2
    10     5    10    1
    11    10    11   ar
    12    10    12   ar
    13     9    13    1
    14    13    14    2
    15    14    15    1
