@<TRIPOS>MOLECULE
No_1718-gen_results/8p0m/2024-11-26-14-13-15/
 20 21 0 0 0
SMALL
GASTEIGER

@<TRIPOS>ATOM
      1 C         -28.0162   -0.8135   28.8779 C.ar    1  UNL1        0.0040
      2 C         -27.0636   -0.1189   28.6079 C.ar    1  UNL1        0.0714
      3 C         -27.0010    0.6913   27.4910 C.ar    1  UNL1        0.0040
      4 C         -28.1373    0.7363   26.6350 C.ar    1  UNL1        0.0045
      5 C         -29.2360    0.0765   27.0690 C.ar    1  UNL1        0.0539
      6 C         -30.3815    0.2048   26.2662 C.2     1  UNL1        0.2528
      7 C         -29.1803   -0.6422   28.1830 C.ar    1  UNL1        0.0045
      8 N         -30.9618    1.1553   26.0173 N.am    1  UNL1       -0.2534
      9 O         -30.9126   -0.9137   25.7739 O.2     1  UNL1       -0.2696
     10 C         -32.1774    1.3996   25.1740 C.3     1  UNL1        0.1203
     11 C         -25.7080   -0.2083   29.4260 C.3     1  UNL1        0.4186
     12 F         -25.1168   -1.2347   29.1834 F       1  UNL1       -0.1659
     13 F         -26.0287   -0.2164   30.7456 F       1  UNL1       -0.1659
     14 F         -24.9166    0.8327   29.2186 F       1  UNL1       -0.1659
     15 C         -30.4979    2.5939   26.5305 C.ar    1  UNL1        0.0542
     16 C         -31.2197    2.9626   27.6897 C.ar    1  UNL1        0.0149
     17 C         -30.5071    3.6125   28.5071 C.ar    1  UNL1        0.0013
     18 C         -29.3112    4.3676   28.1802 C.ar    1  UNL1        0.0001
     19 C         -28.7961    4.1103   26.8924 C.ar    1  UNL1        0.0013
     20 C         -29.3462    3.0598   26.1168 C.ar    1  UNL1        0.0149
@<TRIPOS>BOND
     1     5     6    1
     2     6     8   am
     3     6     9    2
     4     8    10    1
     5     2    11    1
     6    11    12    1
     7    11    13    1
     8    11    14    1
     9     8    15    1
    10    15    16   ar
    11    16    17   ar
    12    17    18   ar
    13    18    19   ar
    14    19    20   ar
    15    20    15   ar
    16     1     2   ar
    17     2     3   ar
    18     3     4   ar
    19     4     5   ar
    20     5     7   ar
    21     7     1   ar
