@<TRIPOS>MOLECULE
No_1719-gen_results/8p0m/2024-11-26-14-13-15/
 14 14 0 0 0
SMALL
GASTEIGER

@<TRIPOS>ATOM
      1 C         -28.0162   -0.8135   28.8779 C.2     1  UNL1       -0.0085
      2 C         -27.0636   -0.1189   28.6079 C.2     1  UNL1       -0.0442
      3 C         -25.7647   -0.3897   29.0360 C.3     1  UNL1        0.0226
      4 C         -24.5516    0.4058   28.7646 C.3     1  UNL1        0.0156
      5 C         -24.6957    1.4480   27.7988 C.3     1  UNL1        0.1041
      6 C         -25.9755    1.7250   27.3077 C.3     1  UNL1        0.0156
      7 C         -27.0718    1.0134   27.6535 C.3     1  UNL1        0.0226
      8 C         -27.9852   -1.5947   30.1522 C.2     1  UNL1       -0.0006
      9 C         -29.1232   -2.2582   30.6032 C.2     1  UNL1       -0.0000
     10 C         -23.4854    2.2046   27.4988 C.2     1  UNL1        0.3643
     11 O         -23.5698    3.1998   26.8094 O.co2   1  UNL1       -0.2457
     12 O         -22.2818    1.7502   27.8248 O.co2   1  UNL1       -0.2457
     13 C         -30.2960   -1.7208   30.2177 C.2     1  UNL1       -0.0000
     14 C         -30.4088   -0.8437   29.1836 C.2     1  UNL1       -0.0000
@<TRIPOS>BOND
     1     1     2    2
     2     2     3    1
     3     3     4    1
     4     4     5    1
     5     5     6    1
     6     2     7    1
     7     6     7    1
     8     1     8    1
     9     8     9    2
    10     5    10    1
    11    10    11   ar
    12    10    12   ar
    13     9    13    1
    14    13    14    2
