@<TRIPOS>MOLECULE
No_1720-gen_results/8p0m/2024-11-26-14-13-15/
 12 12 0 0 0
SMALL
GASTEIGER

@<TRIPOS>ATOM
      1 C         -28.0162   -0.8135   28.8779 C.ar    1  UNL1       -0.0043
      2 C         -28.4690   -0.7850   29.8287 C.ar    1  UNL1       -0.0218
      3 C         -27.0871    0.2903   28.6377 C.ar    1  UNL1       -0.0003
      4 C         -26.2516    0.4114   27.4223 C.2     1  UNL1       -0.0000
      5 C         -29.4309   -1.9307   30.2714 C.3     1  UNL1        0.0310
      6 C         -28.2721    0.2103   30.9866 C.ar    1  UNL1       -0.0043
      7 C         -27.4384    1.2352   30.7769 C.ar    1  UNL1       -0.0003
      8 C         -26.7524    1.2946   29.5985 C.ar    1  UNL1       -0.0000
      9 C         -25.2022    1.0449   27.2092 C.2     1  UNL1       -0.0003
     10 C         -24.4051    1.0984   26.0906 C.2     1  UNL1       -0.0046
     11 C         -23.2925    1.9145   25.9934 C.2     1  UNL1       -0.0258
     12 C         -22.8553    2.5958   27.1448 C.3     1  UNL1        0.0307
@<TRIPOS>BOND
     1     3     4    1
     2     2     5    1
     3     4     9    2
     4     9    10    1
     5    10    11    2
     6    11    12    1
     7     1     2   ar
     8     2     6   ar
     9     6     7   ar
    10     7     8   ar
    11     8     3   ar
    12     3     1   ar
