@<TRIPOS>MOLECULE
No_1722-gen_results/8p0m/2024-11-26-14-13-15/
 22 24 0 0 0
SMALL
GASTEIGER

@<TRIPOS>ATOM
      1 C         -28.0162   -0.8135   28.8779 C.ar    1  UNL1        0.0375
      2 C         -28.4690   -0.7850   29.8287 C.ar    1  UNL1        0.1453
      3 C         -26.5042   -0.7777   28.8766 C.ar    1  UNL1        0.0031
      4 C         -25.9500    0.1157   29.4052 C.ar    1  UNL1        0.0002
      5 C         -27.9964    0.1190   30.9527 C.ar    1  UNL1        0.0375
      6 C         -26.6037    0.4647   30.8030 C.ar    1  UNL1        0.0031
      7 O         -29.8458   -1.0110   30.0484 O.3     1  UNL1       -0.4535
      8 C         -30.7686   -0.5145   29.3879 C.ar    1  UNL1        0.1455
      9 C         -31.7539   -1.4532   28.9933 C.ar    1  UNL1        0.0375
     10 C         -32.6777   -1.1072   27.9510 C.ar    1  UNL1        0.0033
     11 C         -32.3108   -0.3660   27.2049 C.ar    1  UNL1        0.0068
     12 C         -31.2354    0.6064   27.3106 C.ar    1  UNL1        0.0828
     13 C         -30.3765    0.3962   28.4421 C.ar    1  UNL1        0.0441
     14 C         -30.9825    1.6826   26.3566 C.2     1  UNL1        0.3879
     15 O         -31.3167    2.7361   26.6301 O.co2   1  UNL1       -0.2406
     16 O         -30.0305    1.4369   25.4859 O.co2   1  UNL1       -0.2406
     17 C         -24.4930    0.3112   29.4664 C.ar    1  UNL1        0.0000
     18 C         -23.5730   -0.5550   29.8176 C.ar    1  UNL1        0.0000
     19 C         -22.2209   -0.3948   29.5171 C.ar    1  UNL1        0.0000
     20 C         -24.0118    1.6406   28.9877 C.ar    1  UNL1        0.0000
     21 C         -22.6437    1.8620   28.7235 C.ar    1  UNL1        0.0000
     22 C         -21.7415    0.7934   28.9785 C.ar    1  UNL1        0.0000
@<TRIPOS>BOND
     1     2     7    1
     2     7     8    1
     3    12    14    1
     4    14    15   ar
     5    14    16   ar
     6     4    17    1
     7    17    18   ar
     8    18    19   ar
     9    19    22   ar
    10    22    21   ar
    11    21    20   ar
    12    20    17   ar
    13     8     9   ar
    14     9    10   ar
    15    10    11   ar
    16    11    12   ar
    17    12    13   ar
    18    13     8   ar
    19     1     2   ar
    20     2     5   ar
    21     5     6   ar
    22     6     4   ar
    23     4     3   ar
    24     3     1   ar
