@<TRIPOS>MOLECULE
No_1724-gen_results/8p0m/2024-11-26-14-13-15/
 13 13 0 0 0
SMALL
GASTEIGER

@<TRIPOS>ATOM
      1 C         -28.0162   -0.8135   28.8779 C.ar    1  UNL1       -0.0001
      2 C         -27.0636   -0.1189   28.6079 C.ar    1  UNL1       -0.0039
      3 C         -26.9716    0.7139   27.5060 C.ar    1  UNL1       -0.0176
      4 C         -28.1053    0.7744   26.6421 C.ar    1  UNL1        0.0026
      5 C         -29.2041    0.1179   27.0477 C.ar    1  UNL1        0.0795
      6 C         -29.2127   -0.6088   28.1281 C.ar    1  UNL1        0.0066
      7 C         -30.3709    0.2326   26.1381 C.2     1  UNL1        0.3877
      8 O         -30.3086    0.1051   24.9412 O.co2   1  UNL1       -0.2406
      9 O         -31.5786    0.2663   26.6747 O.co2   1  UNL1       -0.2406
     10 C         -25.6671    1.4055   27.1237 C.3     1  UNL1        0.0520
     11 C         -25.1573    2.3543   28.1077 C.2     1  UNL1       -0.0260
     12 C         -25.6055    2.7486   28.9356 C.2     1  UNL1       -0.0300
     13 C         -25.9850    3.6689   29.6607 C.3     1  UNL1        0.0304
@<TRIPOS>BOND
     1     5     7    1
     2     7     8   ar
     3     7     9   ar
     4     3    10    1
     5    10    11    1
     6    11    12    2
     7    12    13    1
     8     1     2   ar
     9     2     3   ar
    10     3     4   ar
    11     4     5   ar
    12     5     6   ar
    13     6     1   ar
