@<TRIPOS>MOLECULE
No_1725-gen_results/8p0m/2024-11-26-14-13-15/
 10 10 0 0 0
SMALL
GASTEIGER

@<TRIPOS>ATOM
      1 O         -28.1229   -1.3353   28.4874 O.2     1  UNL1       -0.2733
      2 C         -27.4806   -0.4044   28.7094 C.2     1  UNL1        0.2423
      3 C         -27.1904    0.2460   29.5268 C.3     1  UNL1        0.0956
      4 N         -26.6871   -0.0001   27.4423 N.am    1  UNL1       -0.2054
      5 C         -27.6511    0.1259   30.8798 C.3     1  UNL1        0.0978
      6 C         -25.7508    1.0047   27.4342 C.3     1  UNL1        0.1152
      7 C         -25.5610    1.6907   28.6120 C.3     1  UNL1        0.0240
      8 C         -26.1559    1.3682   29.6808 C.3     1  UNL1        0.0124
      9 N         -28.2298   -0.8119   31.2019 N.3     1  UNL1       -0.2160
     10 C         -28.0422   -1.9297   30.9106 C.3     1  UNL1        0.1075
@<TRIPOS>BOND
     1     1     2    2
     2     2     3    1
     3     2     4   am
     4     3     5    1
     5     6     7    1
     6     3     8    1
     7     5     9    1
     8     9    10    1
     9     8     7    1
    10     6     4    1
