@<TRIPOS>MOLECULE
No_1728-gen_results/8p0m/2024-11-26-14-13-15/
 10 10 0 0 0
SMALL
GASTEIGER

@<TRIPOS>ATOM
      1 C         -28.0162   -0.8135   28.8779 C.ar    1  UNL1        0.0046
      2 C         -27.0636   -0.1190   28.6079 C.ar    1  UNL1        0.0001
      3 C         -25.7647   -0.3897   29.0360 C.ar    1  UNL1        0.0000
      4 C         -25.5296   -1.5302   29.9014 C.ar    1  UNL1        0.0001
      5 C         -26.6888   -2.2893   30.1810 C.ar    1  UNL1        0.0046
      6 C         -27.8727   -1.9508   29.7373 C.ar    1  UNL1        0.0550
      7 C         -29.0016   -2.8142   30.1793 C.2     1  UNL1        0.2648
      8 O         -28.9004   -4.0178   30.3322 O.2     1  UNL1       -0.2684
      9 N         -30.2773   -2.2763   30.0661 N.am    1  UNL1       -0.1998
     10 C         -30.5424   -0.9330   29.9538 C.3     1  UNL1        0.1388
@<TRIPOS>BOND
     1     6     7    1
     2     7     8    2
     3     7     9   am
     4     9    10    1
     5     1     2   ar
     6     2     3   ar
     7     3     4   ar
     8     4     5   ar
     9     5     6   ar
    10     6     1   ar
