@<TRIPOS>MOLECULE
No_1729-gen_results/8p0m/2024-11-26-14-13-15/
 10 10 0 0 0
SMALL
GASTEIGER

@<TRIPOS>ATOM
      1 C         -28.0162   -0.8135   28.8779 C.3     1  UNL1        0.1515
      2 C         -27.0636   -0.1189   28.6079 C.ar    1  UNL1        0.0020
      3 C         -27.0010    0.6913   27.4910 C.ar    1  UNL1       -0.0023
      4 C         -25.7770    1.0214   26.9135 C.ar    1  UNL1       -0.0003
      5 C         -24.5088    0.7364   27.5686 C.ar    1  UNL1       -0.0000
      6 C         -24.5930   -0.0361   28.7390 C.ar    1  UNL1       -0.0003
      7 C         -25.8114   -0.4771   29.1584 C.ar    1  UNL1       -0.0023
      8 N         -29.1846   -0.1268   29.1129 N.2     1  UNL1       -0.2687
      9 C         -29.6470    0.6059   28.5261 C.2     1  UNL1        0.0675
     10 C         -31.0352    1.1187   28.8005 C.3     1  UNL1        0.0529
@<TRIPOS>BOND
     1     1     2    1
     2     1     8    1
     3     8     9    2
     4     9    10    1
     5     2     3   ar
     6     3     4   ar
     7     4     5   ar
     8     5     6   ar
     9     6     7   ar
    10     7     2   ar
