@<TRIPOS>MOLECULE
No_173-gen_results/8p0m/2024-11-26-14-13-15/
 14 15 0 0 0
SMALL
GASTEIGER

@<TRIPOS>ATOM
      1 C         -28.0162   -0.8135   28.8779 C.ar    1  UNL1        0.0031
      2 C         -28.4690   -0.7850   29.8287 C.ar    1  UNL1        0.0002
      3 C         -26.5455   -0.8762   28.8500 C.ar    1  UNL1        0.0375
      4 C         -25.8974   -0.8267   29.8894 C.ar    1  UNL1        0.1448
      5 C         -26.4945   -0.7976   31.1740 C.ar    1  UNL1        0.0375
      6 C         -27.8589   -0.7585   31.1651 C.ar    1  UNL1        0.0031
      7 O         -24.4989   -0.8326   29.9153 O.3     1  UNL1       -0.4574
      8 C         -23.7417   -0.3554   28.9301 C.2     1  UNL1        0.1271
      9 C         -23.8777    0.7651   28.2416 C.2     1  UNL1        0.0333
     10 C         -22.9735    1.2915   27.3771 C.2     1  UNL1        0.0028
     11 C         -22.1020    1.8128   27.4893 C.2     1  UNL1       -0.0002
     12 C         -21.1267    1.0618   28.4896 C.2     1  UNL1       -0.0041
     13 C         -21.3341   -0.0209   29.2836 C.2     1  UNL1       -0.0181
     14 C         -22.3523   -0.2605   29.8398 C.3     1  UNL1        0.0905
@<TRIPOS>BOND
     1     4     7    1
     2     7     8    1
     3     8     9    2
     4     9    10    1
     5    10    11    2
     6    11    12    1
     7    12    13    2
     8     8    14    1
     9    13    14    1
    10     1     2   ar
    11     2     6   ar
    12     6     5   ar
    13     5     4   ar
    14     4     3   ar
    15     3     1   ar
