@<TRIPOS>MOLECULE
No_1730-gen_results/8p0m/2024-11-26-14-13-15/
 21 23 0 0 0
SMALL
GASTEIGER

@<TRIPOS>ATOM
      1 C         -28.0162   -0.8135   28.8779 C.2     1  UNL1       -0.0114
      2 C         -27.0636   -0.1189   28.6079 C.2     1  UNL1        0.0699
      3 C         -26.9716    0.7139   27.5060 C.2     1  UNL1        0.1977
      4 C         -25.8205    1.4909   27.1160 C.ar    1  UNL1        0.0352
      5 C         -24.6562    1.4242   27.9180 C.ar    1  UNL1       -0.0161
      6 C         -23.4598    2.1165   27.6160 C.ar    1  UNL1       -0.0256
      7 C         -23.5068    2.7076   26.2939 C.ar    1  UNL1       -0.0046
      8 C         -25.7733   -0.1953   29.4398 C.2     1  UNL1        0.1794
      9 C         -24.6392    0.5412   29.1339 C.3     1  UNL1        0.0840
     10 C         -29.1966   -0.0570   29.3805 C.3     1  UNL1        0.1295
     11 C         -30.3528   -0.7911   29.7721 C.3     1  UNL1        0.4017
     12 F         -30.9597   -0.2883   30.8675 F       1  UNL1       -0.1697
     13 F         -31.3204   -0.8251   28.8493 F       1  UNL1       -0.1697
     14 F         -30.1540   -2.1112   30.0719 F       1  UNL1       -0.1697
     15 C         -22.1699    1.3084   27.7166 C.3     1  UNL1        0.0261
     16 C         -23.4193    0.3451   29.8988 C.3     1  UNL1        0.0124
     17 C         -22.1036    0.6644   29.1727 C.3     1  UNL1        0.0054
     18 C         -25.8209    2.2734   25.9748 C.ar    1  UNL1        0.0029
     19 C         -24.8102    3.0421   25.8690 C.ar    1  UNL1       -0.0002
     20 O         -25.9346   -0.6706   30.6742 O.2     1  UNL1       -0.2909
     21 O         -28.1184    0.9624   26.9131 O.2     1  UNL1       -0.2865
@<TRIPOS>BOND
     1     1     2    2
     2     2     3    1
     3     3     4    1
     4     2     8    1
     5     5     9    1
     6     8     9    1
     7     1    10    1
     8    10    11    1
     9    11    12    1
    10    11    13    1
    11    11    14    1
    12     6    15    1
    13     9    16    1
    14    15    17    1
    15    16    17    1
    16     8    20    2
    17     3    21    2
    18     4     5   ar
    19     5     6   ar
    20     6     7   ar
    21     7    19   ar
    22    19    18   ar
    23    18     4   ar
