@<TRIPOS>MOLECULE
No_1732-gen_results/8p0m/2024-11-26-14-13-15/
 12 12 0 0 0
SMALL
GASTEIGER

@<TRIPOS>ATOM
      1 C         -28.0162   -0.8135   28.8779 C.ar    1  UNL1        0.0328
      2 C         -27.0636   -0.1190   28.6079 C.ar    1  UNL1        0.0398
      3 C         -25.7923   -0.4302   29.0761 C.ar    1  UNL1        0.1456
      4 C         -25.5756   -1.5654   29.9363 C.ar    1  UNL1        0.0398
      5 C         -26.7354   -2.3004   30.2173 C.ar    1  UNL1        0.0328
      6 C         -27.9184   -1.9537   29.7629 C.ar    1  UNL1        0.1403
      7 F         -28.9649   -2.6957   30.0722 F       1  UNL1       -0.2042
      8 O         -24.6443    0.3305   28.8330 O.3     1  UNL1       -0.4504
      9 C         -24.5948    1.3250   27.9612 C.2     1  UNL1        0.1795
     10 C         -23.2633    1.7257   27.6933 C.2     1  UNL1        0.0407
     11 C         -22.2451    1.4143   28.5677 C.2     1  UNL1        0.0032
     12 C         -22.4148    0.3599   29.4937 C.2     1  UNL1        0.0001
@<TRIPOS>BOND
     1     6     7    1
     2     3     8    1
     3     8     9    1
     4     9    10    2
     5    10    11    1
     6    11    12    2
     7     1     2   ar
     8     2     3   ar
     9     3     4   ar
    10     4     5   ar
    11     5     6   ar
    12     6     1   ar
