@<TRIPOS>MOLECULE
No_1734-gen_results/8p0m/2024-11-26-14-13-15/
 10 10 0 0 0
SMALL
GASTEIGER

@<TRIPOS>ATOM
      1 F         -28.0727   -1.2542   28.5316 F       1  UNL1       -0.1659
      2 C         -27.3591   -0.3792   28.7224 C.3     1  UNL1        0.4186
      3 F         -26.9761   -0.0935   27.6617 F       1  UNL1       -0.1659
      4 F         -27.9492    0.6817   29.3005 F       1  UNL1       -0.1659
      5 C         -26.1865   -0.8372   29.5966 C.ar    1  UNL1        0.0714
      6 C         -25.7196   -1.9796   29.7045 C.ar    1  UNL1        0.0039
      7 C         -25.3606    0.2504   30.2699 C.ar    1  UNL1        0.0039
      8 C         -24.1850    0.0393   30.7256 C.ar    1  UNL1       -0.0001
      9 C         -24.3685   -2.3134   30.2455 C.ar    1  UNL1       -0.0001
     10 C         -23.6773   -1.2657   30.8247 C.ar    1  UNL1       -0.0000
@<TRIPOS>BOND
     1     1     2    1
     2     2     3    1
     3     2     4    1
     4     2     5    1
     5     5     6   ar
     6     6     9   ar
     7     9    10   ar
     8    10     8   ar
     9     8     7   ar
    10     7     5   ar
