@<TRIPOS>MOLECULE
No_1735-gen_results/8p0m/2024-11-26-14-13-15/
 23 25 0 0 0
SMALL
GASTEIGER

@<TRIPOS>ATOM
      1 C         -28.0162   -0.8135   28.8779 C.ar    1  UNL1        0.0376
      2 C         -27.0636   -0.1190   28.6079 C.ar    1  UNL1        0.0031
      3 C         -25.7923   -0.4302   29.0761 C.ar    1  UNL1        0.0003
      4 C         -24.5456    0.3494   28.8225 C.ar    1  UNL1        0.0030
      5 C         -23.2409    0.0217   29.3323 C.ar    1  UNL1        0.0002
      6 C         -27.8820   -1.8995   29.8633 C.ar    1  UNL1        0.1488
      7 C         -26.6526   -2.3142   30.3138 C.ar    1  UNL1        0.0376
      8 C         -25.5153   -1.5607   29.9787 C.ar    1  UNL1        0.0031
      9 C         -22.1645    0.7936   28.9524 C.ar    1  UNL1        0.0031
     10 C         -22.1241    1.7484   27.9889 C.ar    1  UNL1        0.0369
     11 C         -24.5235    1.3782   27.7946 C.ar    1  UNL1        0.0369
     12 C         -23.3387    2.0417   27.4305 C.ar    1  UNL1        0.1387
     13 O         -28.9603   -2.6577   30.2382 O.3     1  UNL1       -0.4210
     14 C         -30.0989   -2.0886   30.6129 C.2     1  UNL1        0.3457
     15 C         -30.6084   -2.7153   31.7527 C.ar    1  UNL1        0.0760
     16 C         -31.7683   -2.2443   32.1925 C.ar    1  UNL1        0.0065
     17 C         -30.0413   -3.8378   32.4009 C.ar    1  UNL1        0.0065
     18 C         -32.4414   -2.8593   33.3731 C.ar    1  UNL1        0.0002
     19 C         -30.6517   -4.4458   33.5303 C.ar    1  UNL1        0.0002
     20 C         -31.8306   -3.9472   33.9981 C.ar    1  UNL1        0.0000
     21 O         -30.6285   -1.1935   30.0697 O.2     1  UNL1       -0.2445
     22 O         -23.5889    3.0525   26.5484 O.3     1  UNL1       -0.4714
     23 C         -24.8382    3.6717   26.5266 C.3     1  UNL1        0.2525
@<TRIPOS>BOND
     1     3     4    1
     2     6    13    1
     3    13    14    1
     4    14    15    1
     5    14    21    2
     6    12    22    1
     7    22    23    1
     8     1     2   ar
     9     2     3   ar
    10     3     8   ar
    11     8     7   ar
    12     7     6   ar
    13     6     1   ar
    14    15    16   ar
    15    16    18   ar
    16    18    20   ar
    17    20    19   ar
    18    19    17   ar
    19    17    15   ar
    20     4     5   ar
    21     5     9   ar
    22     9    10   ar
    23    10    12   ar
    24    12    11   ar
    25    11     4   ar
