@<TRIPOS>MOLECULE
No_1736-gen_results/8p0m/2024-11-26-14-13-15/
 21 23 0 0 0
SMALL
GASTEIGER

@<TRIPOS>ATOM
      1 C         -28.0162   -0.8135   28.8779 C.ar    1  UNL1        0.0046
      2 C         -27.0636   -0.1189   28.6079 C.ar    1  UNL1        0.0016
      3 C         -25.7923   -0.4302   29.0761 C.ar    1  UNL1        0.0001
      4 C         -25.5756   -1.5654   29.9363 C.ar    1  UNL1        0.0001
      5 C         -26.7354   -2.3004   30.2173 C.ar    1  UNL1        0.0046
      6 C         -27.9184   -1.9537   29.7629 C.ar    1  UNL1        0.0550
      7 C         -27.1057    1.1023   27.7593 C.ar    1  UNL1        0.0181
      8 C         -27.8576    1.5309   27.2156 C.ar    1  UNL1        0.0015
      9 C         -27.8433    2.7213   26.2861 C.ar    1  UNL1       -0.0002
     10 C         -26.6217    3.3253   26.0566 C.ar    1  UNL1       -0.0010
     11 C         -25.4854    2.7960   26.6725 C.ar    1  UNL1        0.0178
     12 C         -25.6222    1.7365   27.5193 C.ar    1  UNL1        0.0880
     13 C         -29.0776   -2.7599   30.2148 C.2     1  UNL1        0.2648
     14 N         -30.1904   -2.2909   30.2786 N.am    1  UNL1       -0.1998
     15 O         -28.8811   -3.9898   30.5195 O.2     1  UNL1       -0.2684
     16 C         -31.4167   -3.0447   30.6408 C.3     1  UNL1        0.1388
     17 C         -24.1914    3.4149   26.4428 C.3     1  UNL1        0.1409
     18 N         -23.0939    2.6453   26.7946 N.pl3   1  UNL1       -0.2220
     19 C         -22.9294    2.1645   28.0064 C.2     1  UNL1        0.1419
     20 C         -23.8236    1.3805   28.6801 C.1     1  UNL1        0.0157
     21 N         -24.7815    1.1355   28.5285 N.2     1  UNL1       -0.2022
@<TRIPOS>BOND
     1     2     7    1
     2     6    13    1
     3    13    14   am
     4    13    15    2
     5    14    16    1
     6    11    17    1
     7    17    18    1
     8    18    19    1
     9    19    20    2
    10    12    21    1
    11    20    21    2
    12     1     2   ar
    13     2     3   ar
    14     3     4   ar
    15     4     5   ar
    16     5     6   ar
    17     6     1   ar
    18     7     8   ar
    19     8     9   ar
    20     9    10   ar
    21    10    11   ar
    22    11    12   ar
    23    12     7   ar
