@<TRIPOS>MOLECULE
No_1737-gen_results/8p0m/2024-11-26-14-13-15/
 10 10 0 0 0
SMALL
GASTEIGER

@<TRIPOS>ATOM
      1 C         -28.0162   -0.8135   28.8779 C.ar    1  UNL1        0.0492
      2 C         -28.4690   -0.7850   29.8287 C.ar    1  UNL1        0.0607
      3 C         -26.5455   -0.8762   28.8500 C.ar    1  UNL1        0.1500
      4 C         -25.8041   -1.0324   30.0571 C.ar    1  UNL1        0.0916
      5 C         -27.9437   -0.9869   31.2075 C.ar    1  UNL1        0.0125
      6 C         -26.5825   -1.0386   31.2231 C.ar    1  UNL1        0.0153
      7 CL        -30.2809   -0.7232   29.8834 Cl      1  UNL1       -0.0821
      8 CL        -24.1273   -1.1270   30.0648 Cl      1  UNL1       -0.0791
      9 O         -25.7634   -0.8478   27.7110 O.3     1  UNL1       -0.4705
     10 C         -24.6735   -0.0350   27.6307 C.3     1  UNL1        0.2525
@<TRIPOS>BOND
     1     2     7    1
     2     4     8    1
     3     3     9    1
     4     9    10    1
     5     1     2   ar
     6     2     5   ar
     7     5     6   ar
     8     6     4   ar
     9     4     3   ar
    10     3     1   ar
