@<TRIPOS>MOLECULE
No_1739-gen_results/8p0m/2024-11-26-14-13-15/
 24 26 0 0 0
SMALL
GASTEIGER

@<TRIPOS>ATOM
      1 C         -28.0162   -0.8135   28.8779 C.ar    1  UNL1        0.0034
      2 C         -27.0636   -0.1189   28.6079 C.ar    1  UNL1        0.0389
      3 C         -26.9287    1.1713   29.0083 C.ar    1  UNL1        0.0034
      4 C         -27.9560    1.7411   29.7840 C.ar    1  UNL1        0.0067
      5 C         -29.0569   -0.3271   29.7466 C.ar    1  UNL1        0.0067
      6 C         -28.9828    0.9722   30.1516 C.ar    1  UNL1        0.0798
      7 C         -25.8815   -0.6260   27.7945 C.2     1  UNL1        0.1953
      8 C         -24.6972   -1.0572   28.6241 C.ar    1  UNL1        0.0353
      9 C         -23.5810   -0.2730   28.8246 C.ar    1  UNL1        0.0029
     10 C         -22.4967   -0.7887   29.5688 C.ar    1  UNL1        0.0001
     11 C         -24.7363   -2.3397   29.2314 C.ar    1  UNL1       -0.0147
     12 C         -25.8662   -3.2130   29.0660 C.3     1  UNL1        0.0527
     13 C         -22.6020   -2.0268   30.1569 C.ar    1  UNL1       -0.0003
     14 C         -23.6784   -2.7722   29.9538 C.ar    1  UNL1       -0.0038
     15 C         -26.7179   -3.3171   30.3700 C.ar    1  UNL1       -0.0178
     16 C         -27.6706   -4.3761   30.3597 C.ar    1  UNL1       -0.0039
     17 C         -29.0262   -3.9784   30.5290 C.ar    1  UNL1       -0.0003
     18 C         -29.3808   -3.3888   31.7605 C.ar    1  UNL1       -0.0000
     19 C         -28.3283   -2.4848   32.1438 C.ar    1  UNL1       -0.0003
     20 C         -27.0319   -2.2462   31.2748 C.ar    1  UNL1       -0.0039
     21 C         -30.1463    1.5003   31.0083 C.2     1  UNL1        0.3878
     22 O         -30.0328    1.8767   32.0016 O.co2   1  UNL1       -0.2406
     23 O         -31.3864    1.0889   30.4823 O.co2   1  UNL1       -0.2406
     24 O         -25.8474   -0.5405   26.5816 O.2     1  UNL1       -0.2866
@<TRIPOS>BOND
     1     2     7    1
     2     7     8    1
     3    11    12    1
     4    12    15    1
     5     6    21    1
     6    21    22   ar
     7    21    23   ar
     8     7    24    2
     9    15    16   ar
    10    16    17   ar
    11    17    18   ar
    12    18    19   ar
    13    19    20   ar
    14    20    15   ar
    15     8     9   ar
    16     9    10   ar
    17    10    13   ar
    18    13    14   ar
    19    14    11   ar
    20    11     8   ar
    21     1     2   ar
    22     2     3   ar
    23     3     4   ar
    24     4     6   ar
    25     6     5   ar
    26     5     1   ar
