@<TRIPOS>MOLECULE
No_174-gen_results/8p0m/2024-11-26-14-13-15/
 10 10 0 0 0
SMALL
GASTEIGER

@<TRIPOS>ATOM
      1 O         -28.1229   -1.3353   28.4874 O.2     1  UNL1       -0.2733
      2 C         -27.4806   -0.4044   28.7094 C.2     1  UNL1        0.2430
      3 C         -27.1904    0.2461   29.5268 C.3     1  UNL1        0.0870
      4 N         -26.6021   -0.1576   27.5515 N.am    1  UNL1       -0.1827
      5 C         -25.6420    0.9030   27.5822 C.3     1  UNL1        0.1986
      6 C         -25.5003    1.6142   28.7368 C.3     1  UNL1        0.0473
      7 C         -26.2674    1.2888   29.8086 C.3     1  UNL1        0.0135
      8 N         -24.8851    1.1487   26.4884 N.2     1  UNL1       -0.2308
      9 C         -23.8891    2.1356   26.6599 C.2     1  UNL1        0.2017
     10 N         -23.5444    2.5069   27.5783 N.pl3   1  UNL1       -0.1044
@<TRIPOS>BOND
     1     1     2    2
     2     2     3    1
     3     2     4   am
     4     4     5    1
     5     6     7    1
     6     5     8    1
     7     8     9    2
     8     9    10    1
     9     3     7    1
    10     6     5    1
