@<TRIPOS>MOLECULE
No_1740-gen_results/8p0m/2024-11-26-14-13-15/
 17 19 0 0 0
SMALL
GASTEIGER

@<TRIPOS>ATOM
      1 C         -28.0162   -0.8135   28.8779 C.ar    1  UNL1        0.0002
      2 C         -27.0636   -0.1189   28.6079 C.ar    1  UNL1        0.0000
      3 C         -26.9716    0.7139   27.5060 C.ar    1  UNL1        0.0002
      4 C         -28.1053    0.7744   26.6421 C.ar    1  UNL1        0.0066
      5 C         -29.2041    0.1179   27.0477 C.ar    1  UNL1        0.0798
      6 C         -29.2127   -0.6088   28.1281 C.ar    1  UNL1        0.0066
      7 C         -30.3709    0.2326   26.1381 C.2     1  UNL1        0.3878
      8 O         -30.9633    1.2270   26.0808 O.co2   1  UNL1       -0.2406
      9 O         -30.6998   -0.8629   25.4650 O.co2   1  UNL1       -0.2406
     10 C         -25.6699    1.4159   27.1307 C.ar    1  UNL1        0.0000
     11 C         -24.5300    1.0575   27.7170 C.ar    1  UNL1        0.0000
     12 C         -23.3113    1.8153   27.3581 C.ar    1  UNL1        0.0000
     13 C         -22.0799    1.5908   28.0259 C.ar    1  UNL1        0.0000
     14 C         -21.9930    0.5601   28.9741 C.ar    1  UNL1        0.0000
     15 C         -23.1072   -0.2427   29.3090 C.ar    1  UNL1        0.0000
     16 C         -24.3000    0.0246   28.6589 C.ar    1  UNL1        0.0000
     17 C         -25.6571   -0.4336   29.3066 C.ar    1  UNL1        0.0000
@<TRIPOS>BOND
     1     5     7    1
     2     7     8   ar
     3     7     9   ar
     4    11    12   ar
     5    12    13   ar
     6    13    14   ar
     7    14    15   ar
     8    15    16   ar
     9     1     2   ar
    10     3     4   ar
    11     4     5   ar
    12     5     6   ar
    13     6     1   ar
    14     2     3   ar
    15     3    10   ar
    16    10    11   ar
    17    11    16   ar
    18    16    17   ar
    19    17     2   ar
