@<TRIPOS>MOLECULE
No_1741-gen_results/8p0m/2024-11-26-14-13-15/
 24 25 0 0 0
SMALL
GASTEIGER

@<TRIPOS>ATOM
      1 C         -28.0162   -0.8135   28.8779 C.ar    1  UNL1        0.0026
      2 C         -28.4690   -0.7850   29.8287 C.ar    1  UNL1        0.0797
      3 C         -27.1356    0.2359   28.5352 C.ar    1  UNL1       -0.0136
      4 C         -26.8745    1.2825   29.3982 C.ar    1  UNL1        0.0026
      5 C         -28.3613    0.1987   30.9244 C.ar    1  UNL1        0.0131
      6 C         -27.5277    1.2234   30.6356 C.ar    1  UNL1        0.0797
      7 C         -26.3879    0.2914   27.2334 C.3     1  UNL1        0.1217
      8 C         -25.1510    0.3034   27.2565 C.3     1  UNL1        0.0392
      9 C         -24.2763    0.0438   28.3453 C.ar    1  UNL1       -0.0216
     10 C         -22.9638    0.5704   28.3991 C.ar    1  UNL1       -0.0043
     11 C         -22.0408    0.1384   29.3909 C.ar    1  UNL1       -0.0003
     12 C         -22.4974   -0.6344   30.4382 C.ar    1  UNL1       -0.0000
     13 C         -24.5303   -0.8813   29.4374 C.ar    1  UNL1       -0.0043
     14 C         -23.6559   -1.2256   30.3703 C.ar    1  UNL1       -0.0003
     15 C         -27.1957    0.3668   26.0725 C.3     1  UNL1        0.4014
     16 F         -26.5639    0.1744   25.0284 F       1  UNL1       -0.1697
     17 F         -27.6744    1.6662   25.9675 F       1  UNL1       -0.1697
     18 F         -28.3077   -0.3912   26.1022 F       1  UNL1       -0.1697
     19 C         -27.2747    2.3383   31.6368 C.2     1  UNL1        0.3877
     20 O         -27.8830    3.3234   31.7321 O.co2   1  UNL1       -0.2406
     21 O         -26.1341    2.0676   32.3788 O.co2   1  UNL1       -0.2406
     22 C         -29.5095   -1.9144   30.3135 C.2     1  UNL1        0.3877
     23 O         -29.0867   -2.9184   30.5564 O.co2   1  UNL1       -0.2406
     24 O         -30.6728   -1.5710   30.6388 O.co2   1  UNL1       -0.2406
@<TRIPOS>BOND
     1     3     7    1
     2     7     8    1
     3     8     9    1
     4     7    15    1
     5    15    16    1
     6    15    17    1
     7    15    18    1
     8     6    19    1
     9    19    20   ar
    10    19    21   ar
    11     2    22    1
    12    22    23   ar
    13    22    24   ar
    14     1     2   ar
    15     2     5   ar
    16     5     6   ar
    17     6     4   ar
    18     4     3   ar
    19     3     1   ar
    20     9    10   ar
    21    10    11   ar
    22    11    12   ar
    23    12    14   ar
    24    14    13   ar
    25    13     9   ar
