@<TRIPOS>MOLECULE
No_1742-gen_results/8p0m/2024-11-26-14-13-15/
 35 38 0 0 0
SMALL
GASTEIGER

@<TRIPOS>ATOM
      1 C         -28.0162   -0.8135   28.8779 C.ar    1  UNL1       -0.0028
      2 C         -28.4690   -0.7850   29.8287 C.ar    1  UNL1       -0.0001
      3 C         -28.1960    0.3478   28.0550 C.ar    1  UNL1       -0.0032
      4 C         -29.0191    1.3501   28.3782 C.ar    1  UNL1        0.0038
      5 C         -29.6249    1.2683   29.6012 C.ar    1  UNL1        0.0795
      6 C         -29.3821    0.1816   30.4004 C.ar    1  UNL1        0.0066
      7 C         -27.4591    0.3787   26.7048 C.3     1  UNL1        0.1237
      8 CL        -26.0052    0.0048   26.5947 Cl      1  UNL1       -0.1054
      9 C         -28.2881    0.0396   25.5323 C.2     1  UNL1       -0.0101
     10 C         -28.7907    0.9742   24.9812 C.2     1  UNL1       -0.0246
     11 C         -28.7521    2.3581   25.5765 C.ar    1  UNL1       -0.0041
     12 C         -29.4205    3.0954   25.7010 C.ar    1  UNL1       -0.0003
     13 C         -29.4614    4.3494   26.0481 C.ar    1  UNL1        0.0001
     14 C         -28.1923    4.9304   26.5194 C.ar    1  UNL1        0.0046
     15 C         -27.1547    4.0190   26.5526 C.ar    1  UNL1        0.0554
     16 C         -27.3123    2.6966   25.9986 C.ar    1  UNL1        0.0043
     17 C         -30.5381    2.3762   30.1208 C.2     1  UNL1        0.3877
     18 O         -30.1274    3.3162   30.4890 O.co2   1  UNL1       -0.2406
     19 O         -31.8143    2.2560   29.5780 O.co2   1  UNL1       -0.2406
     20 C         -25.7921    4.5162   26.9472 C.2     1  UNL1        0.2703
     21 N         -24.7322    3.7248   26.7283 N.am    1  UNL1       -0.1566
     22 C         -24.2259    2.6800   27.3107 C.ar    1  UNL1        0.1544
     23 C         -22.9831    2.1332   26.9719 C.ar    1  UNL1        0.0364
     24 C         -22.4747    1.0987   27.8548 C.ar    1  UNL1        0.0087
     25 C         -23.1187    0.6707   28.9751 C.ar    1  UNL1        0.0687
     26 C         -22.6429   -0.3988   29.6824 C.2     1  UNL1        0.2659
     27 N         -24.7138    2.4302   28.5567 N.ar    1  UNL1       -0.2329
     28 C         -24.2315    1.4049   29.3469 C.ar    1  UNL1        0.0662
     29 N         -23.1663   -0.6527   30.8566 N.am    1  UNL1       -0.2012
     30 O         -21.9387   -1.2970   29.1311 O.2     1  UNL1       -0.2683
     31 O         -25.6510    5.4909   27.7025 O.2     1  UNL1       -0.2680
     32 C         -29.6351    0.8338   23.8183 C.3     1  UNL1        0.0307
     33 C         -24.0248    0.1564   31.6677 C.3     1  UNL1        0.1213
     34 C         -24.7124    1.1457   30.7361 C.3     1  UNL1        0.0622
     35 C         -25.7681    1.9558   31.3478 C.3     1  UNL1        0.0081
@<TRIPOS>BOND
     1     3     7    1
     2     7     8    1
     3     7     9    1
     4     9    10    2
     5    10    11    1
     6     5    17    1
     7    17    18   ar
     8    17    19   ar
     9    15    20    1
    10    20    21   am
    11    21    22    1
    12    25    26    1
    13    26    29   am
    14    26    30    2
    15    20    31    2
    16    10    32    1
    17    28    34    1
    18    33    34    1
    19    34    35    1
    20    33    29    1
    21    11    12   ar
    22    12    13   ar
    23    13    14   ar
    24    14    15   ar
    25    15    16   ar
    26    16    11   ar
    27     1     2   ar
    28     2     6   ar
    29     6     5   ar
    30     5     4   ar
    31     4     3   ar
    32     3     1   ar
    33    22    23   ar
    34    23    24   ar
    35    24    25   ar
    36    25    28   ar
    37    28    27   ar
    38    27    22   ar
