@<TRIPOS>MOLECULE
No_1743-gen_results/8p0m/2024-11-26-14-13-15/
 23 24 0 0 0
SMALL
GASTEIGER

@<TRIPOS>ATOM
      1 C         -28.0162   -0.8135   28.8779 C.ar    1  UNL1       -0.0000
      2 C         -27.0636   -0.1190   28.6079 C.ar    1  UNL1       -0.0000
      3 C         -25.7923   -0.4302   29.0761 C.ar    1  UNL1        0.0039
      4 C         -25.5756   -1.5654   29.9363 C.ar    1  UNL1        0.0714
      5 C         -24.3722   -1.9422   30.4466 C.3     1  UNL1        0.4186
      6 C         -27.9614   -1.9130   29.8182 C.ar    1  UNL1       -0.0001
      7 C         -26.7388   -2.3049   30.3196 C.ar    1  UNL1        0.0039
      8 F         -23.7351   -2.8285   29.8421 F       1  UNL1       -0.1659
      9 F         -23.3677   -0.8720   30.4592 F       1  UNL1       -0.1659
     10 F         -24.4503   -2.0979   31.7937 F       1  UNL1       -0.1659
     11 C         -27.0843    1.0306   27.6479 C.2     1  UNL1        0.0001
     12 C         -26.2724    2.0821   27.7706 C.2     1  UNL1        0.0022
     13 C         -25.3532    2.1132   28.8790 C.ar    1  UNL1        0.0274
     14 C         -24.7014    2.9284   29.3796 C.ar    1  UNL1        0.0022
     15 C         -23.6839    2.7115   30.4743 C.ar    1  UNL1        0.0001
     16 C         -24.2714    2.1735   31.5493 C.ar    1  UNL1        0.0061
     17 C         -25.4216    1.2887   31.3738 C.ar    1  UNL1        0.0988
     18 C         -26.0334    0.7555   32.5381 C.3     1  UNL1        0.4207
     19 C         -26.0833    1.4363   30.1152 C.ar    1  UNL1        0.1439
     20 F         -27.1940    1.6537   30.2399 F       1  UNL1       -0.2042
     21 F         -26.4188    1.5692   33.4333 F       1  UNL1       -0.1658
     22 F         -25.1096   -0.1595   33.0856 F       1  UNL1       -0.1658
     23 F         -27.0462   -0.0860   32.1521 F       1  UNL1       -0.1658
@<TRIPOS>BOND
     1     4     5    1
     2     5     8    1
     3     5     9    1
     4     5    10    1
     5     2    11    1
     6    11    12    2
     7    12    13    1
     8    17    18    1
     9    19    20    1
    10    18    21    1
    11    18    22    1
    12    18    23    1
    13    13    14   ar
    14    14    15   ar
    15    15    16   ar
    16    16    17   ar
    17    17    19   ar
    18    19    13   ar
    19     1     2   ar
    20     2     3   ar
    21     3     4   ar
    22     4     7   ar
    23     7     6   ar
    24     6     1   ar
