@<TRIPOS>MOLECULE
No_1744-gen_results/8p0m/2024-11-26-14-13-15/
 16 17 0 0 0
SMALL
GASTEIGER

@<TRIPOS>ATOM
      1 C         -28.0162   -0.8135   28.8779 C.ar    1  UNL1        0.0342
      2 C         -27.0636   -0.1190   28.6079 C.ar    1  UNL1        0.1403
      3 C         -25.7923   -0.4302   29.0761 C.ar    1  UNL1        0.0296
      4 C         -25.5756   -1.5654   29.9363 C.ar    1  UNL1        0.0025
      5 C         -26.7354   -2.3004   30.2173 C.ar    1  UNL1        0.0047
      6 C         -27.9184   -1.9537   29.7629 C.ar    1  UNL1        0.0576
      7 F         -27.1354    0.9934   27.8754 F       1  UNL1       -0.2042
      8 C         -29.0659   -2.8011   30.1862 C.2     1  UNL1        0.2690
      9 N         -28.9333   -4.0796   30.4492 N.am    1  UNL1       -0.1754
     10 O         -30.2001   -2.2941   30.2818 O.2     1  UNL1       -0.2680
     11 C         -29.9910   -5.0131   30.7731 C.ar    1  UNL1        0.0737
     12 C         -29.8379   -5.6502   31.9406 C.ar    1  UNL1        0.0166
     13 C         -30.5432   -6.8953   32.1027 C.ar    1  UNL1        0.0013
     14 C         -31.4888   -7.2820   31.1320 C.ar    1  UNL1        0.0001
     15 C         -31.5868   -6.5071   29.9581 C.ar    1  UNL1        0.0013
     16 C         -30.6982   -5.4188   29.7453 C.ar    1  UNL1        0.0166
@<TRIPOS>BOND
     1     2     7    1
     2     6     8    1
     3     8     9   am
     4     8    10    2
     5     9    11    1
     6    11    12   ar
     7    12    13   ar
     8    13    14   ar
     9    14    15   ar
    10    15    16   ar
    11    16    11   ar
    12     1     2   ar
    13     2     3   ar
    14     3     4   ar
    15     4     5   ar
    16     5     6   ar
    17     6     1   ar
