@<TRIPOS>MOLECULE
No_1745-gen_results/8p0m/2024-11-26-14-13-15/
 9 9 0 0 0
SMALL
GASTEIGER

@<TRIPOS>ATOM
      1 C         -28.0162   -0.8135   28.8779 C.ar    1  UNL1       -0.0039
      2 C         -28.4690   -0.7850   29.8287 C.ar    1  UNL1       -0.0003
      3 C         -27.1356    0.2359   28.5352 C.ar    1  UNL1       -0.0178
      4 C         -26.8745    1.2825   29.3982 C.ar    1  UNL1       -0.0039
      5 C         -28.3613    0.1987   30.9244 C.ar    1  UNL1       -0.0000
      6 C         -27.5277    1.2234   30.6356 C.ar    1  UNL1       -0.0003
      7 C         -26.3987    0.2949   27.2279 C.3     1  UNL1        0.0523
      8 C         -25.8882    1.5487   26.8334 C.2     1  UNL1       -0.0214
      9 C         -25.5177    2.4958   27.7684 C.2     1  UNL1       -0.0046
@<TRIPOS>BOND
     1     3     7    1
     2     7     8    1
     3     8     9    2
     4     1     2   ar
     5     2     5   ar
     6     5     6   ar
     7     6     4   ar
     8     4     3   ar
     9     3     1   ar
