@<TRIPOS>MOLECULE
No_1747-gen_results/8p0m/2024-11-26-14-13-15/
 22 23 0 0 0
SMALL
GASTEIGER

@<TRIPOS>ATOM
      1 C         -28.0162   -0.8135   28.8779 C.ar    1  UNL1       -0.0039
      2 C         -28.4690   -0.7850   29.8287 C.ar    1  UNL1       -0.0003
      3 C         -26.5455   -0.8762   28.8500 C.ar    1  UNL1       -0.0178
      4 C         -25.6825   -0.7773   27.6829 C.3     1  UNL1        0.0520
      5 C         -27.9181   -1.0034   31.1877 C.ar    1  UNL1       -0.0000
      6 C         -26.5308   -1.0794   31.2463 C.ar    1  UNL1       -0.0003
      7 C         -25.7798   -1.0462   30.0905 C.ar    1  UNL1       -0.0039
      8 C         -25.8976    0.2387   26.7449 C.2     1  UNL1       -0.0260
      9 C         -24.9256    0.7629   26.0322 C.2     1  UNL1       -0.0299
     10 C         -24.2472    1.7995   26.1605 C.3     1  UNL1        0.0348
     11 C         -24.4507    2.7005   27.2727 C.3     1  UNL1        0.0825
     12 C         -24.0170    2.2696   28.5030 C.2     1  UNL1        0.2415
     13 C         -25.2014    3.9112   27.1135 C.3     1  UNL1        0.0100
     14 N         -24.6826    2.7621   29.6433 N.am    1  UNL1       -0.2006
     15 O         -23.1564    1.4590   28.6718 O.2     1  UNL1       -0.2733
     16 C         -24.5096    2.3255   30.9725 C.3     1  UNL1        0.1415
     17 C         -25.4033    2.9315   31.8728 C.ar    1  UNL1       -0.0006
     18 C         -26.1892    2.1118   32.6727 C.ar    1  UNL1       -0.0026
     19 C         -27.0861    2.6924   33.6232 C.ar    1  UNL1       -0.0003
     20 C         -27.1504    4.0856   33.7401 C.ar    1  UNL1       -0.0000
     21 C         -26.2952    4.8876   33.0259 C.ar    1  UNL1       -0.0003
     22 C         -25.4289    4.3136   32.1178 C.ar    1  UNL1       -0.0026
@<TRIPOS>BOND
     1     3     4    1
     2     4     8    1
     3     8     9    2
     4     9    10    1
     5    10    11    1
     6    11    12    1
     7    11    13    1
     8    12    14   am
     9    12    15    2
    10    14    16    1
    11    16    17    1
    12    17    18   ar
    13    18    19   ar
    14    19    20   ar
    15    20    21   ar
    16    21    22   ar
    17    22    17   ar
    18     1     2   ar
    19     2     5   ar
    20     5     6   ar
    21     6     7   ar
    22     7     3   ar
    23     3     1   ar
