@<TRIPOS>MOLECULE
No_1748-gen_results/8p0m/2024-11-26-14-13-15/
 12 12 0 0 0
SMALL
GASTEIGER

@<TRIPOS>ATOM
      1 C         -28.0162   -0.8135   28.8779 C.ar    1  UNL1        0.0417
      2 C         -27.0636   -0.1189   28.6079 C.ar    1  UNL1        0.0003
      3 C         -26.8756    1.1325   28.9134 C.ar    1  UNL1       -0.0048
      4 C         -27.9014    1.8066   29.6436 C.ar    1  UNL1        0.0003
      5 C         -29.0458   -0.2316   29.7181 C.ar    1  UNL1        0.1957
      6 C         -28.9402    1.0517   30.0597 C.ar    1  UNL1        0.0417
      7 O         -30.0593   -1.0632   30.0946 O.3     1  UNL1       -0.2866
      8 C         -25.6684    1.9363   28.4484 C.3     1  UNL1        0.1316
      9 CL        -24.9035    1.9175   27.6382 Cl      1  UNL1       -0.1075
     10 C         -25.4375    3.0978   29.5382 C.3     1  UNL1        0.1628
     11 O         -25.7949    2.4645   29.4513 O.3     1  UNL1       -0.3494
     12 C         -25.6873    1.6372   30.6835 C.3     1  UNL1        0.1742
@<TRIPOS>BOND
     1     5     7    1
     2     3     8    1
     3     8     9    1
     4     8    10    1
     5    10    11    1
     6    11    12    1
     7     1     2   ar
     8     2     3   ar
     9     3     4   ar
    10     4     6   ar
    11     6     5   ar
    12     5     1   ar
