@<TRIPOS>MOLECULE
No_175-gen_results/8p0m/2024-11-26-14-13-15/
 29 29 0 0 0
SMALL
GASTEIGER

@<TRIPOS>ATOM
      1 C         -28.0162   -0.8135   28.8779 C.ar    1  UNL1        0.0113
      2 C         -28.4690   -0.7850   29.8287 C.ar    1  UNL1        0.0074
      3 C         -26.5455   -0.8762   28.8500 C.ar    1  UNL1        0.0537
      4 C         -25.8041   -1.0324   30.0571 C.ar    1  UNL1       -0.0117
      5 C         -26.5373   -1.0386   31.2171 C.ar    1  UNL1        0.0031
      6 C         -27.8843   -0.9532   31.1862 C.ar    1  UNL1        0.0795
      7 C         -24.4686   -1.3724   30.1797 C.3     1  UNL1        0.0235
      8 C         -23.8055   -2.0668   29.2178 C.3     1  UNL1        0.0047
      9 C         -23.6646   -0.7273   31.1933 C.3     1  UNL1        0.0090
     10 C         -24.1641    0.2341   32.0281 C.3     1  UNL1        0.0265
     11 CL        -25.5728   -0.8470   27.4075 Cl      1  UNL1       -0.0826
     12 C         -28.7375   -0.9603   32.4355 C.2     1  UNL1        0.3877
     13 O         -28.3349   -0.4348   33.3896 O.co2   1  UNL1       -0.2406
     14 O         -29.8165   -1.6539   32.3899 O.co2   1  UNL1       -0.2406
     15 C         -24.6462    1.4674   31.6250 C.2     1  UNL1       -0.0214
     16 C         -25.2451    2.4662   32.4298 C.2     1  UNL1        0.0549
     17 C         -25.5749    3.7657   31.9496 C.2     1  UNL1        0.2646
     18 N         -25.9337    4.7415   32.7360 N.am    1  UNL1       -0.2004
     19 O         -25.4975    4.0115   30.7190 O.2     1  UNL1       -0.2684
     20 C         -26.2809    6.0883   32.3113 C.3     1  UNL1        0.1316
     21 C         -26.3379    6.4102   31.1399 C.3     1  UNL1        0.1016
     22 CL        -27.4189    6.5253   30.6587 Cl      1  UNL1       -0.1131
     23 C         -25.0299    6.7281   30.5022 C.3     1  UNL1        0.0184
     24 C         -24.9640    8.0699   29.8763 C.3     1  UNL1        0.0056
     25 C         -24.4546    8.0796   28.5293 C.3     1  UNL1        0.0004
     26 C         -25.2836    9.2095   30.4866 C.3     1  UNL1        0.0257
     27 C         -25.4973    9.2738   31.8637 C.2     1  UNL1       -0.0307
     28 C         -25.9137   10.4633   32.3664 C.2     1  UNL1       -0.0304
     29 C         -26.0211   11.5580   31.5477 C.3     1  UNL1        0.0303
@<TRIPOS>BOND
     1     4     7    1
     2     7     8    1
     3     7     9    1
     4     9    10    1
     5     3    11    1
     6     6    12    1
     7    12    13   ar
     8    12    14   ar
     9    10    15    1
    10    15    16    2
    11    16    17    1
    12    17    18   am
    13    17    19    2
    14    18    20    1
    15    20    21    1
    16    21    22    1
    17    21    23    1
    18    23    24    1
    19    24    25    1
    20    24    26    1
    21    26    27    1
    22    27    28    2
    23    28    29    1
    24     1     2   ar
    25     2     6   ar
    26     6     5   ar
    27     5     4   ar
    28     4     3   ar
    29     3     1   ar
