@<TRIPOS>MOLECULE
No_1750-gen_results/8p0m/2024-11-26-14-13-15/
 19 20 0 0 0
SMALL
GASTEIGER

@<TRIPOS>ATOM
      1 O         -28.1229   -1.3353   28.4874 O.2     1  UNL1       -0.2684
      2 C         -27.4806   -0.4044   28.7094 C.2     1  UNL1        0.2651
      3 C         -26.3804   -0.0867   27.9394 C.ar    1  UNL1        0.0553
      4 N         -27.4232    0.1749   30.0549 N.am    1  UNL1       -0.1968
      5 C         -26.1558    0.1159   26.9677 C.ar    1  UNL1        0.0046
      6 C         -24.9232    0.5762   26.2595 C.ar    1  UNL1        0.0004
      7 C         -23.8316    0.7803   27.0683 C.ar    1  UNL1        0.0066
      8 C         -23.9673    0.5795   28.4350 C.ar    1  UNL1        0.0799
      9 C         -25.0916    0.2405   28.9716 C.ar    1  UNL1        0.0111
     10 C         -28.5963   -0.2063   30.9192 C.3     1  UNL1        0.1418
     11 C         -22.7919    0.9435   29.3079 C.2     1  UNL1        0.3878
     12 O         -23.0340    1.0171   30.5346 O.co2   1  UNL1       -0.2406
     13 O         -21.6157    0.7129   28.8730 O.co2   1  UNL1       -0.2406
     14 C         -29.3628    0.8446   31.1629 C.ar    1  UNL1       -0.0006
     15 C         -30.4170    0.6742   31.7789 C.ar    1  UNL1       -0.0026
     16 C         -31.3832    1.7412   32.0470 C.ar    1  UNL1       -0.0003
     17 C         -31.0237    3.0281   31.5789 C.ar    1  UNL1       -0.0000
     18 C         -29.8651    3.2115   30.8810 C.ar    1  UNL1       -0.0003
     19 C         -29.0259    2.1621   30.6596 C.ar    1  UNL1       -0.0026
@<TRIPOS>BOND
     1     1     2    2
     2     2     3    1
     3     2     4   am
     4     4    10    1
     5     8    11    1
     6    11    12   ar
     7    11    13   ar
     8    10    14    1
     9    14    15   ar
    10    15    16   ar
    11    16    17   ar
    12    17    18   ar
    13    18    19   ar
    14    19    14   ar
    15     3     5   ar
    16     5     6   ar
    17     6     7   ar
    18     7     8   ar
    19     8     9   ar
    20     9     3   ar
