@<TRIPOS>MOLECULE
No_1751-gen_results/8p0m/2024-11-26-14-13-15/
 9 9 0 0 0
SMALL
GASTEIGER

@<TRIPOS>ATOM
      1 O         -28.1229   -1.3353   28.4874 O.2     1  UNL1       -0.2745
      2 C         -28.5208   -0.4363   29.0779 C.2     1  UNL1        0.2294
      3 C         -29.6977    0.0507   28.9764 C.3     1  UNL1        0.0857
      4 N         -27.7059   -0.0219   30.1625 N.am    1  UNL1       -0.2575
      5 C         -28.0553    1.0912   30.9931 C.3     1  UNL1        0.0982
      6 C         -30.1419    1.1807   29.8085 C.3     1  UNL1        0.0113
      7 C         -29.2705    1.6345   30.8189 C.3     1  UNL1        0.0224
      8 C         -26.3775   -0.5952   30.3641 C.2     1  UNL1        0.0675
      9 C         -25.8876   -1.4656   29.6164 C.2     1  UNL1        0.0175
@<TRIPOS>BOND
     1     1     2    2
     2     2     3    1
     3     2     4   am
     4     4     5    1
     5     6     7    1
     6     4     8    1
     7     8     9    2
     8     3     6    1
     9     7     5    1
