@<TRIPOS>MOLECULE
No_1752-gen_results/8p0m/2024-11-26-14-13-15/
 27 30 0 0 0
SMALL
GASTEIGER

@<TRIPOS>ATOM
      1 C         -28.0162   -0.8135   28.8779 C.ar    1  UNL1        0.0388
      2 C         -27.0636   -0.1189   28.6079 C.ar    1  UNL1        0.0180
      3 C         -25.7647   -0.3897   29.0360 C.ar    1  UNL1        0.0518
      4 C         -25.5296   -1.5302   29.9014 C.ar    1  UNL1        0.0180
      5 C         -26.6888   -2.2893   30.1810 C.ar    1  UNL1        0.0388
      6 C         -27.8727   -1.9508   29.7373 C.ar    1  UNL1        0.1454
      7 O         -28.9304   -2.7298   30.1154 O.3     1  UNL1       -0.4535
      8 N         -24.6189    0.3801   28.7585 N.pl3   1  UNL1       -0.2858
      9 C         -24.5264    1.2561   27.7955 C.2     1  UNL1        0.0608
     10 C         -23.2483    1.8778   27.5349 C.2     1  UNL1       -0.0083
     11 C         -22.2384    1.2669   28.4050 C.3     1  UNL1        0.0492
     12 C         -23.2345    0.1828   29.2502 C.3     1  UNL1        0.1003
     13 C         -30.0499   -2.2349   30.5678 C.ar    1  UNL1        0.1453
     14 C         -30.4625   -2.9367   31.7093 C.ar    1  UNL1        0.0375
     15 C         -31.6375   -2.4233   32.3310 C.ar    1  UNL1        0.0031
     16 C         -32.3184   -1.4022   31.6912 C.ar    1  UNL1        0.0002
     17 C         -31.8298   -0.8214   30.5852 C.ar    1  UNL1        0.0030
     18 C         -30.6715   -1.2161   30.0291 C.ar    1  UNL1        0.0375
     19 C         -32.4057    0.4655   30.2182 C.ar    1  UNL1        0.0001
     20 C         -32.1489    1.5366   30.9376 C.ar    1  UNL1        0.0000
     21 C         -33.0656    0.5370   28.9422 C.ar    1  UNL1        0.0000
     22 C         -32.6576    2.8277   30.6178 C.ar    1  UNL1       -0.0000
     23 C         -33.6399    1.8264   28.6051 C.ar    1  UNL1       -0.0000
     24 C         -33.4044    2.9153   29.4386 C.ar    1  UNL1       -0.0003
     25 C         -33.9978    4.2221   29.0526 C.2     1  UNL1       -0.0046
     26 C         -33.6708    5.2722   29.7538 C.2     1  UNL1       -0.0258
     27 C         -32.8832    5.0978   30.9824 C.3     1  UNL1        0.0307
@<TRIPOS>BOND
     1     6     7    1
     2     3     8    1
     3     8     9    1
     4     9    10    2
     5    10    11    1
     6     8    12    1
     7    11    12    1
     8     7    13    1
     9    17    19    1
    10    24    25    1
    11    25    26    2
    12    26    27    1
    13    19    20   ar
    14    20    22   ar
    15    22    24   ar
    16    24    23   ar
    17    23    21   ar
    18    21    19   ar
    19     1     2   ar
    20     2     3   ar
    21     3     4   ar
    22     4     5   ar
    23     5     6   ar
    24     6     1   ar
    25    13    14   ar
    26    14    15   ar
    27    15    16   ar
    28    16    17   ar
    29    17    18   ar
    30    18    13   ar
