@<TRIPOS>MOLECULE
No_1753-gen_results/8p0m/2024-11-26-14-13-15/
 15 16 0 0 0
SMALL
GASTEIGER

@<TRIPOS>ATOM
      1 C         -28.0162   -0.8135   28.8779 C.2     1  UNL1        0.0777
      2 C         -27.0636   -0.1189   28.6079 C.2     1  UNL1       -0.0377
      3 C         -26.8756    1.1325   28.9134 C.3     1  UNL1        0.0226
      4 C         -25.6883    1.9515   28.5672 C.3     1  UNL1        0.0103
      5 C         -24.6394    1.2834   27.8753 C.3     1  UNL1        0.0421
      6 C         -24.8068   -0.0513   27.6040 C.3     1  UNL1        0.0103
      7 C         -25.9019   -0.7670   27.9511 C.3     1  UNL1        0.0226
      8 C         -28.0611   -1.4288   30.2827 C.2     1  UNL1        0.3873
      9 O         -28.9549   -2.3242   30.5042 O.co2   1  UNL1       -0.2406
     10 O         -27.1823   -1.1701   31.1151 O.co2   1  UNL1       -0.2406
     11 C         -23.4155    1.9705   27.5080 C.2     1  UNL1        0.0743
     12 N         -23.0631    2.6919   26.7011 N.2     1  UNL1       -0.2471
     13 C         -22.1690    1.5774   28.3845 C.2     1  UNL1        0.1097
     14 N         -21.1348    2.1471   27.6182 N.2     1  UNL1       -0.2415
     15 C         -21.6974    2.6089   26.5177 C.3     1  UNL1        0.2505
@<TRIPOS>BOND
     1     1     2    2
     2     2     3    1
     3     3     4    1
     4     4     5    1
     5     5     6    1
     6     2     7    1
     7     6     7    1
     8     1     8    1
     9     8     9   ar
    10     8    10   ar
    11     5    11    1
    12    11    12    2
    13    11    13    1
    14    13    14    2
    15    12    15    1
    16    14    15    1
