@<TRIPOS>MOLECULE
No_1754-gen_results/8p0m/2024-11-26-14-13-15/
 17 18 0 0 0
SMALL
GASTEIGER

@<TRIPOS>ATOM
      1 C         -28.0162   -0.8135   28.8779 C.3     1  UNL1        0.0217
      2 C         -28.4690   -0.7850   29.8287 C.3     1  UNL1        0.0725
      3 C         -28.1816    0.4277   28.1134 C.3     1  UNL1        0.0251
      4 C         -27.0280    0.9338   27.5279 C.ar    1  UNL1       -0.0227
      5 N         -29.7897   -0.7748   30.0880 N.3     1  UNL1       -0.2715
      6 C         -26.8897    1.4935   26.5388 C.ar    1  UNL1       -0.0043
      7 C         -25.5693    1.9769   25.9106 C.ar    1  UNL1       -0.0006
      8 C         -24.4067    1.6746   26.6828 C.ar    1  UNL1       -0.0043
      9 C         -24.5476    1.0539   27.9157 C.ar    1  UNL1       -0.0231
     10 C         -25.7819    0.6322   28.3552 C.ar    1  UNL1       -0.0086
     11 C         -30.4373    0.1776   29.3060 C.3     1  UNL1        0.0725
     12 C         -29.5075    0.8931   28.2717 C.3     1  UNL1        0.0217
     13 C         -23.2780    0.7925   28.6460 C.3     1  UNL1        0.0189
     14 C         -23.0739   -0.5428   29.0905 C.3     1  UNL1        0.0044
     15 C         -30.5652   -1.3681   31.1164 C.3     1  UNL1        0.0896
     16 C         -22.0741    1.3370   27.8871 C.3     1  UNL1        0.0044
     17 C         -23.4395    1.6841   30.0055 C.3     1  UNL1        0.0044
@<TRIPOS>BOND
     1     1     2    1
     2     1     3    1
     3     3     4    1
     4     2     5    1
     5     5    11    1
     6     3    12    1
     7     9    13    1
     8    13    14    1
     9     5    15    1
    10    13    16    1
    11    13    17    1
    12    12    11    1
    13     4     6   ar
    14     6     7   ar
    15     7     8   ar
    16     8     9   ar
    17     9    10   ar
    18    10     4   ar
