@<TRIPOS>MOLECULE
No_1756-gen_results/8p0m/2024-11-26-14-13-15/
 25 27 0 0 0
SMALL
GASTEIGER

@<TRIPOS>ATOM
      1 C         -28.0162   -0.8135   28.8779 C.ar    1  UNL1        0.0043
      2 C         -28.4690   -0.7850   29.8287 C.ar    1  UNL1        0.0001
      3 C         -27.0871    0.2903   28.6377 C.ar    1  UNL1        0.0516
      4 C         -26.8317    1.2487   29.5869 C.ar    1  UNL1       -0.0077
      5 C         -28.3914    0.0801   31.0065 C.ar    1  UNL1       -0.0003
      6 C         -27.4940    1.1521   30.7841 C.ar    1  UNL1       -0.0036
      7 C         -26.3172    0.3994   27.3653 C.2     1  UNL1        0.2645
      8 N         -25.4794    1.4098   27.2651 N.am    1  UNL1       -0.2008
      9 C         -25.2242    2.3589   28.1845 C.3     1  UNL1        0.1289
     10 C         -25.9048    2.2831   29.4060 C.3     1  UNL1        0.1211
     11 O         -26.4307   -0.4136   26.4457 O.2     1  UNL1       -0.2684
     12 C         -25.6097    3.3621   30.4048 C.2     1  UNL1        0.2372
     13 O         -24.7795    3.0882   31.2598 O.2     1  UNL1       -0.2740
     14 N         -26.5762    4.3339   30.5410 N.am    1  UNL1       -0.2218
     15 C         -26.3996    5.3381   31.6280 C.3     1  UNL1        0.1275
     16 C         -27.5550    4.6520   29.5613 C.2     1  UNL1        0.2550
     17 C         -28.8290    4.7528   30.0797 C.ar    1  UNL1        0.0540
     18 C         -29.6637    5.3391   29.3086 C.ar    1  UNL1        0.0045
     19 C         -31.0395    5.4427   29.7379 C.ar    1  UNL1        0.0001
     20 C         -31.4192    4.9067   30.9901 C.ar    1  UNL1        0.0000
     21 C         -30.4902    4.2578   31.7573 C.ar    1  UNL1        0.0001
     22 C         -29.2058    4.1706   31.3614 C.ar    1  UNL1        0.0045
     23 O         -27.2422    4.7883   28.4379 O.2     1  UNL1       -0.2695
     24 C         -26.1351    4.8856   32.8246 C.2     1  UNL1       -0.0043
     25 C         -25.6789    3.9916   33.2894 C.2     1  UNL1       -0.0031
@<TRIPOS>BOND
     1     3     7    1
     2     7     8   am
     3     4    10    1
     4     9    10    1
     5     7    11    2
     6    10    12    1
     7    12    13    2
     8    12    14   am
     9    14    15    1
    10    14    16   am
    11    16    17    1
    12    16    23    2
    13    15    24    1
    14    24    25    2
    15     9     8    1
    16    17    18   ar
    17    18    19   ar
    18    19    20   ar
    19    20    21   ar
    20    21    22   ar
    21    22    17   ar
    22     1     2   ar
    23     2     5   ar
    24     5     6   ar
    25     6     4   ar
    26     4     3   ar
    27     3     1   ar
