@<TRIPOS>MOLECULE
No_1757-gen_results/8p0m/2024-11-26-14-13-15/
 16 17 0 0 0
SMALL
GASTEIGER

@<TRIPOS>ATOM
      1 C         -28.0162   -0.8135   28.8779 C.ar    1  UNL1        0.0312
      2 C         -28.4690   -0.7850   29.8287 C.ar    1  UNL1        0.1402
      3 C         -26.5042   -0.7777   28.8766 C.ar    1  UNL1        0.0215
      4 C         -25.6540   -0.6597   27.7191 C.ar    1  UNL1        0.1004
      5 C         -27.9180   -0.9374   31.1824 C.ar    1  UNL1        0.0296
      6 C         -26.5423   -0.9399   31.2606 C.ar    1  UNL1        0.0024
      7 C         -25.7832   -0.8935   30.1201 C.ar    1  UNL1        0.0045
      8 N         -24.3632   -0.5034   27.8686 N.ar    1  UNL1       -0.2277
      9 C         -23.6823   -0.6782   29.0280 C.ar    1  UNL1        0.1480
     10 C         -24.3893   -0.7737   30.2235 C.ar    1  UNL1        0.0358
     11 N         -22.3271   -0.5331   29.0212 N.pl3   1  UNL1       -0.2081
     12 C         -21.4890    0.4460   28.5766 C.3     1  UNL1        0.2272
     13 C         -22.0597    1.7317   28.0928 C.2     1  UNL1        0.3865
     14 O         -21.6065    2.1671   26.9430 O.co2   1  UNL1       -0.2437
     15 O         -23.0762    2.2122   28.6435 O.co2   1  UNL1       -0.2437
     16 F         -29.8980   -0.8612   29.8627 F       1  UNL1       -0.2042
@<TRIPOS>BOND
     1     9    11    1
     2    11    12    1
     3    12    13    1
     4    13    14   ar
     5    13    15   ar
     6     2    16    1
     7     1     2   ar
     8     2     5   ar
     9     5     6   ar
    10     6     7   ar
    11     3     1   ar
    12     3     4   ar
    13     4     8   ar
    14     8     9   ar
    15     9    10   ar
    16    10     7   ar
    17     7     3   ar
