@<TRIPOS>MOLECULE
No_1758-gen_results/8p0m/2024-11-26-14-13-15/
 13 13 0 0 0
SMALL
GASTEIGER

@<TRIPOS>ATOM
      1 C         -28.0162   -0.8135   28.8779 C.ar    1  UNL1        0.0327
      2 C         -28.4690   -0.7850   29.8287 C.ar    1  UNL1        0.0392
      3 C         -26.5455   -0.8762   28.8500 C.ar    1  UNL1        0.1400
      4 C         -25.8041   -1.0324   30.0571 C.ar    1  UNL1        0.0262
      5 C         -26.5373   -1.0386   31.2171 C.ar    1  UNL1        0.0388
      6 C         -27.8929   -0.9601   31.1743 C.ar    1  UNL1        0.1389
      7 F         -25.8272   -0.8507   27.7418 F       1  UNL1       -0.2042
      8 O         -28.6209   -0.9354   32.3468 O.3     1  UNL1       -0.4714
      9 C         -29.3026   -1.9617   32.7088 C.3     1  UNL1        0.2525
     10 C         -24.3745   -1.3075   30.1357 C.2     1  UNL1       -0.0238
     11 C         -23.5275   -1.1127   30.7579 C.2     1  UNL1       -0.0300
     12 C         -23.8448   -0.1456   31.9305 C.3     1  UNL1        0.0304
     13 C         -23.9811   -1.8126   28.8493 C.3     1  UNL1        0.0308
@<TRIPOS>BOND
     1     3     7    1
     2     6     8    1
     3     8     9    1
     4     4    10    1
     5    10    11    2
     6    11    12    1
     7    10    13    1
     8     1     2   ar
     9     2     6   ar
    10     6     5   ar
    11     5     4   ar
    12     4     3   ar
    13     3     1   ar
