@<TRIPOS>MOLECULE
No_1759-gen_results/8p0m/2024-11-26-14-13-15/
 17 18 0 0 0
SMALL
GASTEIGER

@<TRIPOS>ATOM
      1 C         -28.0162   -0.8135   28.8779 C.ar    1  UNL1        0.0001
      2 C         -27.0636   -0.1189   28.6079 C.ar    1  UNL1        0.0044
      3 C         -26.9716    0.7139   27.5060 C.ar    1  UNL1        0.0553
      4 C         -25.8205    1.4909   27.1160 C.ar    1  UNL1        0.0126
      5 C         -24.6562    1.4242   27.9180 C.ar    1  UNL1        0.0976
      6 C         -24.6847    0.5901   29.0659 C.ar    1  UNL1        0.0080
      7 C         -25.8099   -0.1265   29.3338 C.ar    1  UNL1        0.0004
      8 C         -28.0445   -1.5734   30.1690 C.ar    1  UNL1        0.0000
      9 C         -26.8172   -1.7595   30.8704 C.ar    1  UNL1        0.0000
     10 C         -25.7477   -0.9917   30.5376 C.ar    1  UNL1        0.0000
     11 C         -23.3500    1.8408   27.5433 C.2     1  UNL1        0.4766
     12 N         -22.2411    1.6530   28.2435 N.pl3   1  UNL1        0.2047
     13 N         -23.2359    2.6922   26.4265 N.pl3   1  UNL1        0.2047
     14 C         -28.0891    0.8406   26.5439 C.2     1  UNL1        0.2648
     15 N         -27.9728    0.8235   25.3162 N.am    1  UNL1       -0.1998
     16 O         -29.2423    0.4805   27.0310 O.2     1  UNL1       -0.2684
     17 C         -28.9497    0.7986   24.2934 C.3     1  UNL1        0.1388
@<TRIPOS>BOND
     1     5    11    1
     2    11    12    2
     3    11    13    1
     4     3    14    1
     5    14    15   am
     6    14    16    2
     7    15    17    1
     8     2     3   ar
     9     3     4   ar
    10     4     5   ar
    11     5     6   ar
    12     6     7   ar
    13     1     2   ar
    14     2     7   ar
    15     7    10   ar
    16    10     9   ar
    17     9     8   ar
    18     8     1   ar
