@<TRIPOS>MOLECULE
No_1761-gen_results/8p0m/2024-11-26-14-13-15/
 26 28 0 0 0
SMALL
GASTEIGER

@<TRIPOS>ATOM
      1 C         -28.0162   -0.8135   28.8779 C.ar    1  UNL1        0.0015
      2 C         -27.0636   -0.1190   28.6079 C.ar    1  UNL1        0.0000
      3 C         -25.7923   -0.4302   29.0761 C.ar    1  UNL1        0.0000
      4 C         -25.5756   -1.5654   29.9363 C.ar    1  UNL1        0.0000
      5 C         -26.7354   -2.3004   30.2173 C.ar    1  UNL1        0.0015
      6 C         -27.9184   -1.9537   29.7629 C.ar    1  UNL1        0.0191
      7 C         -27.1057    1.1023   27.7593 C.ar    1  UNL1        0.0000
      8 C         -26.7157    2.2350   27.9945 C.ar    1  UNL1        0.0000
      9 C         -26.6929    3.3459   27.0337 C.ar    1  UNL1        0.0000
     10 C         -27.1962    3.0779   25.7437 C.ar    1  UNL1        0.0000
     11 C         -27.5814    0.8882   26.3714 C.ar    1  UNL1        0.0000
     12 C         -27.6131    1.8443   25.4645 C.ar    1  UNL1        0.0000
     13 C         -29.0617   -2.7801   30.2115 C.2     1  UNL1        0.0987
     14 N         -28.9588   -4.0501   30.5304 N.2     1  UNL1       -0.2401
     15 C         -29.7177   -4.7992   30.5538 C.2     1  UNL1        0.1507
     16 C         -29.9009   -5.7824   31.5499 C.2     1  UNL1        0.0262
     17 C         -30.6090   -5.0806   29.3823 C.3     1  UNL1        0.4346
     18 C         -29.1906   -5.6782   32.7844 C.3     1  UNL1        0.1434
     19 F         -30.9987   -6.2768   29.2057 F       1  UNL1       -0.1644
     20 C         -29.6362   -6.5170   33.8595 C.3     1  UNL1        0.0599
     21 C         -29.3314   -6.2219   35.1194 C.2     1  UNL1       -0.0253
     22 F         -29.8690   -4.7231   28.2946 F       1  UNL1       -0.1644
     23 F         -31.6342   -4.2607   29.4068 F       1  UNL1       -0.1644
     24 C         -29.0484   -4.8613   35.4136 C.2     1  UNL1        0.0012
     25 C         -29.0285   -3.9149   34.3587 C.3     1  UNL1        0.1684
     26 O         -29.6168   -4.2409   33.1585 O.3     1  UNL1       -0.3467
@<TRIPOS>BOND
     1     2     7    1
     2     6    13    1
     3    13    14    2
     4    14    15    1
     5    15    16    2
     6    15    17    1
     7    16    18    1
     8    17    19    1
     9    18    20    1
    10    20    21    1
    11    17    22    1
    12    17    23    1
    13    21    24    2
    14    24    25    1
    15    18    26    1
    16    25    26    1
    17     7     8   ar
    18     8     9   ar
    19     9    10   ar
    20    10    12   ar
    21    12    11   ar
    22    11     7   ar
    23     1     2   ar
    24     2     3   ar
    25     3     4   ar
    26     4     5   ar
    27     5     6   ar
    28     6     1   ar
