@<TRIPOS>MOLECULE
No_1764-gen_results/8p0m/2024-11-26-14-13-15/
 12 12 0 0 0
SMALL
GASTEIGER

@<TRIPOS>ATOM
      1 C         -28.0162   -0.8135   28.8779 C.ar    1  UNL1        0.0384
      2 C         -27.0636   -0.1189   28.6079 C.ar    1  UNL1        0.0145
      3 C         -25.7923   -0.4302   29.0761 C.ar    1  UNL1        0.0579
      4 C         -25.5756   -1.5654   29.9363 C.ar    1  UNL1        0.0145
      5 C         -26.7354   -2.3004   30.2173 C.ar    1  UNL1        0.0384
      6 C         -27.9184   -1.9537   29.7629 C.ar    1  UNL1        0.1457
      7 O         -29.0001   -2.7012   30.1151 O.3     1  UNL1       -0.4456
      8 CL        -24.4871    0.6533   28.7232 Cl      1  UNL1       -0.0822
      9 C         -30.0950   -2.0926   30.6180 C.2     1  UNL1        0.2396
     10 C         -30.7124   -2.8752   31.5788 C.2     1  UNL1        0.3160
     11 F         -30.6123   -3.9542   31.7232 F       1  UNL1       -0.1685
     12 F         -30.3621   -2.3164   32.8590 F       1  UNL1       -0.1685
@<TRIPOS>BOND
     1     6     7    1
     2     3     8    1
     3     7     9    1
     4     9    10    2
     5    10    11    1
     6    10    12    1
     7     1     2   ar
     8     2     3   ar
     9     3     4   ar
    10     4     5   ar
    11     5     6   ar
    12     6     1   ar
