@<TRIPOS>MOLECULE
No_1766-gen_results/8p0m/2024-11-26-14-13-15/
 20 20 0 0 0
SMALL
GASTEIGER

@<TRIPOS>ATOM
      1 C         -28.0162   -0.8135   28.8779 C.3     1  UNL1        0.0240
      2 C         -28.4690   -0.7850   29.8287 C.3     1  UNL1        0.0307
      3 C         -26.5042   -0.7777   28.8766 C.3     1  UNL1        0.0936
      4 N         -25.8552   -1.6534   29.6136 N.am    1  UNL1       -0.2771
      5 C         -28.1381   -1.8885   30.9026 C.3     1  UNL1        0.1111
      6 C         -26.5964   -2.0371   30.8532 C.3     1  UNL1        0.1204
      7 C         -24.6190   -2.1182   29.4263 C.2     1  UNL1        0.2257
      8 C         -23.4883   -1.4744   30.0916 C.3     1  UNL1        0.0853
      9 O         -24.3910   -3.2249   28.8374 O.2     1  UNL1       -0.2749
     10 C         -22.5686   -0.8159   29.1642 C.3     1  UNL1        0.0096
     11 C         -22.0239    0.5035   29.5741 C.3     1  UNL1        0.0005
     12 C         -21.8257    1.2247   28.3260 C.3     1  UNL1        0.0000
     13 O         -28.6712   -3.1319   30.6069 O.3     1  UNL1       -0.3565
     14 C         -28.4617   -1.5764   32.3765 C.3     1  UNL1        0.0314
     15 C         -28.5049   -4.2219   31.3453 C.3     1  UNL1        0.1467
     16 C         -29.8418   -5.1565   31.1922 C.3     1  UNL1        0.0581
     17 C         -30.0867   -5.8452   32.2104 C.2     1  UNL1       -0.0235
     18 C         -30.1460   -5.4575   33.3714 C.2     1  UNL1       -0.0045
     19 C         -30.4675   -6.3020   34.5437 C.2     1  UNL1       -0.0003
     20 C         -30.7964   -7.5990   34.2836 C.2     1  UNL1       -0.0000
@<TRIPOS>BOND
     1     1     2    1
     2     1     3    1
     3     3     4    1
     4     2     5    1
     5     4     6    1
     6     5     6    1
     7     4     7   am
     8     7     8    1
     9     7     9    2
    10     8    10    1
    11    10    11    1
    12    11    12    1
    13     5    13    1
    14     5    14    1
    15    13    15    1
    16    15    16    1
    17    16    17    1
    18    17    18    2
    19    18    19    1
    20    19    20    2
