@<TRIPOS>MOLECULE
No_1767-gen_results/8p0m/2024-11-26-14-13-15/
 23 23 0 0 0
SMALL
GASTEIGER

@<TRIPOS>ATOM
      1 C         -28.0162   -0.8135   28.8779 C.3     1  UNL1        0.1417
      2 C         -27.0636   -0.1189   28.6079 C.ar    1  UNL1       -0.0003
      3 C         -26.9287    1.1713   29.0083 C.ar    1  UNL1        0.0041
      4 C         -25.7702    2.0341   28.6884 C.ar    1  UNL1        0.0806
      5 C         -24.7141    1.4431   27.9188 C.ar    1  UNL1        0.0196
      6 C         -24.8590    0.0783   27.5836 C.ar    1  UNL1        0.0011
      7 C         -25.9647   -0.6606   27.9164 C.ar    1  UNL1       -0.0025
      8 N         -28.7025   -0.6427   30.0750 N.am    1  UNL1       -0.1935
      9 C         -29.5716   -1.0828   30.6278 C.2     1  UNL1        0.3370
     10 C         -30.2490   -2.1905   30.0523 C.3     1  UNL1        0.4711
     11 O         -30.1129   -0.7040   31.7731 O.2     1  UNL1       -0.2642
     12 C         -23.5281    2.1784   27.5646 C.2     1  UNL1        0.0585
     13 N         -22.3795    2.1950   27.7661 N.2     1  UNL1       -0.2267
     14 C         -23.8642    3.0816   26.3361 C.3     1  UNL1        0.0518
     15 F         -31.2461   -2.5910   31.0856 F       1  UNL1       -0.1620
     16 F         -30.9037   -1.8802   29.0454 F       1  UNL1       -0.1620
     17 F         -29.5050   -3.2324   29.9132 F       1  UNL1       -0.1620
     18 C         -21.9444    1.2824   28.7486 C.3     1  UNL1        0.3589
     19 F         -22.5525    1.1269   29.7291 F       1  UNL1       -0.1878
     20 N         -21.5602   -0.0156   28.0613 N.3     1  UNL1       -0.0702
     21 C         -25.6763    3.4115   29.0987 C.2     1  UNL1        0.3878
     22 O         -24.9792    3.7170   29.9807 O.co2   1  UNL1       -0.2406
     23 O         -26.5778    4.1822   28.6243 O.co2   1  UNL1       -0.2406
@<TRIPOS>BOND
     1     1     2    1
     2     1     8    1
     3     8     9   am
     4     9    10    1
     5     9    11    2
     6     5    12    1
     7    12    13    2
     8    12    14    1
     9    10    15    1
    10    10    16    1
    11    10    17    1
    12    13    18    1
    13    18    19    1
    14    18    20    1
    15     4    21    1
    16    21    22   ar
    17    21    23   ar
    18     2     3   ar
    19     3     4   ar
    20     4     5   ar
    21     5     6   ar
    22     6     7   ar
    23     7     2   ar
