@<TRIPOS>MOLECULE
No_1768-gen_results/8p0m/2024-11-26-14-13-15/
 28 31 0 0 0
SMALL
GASTEIGER

@<TRIPOS>ATOM
      1 C         -28.0162   -0.8135   28.8779 C.ar    1  UNL1        0.0000
      2 C         -28.4690   -0.7850   29.8287 C.ar    1  UNL1        0.0001
      3 C         -27.0871    0.2903   28.6377 C.ar    1  UNL1        0.0001
      4 C         -26.8317    1.2487   29.5869 C.ar    1  UNL1        0.0046
      5 C         -28.3914    0.0801   31.0065 C.ar    1  UNL1        0.0046
      6 C         -27.4940    1.1521   30.7841 C.ar    1  UNL1        0.0551
      7 C         -26.3109    0.3918   27.3640 C.ar    1  UNL1        0.0000
      8 C         -26.7673    1.0252   26.3723 C.ar    1  UNL1        0.0000
      9 C         -26.0109    1.0160   25.1236 C.ar    1  UNL1        0.0000
     10 C         -25.0722   -0.2317   27.3154 C.ar    1  UNL1        0.0000
     11 C         -24.2244   -0.1269   26.2435 C.ar    1  UNL1        0.0000
     12 C         -24.7408    0.4870   25.0666 C.ar    1  UNL1        0.0000
     13 C         -24.4769   -0.9299   28.5021 C.ar    1  UNL1        0.0000
     14 C         -24.1346   -1.9097   28.9356 C.ar    1  UNL1        0.0000
     15 C         -23.5889   -2.2417   30.1644 C.ar    1  UNL1        0.0000
     16 C         -23.6458   -1.1960   31.1519 C.ar    1  UNL1        0.0000
     17 C         -24.3782    0.1311   29.7513 C.ar    1  UNL1        0.0000
     18 C         -23.8864   -0.0539   30.8959 C.ar    1  UNL1        0.0000
     19 C         -27.3337    2.1967   31.8673 C.2     1  UNL1        0.2651
     20 N         -26.4903    3.0821   31.6952 N.am    1  UNL1       -0.1968
     21 C         -25.8989    3.6972   32.7095 C.3     1  UNL1        0.1418
     22 C         -25.6408    5.0515   32.6892 C.ar    1  UNL1       -0.0006
     23 C         -26.8158    5.8289   32.3912 C.ar    1  UNL1       -0.0026
     24 C         -26.5930    7.1756   32.1058 C.ar    1  UNL1       -0.0003
     25 O         -28.2296    2.3418   32.7162 O.2     1  UNL1       -0.2684
     26 C         -25.8538    7.5141   31.4164 C.ar    1  UNL1       -0.0000
     27 C         -24.4626    6.8061   31.4540 C.ar    1  UNL1       -0.0003
     28 C         -24.5428    5.3744   31.6297 C.ar    1  UNL1       -0.0026
@<TRIPOS>BOND
     1     3     7    1
     2    10    13    1
     3     6    19    1
     4    19    20   am
     5    20    21    1
     6    19    25    2
     7    21    22    1
     8    13    14   ar
     9    14    15   ar
    10    15    16   ar
    11    16    18   ar
    12    18    17   ar
    13    17    13   ar
    14    22    23   ar
    15    23    24   ar
    16    24    26   ar
    17    26    27   ar
    18    27    28   ar
    19    28    22   ar
    20     1     2   ar
    21     2     5   ar
    22     5     6   ar
    23     6     4   ar
    24     4     3   ar
    25     3     1   ar
    26     7     8   ar
    27     8     9   ar
    28     9    12   ar
    29    12    11   ar
    30    11    10   ar
    31    10     7   ar
