@<TRIPOS>MOLECULE
No_1769-gen_results/8p0m/2024-11-26-14-13-15/
 23 25 0 0 0
SMALL
GASTEIGER

@<TRIPOS>ATOM
      1 C         -28.0162   -0.8135   28.8779 C.ar    1  UNL1       -0.0006
      2 C         -28.4690   -0.7850   29.8287 C.ar    1  UNL1       -0.0130
      3 C         -28.1816    0.4277   28.1134 C.ar    1  UNL1        0.0387
      4 C         -28.9841    1.4155   28.5154 C.ar    1  UNL1        0.0032
      5 C         -28.3375   -2.0481   30.7873 C.3     1  UNL1        0.1116
      6 C         -29.5615    1.2930   29.7416 C.ar    1  UNL1       -0.0002
      7 C         -29.3196    0.1647   30.4451 C.ar    1  UNL1       -0.0038
      8 C         -28.8934   -3.2654   30.5086 C.2     1  UNL1        0.2301
      9 N         -29.9513   -3.5217   30.3081 N.am    1  UNL1       -0.2793
     10 O         -27.9462   -4.2312   30.1359 O.2     1  UNL1       -0.2745
     11 C         -31.0576   -2.5983   30.6993 C.3     1  UNL1        0.0934
     12 C         -32.3599   -3.0351   30.2337 C.3     1  UNL1        0.0216
     13 C         -30.6491   -4.7795   30.0943 C.3     1  UNL1        0.0934
     14 C         -31.7866   -5.0269   29.5026 C.3     1  UNL1        0.0216
     15 C         -32.7356   -4.1530   29.7523 C.3     1  UNL1        0.0035
     16 C         -27.5018    0.5060   26.7204 C.2     1  UNL1        0.1955
     17 C         -26.4452    1.1893   26.6265 C.ar    1  UNL1        0.0390
     18 C         -25.8326    1.9160   27.4506 C.ar    1  UNL1        0.0032
     19 C         -24.5346    2.5315   27.2058 C.ar    1  UNL1        0.0001
     20 C         -23.8872    2.2009   26.0123 C.ar    1  UNL1        0.0000
     21 C         -25.3919    0.6760   25.6532 C.ar    1  UNL1        0.0032
     22 C         -24.2810    1.2164   25.2757 C.ar    1  UNL1        0.0001
     23 O         -28.2541    0.0702   25.7898 O.2     1  UNL1       -0.2866
@<TRIPOS>BOND
     1     2     5    1
     2     5     8    1
     3     8     9   am
     4     8    10    2
     5     9    11    1
     6     9    13    1
     7    12    15    1
     8    14    15    1
     9     3    16    1
    10    16    17    1
    11    16    23    2
    12    11    12    1
    13    14    13    1
    14    17    18   ar
    15    18    19   ar
    16    19    20   ar
    17    20    22   ar
    18    22    21   ar
    19    21    17   ar
    20     1     2   ar
    21     2     7   ar
    22     7     6   ar
    23     6     4   ar
    24     4     3   ar
    25     3     1   ar
