@<TRIPOS>MOLECULE
No_177-gen_results/8p0m/2024-11-26-14-13-15/
 11 12 0 0 0
SMALL
GASTEIGER

@<TRIPOS>ATOM
      1 C         -28.0162   -0.8135   28.8779 C.3     1  UNL1        0.0198
      2 C         -27.0636   -0.1189   28.6079 C.3     1  UNL1        0.0743
      3 N         -26.9849    0.5972   27.5218 N.pl3   1  UNL1       -0.2909
      4 C         -28.6850   -0.3903   30.0601 C.3     1  UNL1        0.0017
      5 C         -27.9630   -0.3835   31.2456 C.3     1  UNL1        0.0001
      6 C         -26.7121    0.4689   31.1176 C.3     1  UNL1        0.0017
      7 C         -26.1658    0.3138   29.7000 C.3     1  UNL1        0.0198
      8 C         -27.3641    1.3852   26.9132 C.2     1  UNL1        0.1588
      9 N         -26.9556    1.6561   25.6350 N.2     1  UNL1       -0.2521
     10 C         -25.7805    0.0919   26.5857 C.3     1  UNL1        0.1184
     11 C         -25.8697    0.8268   25.4808 C.3     1  UNL1        0.1484
@<TRIPOS>BOND
     1     1     2    1
     2     2     3    1
     3     1     4    1
     4     4     5    1
     5     5     6    1
     6     2     7    1
     7     6     7    1
     8     3     8    1
     9     8     9    2
    10     3    10    1
    11     9    11    1
    12    10    11    1
