@<TRIPOS>MOLECULE
No_1771-gen_results/8p0m/2024-11-26-14-13-15/
 14 15 0 0 0
SMALL
GASTEIGER

@<TRIPOS>ATOM
      1 C         -28.0162   -0.8135   28.8779 C.ar    1  UNL1       -0.0039
      2 C         -27.0636   -0.1189   28.6079 C.ar    1  UNL1       -0.0177
      3 C         -26.9287    1.1713   29.0083 C.ar    1  UNL1       -0.0039
      4 C         -27.9560    1.7411   29.7840 C.ar    1  UNL1       -0.0003
      5 C         -29.0569   -0.3271   29.7466 C.ar    1  UNL1       -0.0003
      6 C         -28.9828    0.9722   30.1516 C.ar    1  UNL1       -0.0000
      7 C         -25.8907   -0.6263   27.7857 C.3     1  UNL1        0.0549
      8 C         -24.5686   -0.1994   28.1996 C.ar    1  UNL1        0.0097
      9 C         -23.6406   -0.6993   28.6892 C.ar    1  UNL1        0.1365
     10 C         -22.3404   -0.0990   28.9706 C.ar    1  UNL1        0.0293
     11 C         -22.2184    1.2278   28.4794 C.ar    1  UNL1        0.0023
     12 C         -24.2283    1.2602   27.8314 C.ar    1  UNL1       -0.0017
     13 C         -23.1278    1.8708   27.9863 C.ar    1  UNL1       -0.0002
     14 F         -23.6701   -2.0179   29.0913 F       1  UNL1       -0.2045
@<TRIPOS>BOND
     1     2     7    1
     2     7     8    1
     3     9    14    1
     4     1     2   ar
     5     2     3   ar
     6     3     4   ar
     7     4     6   ar
     8     6     5   ar
     9     5     1   ar
    10     8     9   ar
    11     9    10   ar
    12    10    11   ar
    13    11    13   ar
    14    13    12   ar
    15    12     8   ar
