@<TRIPOS>MOLECULE
No_1772-gen_results/8p0m/2024-11-26-14-13-15/
 32 35 0 0 0
SMALL
GASTEIGER

@<TRIPOS>ATOM
      1 C         -28.0162   -0.8135   28.8779 C.ar    1  UNL1        0.0045
      2 C         -28.4690   -0.7850   29.8287 C.ar    1  UNL1        0.0536
      3 C         -26.5042   -0.7777   28.8766 C.ar    1  UNL1        0.0001
      4 C         -25.8103   -0.8531   30.1028 C.ar    1  UNL1        0.0000
      5 C         -27.9906   -0.8916   31.2257 C.ar    1  UNL1        0.0045
      6 C         -26.6042   -0.8676   31.2652 C.ar    1  UNL1        0.0001
      7 C         -24.3894   -0.8049   30.1638 C.ar    1  UNL1        0.0000
      8 C         -23.7660   -0.9500   31.0679 C.ar    1  UNL1        0.0000
      9 C         -22.2665   -0.8379   31.2250 C.ar    1  UNL1        0.0000
     10 C         -21.6701   -0.5264   30.0648 C.ar    1  UNL1        0.0000
     11 C         -23.6437   -0.4433   28.9621 C.ar    1  UNL1        0.0000
     12 C         -22.3479   -0.3035   28.9177 C.ar    1  UNL1        0.0000
     13 C         -30.0912   -0.7849   29.8442 C.2     1  UNL1        0.2490
     14 O         -30.4954   -0.3206   28.8800 O.2     1  UNL1       -0.2699
     15 N         -30.7879   -1.6440   30.6780 N.am    1  UNL1       -0.2750
     16 C         -32.2056   -1.7168   30.5460 C.3     1  UNL1        0.1028
     17 C         -32.6935   -2.7925   30.8491 C.3     1  UNL1        0.0989
     18 C         -32.0156   -3.7898   31.6290 C.3     1  UNL1        0.0239
     19 C         -30.5565   -3.7334   31.7069 C.3     1  UNL1        0.1237
     20 C         -30.0160   -2.7276   31.1752 C.3     1  UNL1        0.1049
     21 C         -29.8971   -4.8788   32.3525 C.2     1  UNL1        0.3660
     22 O         -30.2639   -5.9779   32.1358 O.co2   1  UNL1       -0.2456
     23 O         -28.7293   -4.6909   32.8995 O.co2   1  UNL1       -0.2456
     24 C         -34.2194   -2.9781   30.8739 C.2     1  UNL1        0.2468
     25 O         -34.8424   -3.5662   31.5104 O.2     1  UNL1       -0.2729
     26 N         -34.7926   -2.0119   30.0235 N.am    1  UNL1       -0.1792
     27 C         -36.2239   -2.0191   29.7966 C.ar    1  UNL1        0.0734
     28 C         -36.6046   -1.2485   28.9075 C.ar    1  UNL1        0.0166
     29 C         -37.8246   -0.9351   28.6170 C.ar    1  UNL1        0.0013
     30 C         -38.8383   -1.6925   29.3908 C.ar    1  UNL1        0.0001
     31 C         -38.4170   -2.5592   30.3436 C.ar    1  UNL1        0.0013
     32 C         -37.0947   -2.6819   30.6442 C.ar    1  UNL1        0.0166
@<TRIPOS>BOND
     1     4     7    1
     2     2    13    1
     3    13    14    2
     4    13    15   am
     5    15    16    1
     6    17    18    1
     7    15    20    1
     8    19    20    1
     9    19    21    1
    10    21    22   ar
    11    21    23   ar
    12    17    24    1
    13    24    25    2
    14    24    26   am
    15    26    27    1
    16    16    17    1
    17    18    19    1
    18     7     8   ar
    19     8     9   ar
    20     9    10   ar
    21    10    12   ar
    22    12    11   ar
    23    11     7   ar
    24    27    28   ar
    25    28    29   ar
    26    29    30   ar
    27    30    31   ar
    28    31    32   ar
    29    32    27   ar
    30     1     2   ar
    31     2     5   ar
    32     5     6   ar
    33     6     4   ar
    34     4     3   ar
    35     3     1   ar
