@<TRIPOS>MOLECULE
No_1773-gen_results/8p0m/2024-11-26-14-13-15/
 29 31 0 0 0
SMALL
GASTEIGER

@<TRIPOS>ATOM
      1 C         -28.0162   -0.8135   28.8779 C.3     1  UNL1        0.0308
      2 C         -27.0636   -0.1189   28.6079 C.ar    1  UNL1       -0.0239
      3 C         -26.9716    0.7139   27.5060 C.ar    1  UNL1       -0.0025
      4 C         -25.8205    1.4910   27.1160 C.ar    1  UNL1        0.0012
      5 C         -24.6562    1.4242   27.9180 C.ar    1  UNL1        0.0712
      6 C         -24.7114    0.5419   29.0507 C.ar    1  UNL1        0.0035
      7 C         -25.8042   -0.2058   29.3881 C.ar    1  UNL1       -0.0046
      8 C         -28.6958   -0.4989   30.1325 C.3     1  UNL1        0.0310
      9 C         -29.8501   -1.3254   30.5771 C.ar    1  UNL1       -0.0218
     10 C         -30.8391   -1.1037   30.7567 C.ar    1  UNL1       -0.0043
     11 C         -31.9113   -2.0747   31.1821 C.ar    1  UNL1       -0.0003
     12 C         -31.5096   -3.4047   31.2170 C.ar    1  UNL1       -0.0000
     13 C         -30.2262   -3.7872   30.9227 C.ar    1  UNL1       -0.0003
     14 C         -29.2820   -2.7949   30.5959 C.ar    1  UNL1       -0.0043
     15 C         -23.4400    2.1508   27.6392 C.3     1  UNL1        0.4186
     16 F         -22.5960    2.0875   28.4828 F       1  UNL1       -0.1659
     17 F         -23.7074    3.4892   27.4637 F       1  UNL1       -0.1659
     18 F         -22.9379    1.7527   26.4141 F       1  UNL1       -0.1659
     19 C         -28.1263    0.8858   26.6370 C.3     1  UNL1        0.1360
     20 N         -28.1820    0.4017   25.4498 N.pl3   1  UNL1       -0.2305
     21 C         -29.2783    0.0294   24.8221 C.ar    1  UNL1        0.0660
     22 C         -28.6652    2.3184   26.5699 C.2     1  UNL1       -0.0052
     23 C         -30.5009    0.2024   25.4816 C.ar    1  UNL1        0.0161
     24 C         -31.6167   -0.2703   25.0233 C.ar    1  UNL1        0.0013
     25 C         -31.5307   -0.9476   23.7688 C.ar    1  UNL1        0.0001
     26 C         -30.3764   -1.1667   23.1222 C.ar    1  UNL1        0.0013
     27 C         -29.2150   -0.7076   23.6480 C.ar    1  UNL1        0.0161
     28 C         -29.4892    2.8054   27.5822 C.2     1  UNL1       -0.0283
     29 C         -29.8893    4.1069   27.6469 C.3     1  UNL1        0.0304
@<TRIPOS>BOND
     1     1     8    1
     2     8     9    1
     3     5    15    1
     4    15    16    1
     5    15    17    1
     6    15    18    1
     7     3    19    1
     8    19    20    1
     9    19    22    1
    10    22    28    2
    11    28    29    1
    12     1     2    1
    13    20    21    1
    14     2     3   ar
    15     3     4   ar
    16     4     5   ar
    17     5     6   ar
    18     6     7   ar
    19     7     2   ar
    20     9    10   ar
    21    10    11   ar
    22    11    12   ar
    23    12    13   ar
    24    13    14   ar
    25    14     9   ar
    26    21    23   ar
    27    23    24   ar
    28    24    25   ar
    29    25    26   ar
    30    26    27   ar
    31    27    21   ar
