@<TRIPOS>MOLECULE
No_1774-gen_results/8p0m/2024-11-26-14-13-15/
 34 37 0 0 0
SMALL
GASTEIGER

@<TRIPOS>ATOM
      1 C         -28.0162   -0.8135   28.8779 C.ar    1  UNL1        0.0372
      2 C         -27.0636   -0.1189   28.6079 C.ar    1  UNL1       -0.0006
      3 C         -25.7647   -0.3897   29.0360 C.ar    1  UNL1       -0.0109
      4 C         -25.5296   -1.5302   29.9014 C.ar    1  UNL1       -0.0006
      5 C         -26.6888   -2.2893   30.1810 C.ar    1  UNL1        0.0372
      6 C         -27.8727   -1.9508   29.7373 C.ar    1  UNL1        0.1453
      7 C         -24.4208    0.2303   28.7927 C.3     1  UNL1        0.1251
      8 C         -24.3142    1.1690   27.8085 C.ar    1  UNL1       -0.0111
      9 C         -25.0962    1.7314   27.0450 C.ar    1  UNL1       -0.0037
     10 C         -24.6937    2.6499   26.0468 C.ar    1  UNL1       -0.0003
     11 C         -23.3397    2.9622   25.8563 C.ar    1  UNL1       -0.0000
     12 C         -22.8371    1.5803   27.6500 C.ar    1  UNL1       -0.0037
     13 C         -22.4808    2.4919   26.7179 C.ar    1  UNL1       -0.0003
     14 C         -23.7983    0.6853   30.0727 C.3     1  UNL1        0.4039
     15 O         -28.9595   -2.6992   30.0444 O.3     1  UNL1       -0.4535
     16 C         -30.0876   -2.1420   30.5320 C.ar    1  UNL1        0.1453
     17 C         -31.1786   -2.7921   30.1459 C.ar    1  UNL1        0.0375
     18 C         -32.4726   -2.2068   30.3759 C.ar    1  UNL1        0.0031
     19 C         -32.5001   -1.0166   31.1710 C.ar    1  UNL1       -0.0001
     20 C         -31.3405   -0.4555   31.5960 C.ar    1  UNL1       -0.0007
     21 C         -30.0869   -0.9625   31.2605 C.ar    1  UNL1        0.0372
     22 C         -23.5493   -1.0259   28.2552 C.3     1  UNL1        0.0174
     23 C         -33.8463   -0.4708   31.5363 C.ar    1  UNL1       -0.0000
     24 C         -33.9234    0.1316   32.6868 C.ar    1  UNL1       -0.0003
     25 C         -32.7194    0.8028   33.1983 C.ar    1  UNL1       -0.0040
     26 C         -31.4444    0.5203   32.7284 C.ar    1  UNL1       -0.0136
     27 C         -30.2421    1.0924   33.2925 C.3     1  UNL1        0.1297
     28 C         -29.6761    2.1217   32.6393 C.3     1  UNL1        0.4017
     29 F         -30.2214    2.6889   31.7898 F       1  UNL1       -0.1697
     30 F         -29.3229    3.1015   33.5751 F       1  UNL1       -0.1697
     31 F         -28.3879    1.7233   32.1878 F       1  UNL1       -0.1697
     32 F         -24.2107    0.4491   31.0491 F       1  UNL1       -0.1693
     33 F         -23.8972    2.0975   30.0127 F       1  UNL1       -0.1693
     34 F         -22.4777    0.4532   30.1218 F       1  UNL1       -0.1693
@<TRIPOS>BOND
     1     3     7    1
     2     7     8    1
     3     7    14    1
     4     6    15    1
     5    15    16    1
     6     7    22    1
     7    26    27    1
     8    27    28    1
     9    28    29    1
    10    28    30    1
    11    28    31    1
    12    14    32    1
    13    14    33    1
    14    14    34    1
    15     1     2   ar
    16     2     3   ar
    17     3     4   ar
    18     4     5   ar
    19     5     6   ar
    20     6     1   ar
    21    16    17   ar
    22    17    18   ar
    23    18    19   ar
    24    20    21   ar
    25    21    16   ar
    26    19    20   ar
    27    20    26   ar
    28    26    25   ar
    29    25    24   ar
    30    24    23   ar
    31    23    19   ar
    32     8     9   ar
    33     9    10   ar
    34    10    11   ar
    35    11    13   ar
    36    13    12   ar
    37    12     8   ar
