@<TRIPOS>MOLECULE
No_1775-gen_results/8p0m/2024-11-26-14-13-15/
 10 10 0 0 0
SMALL
GASTEIGER

@<TRIPOS>ATOM
      1 C         -28.0162   -0.8135   28.8779 C.ar    1  UNL1        0.0806
      2 C         -27.0636   -0.1190   28.6079 C.ar    1  UNL1        0.0066
      3 C         -27.0010    0.6913   27.4910 C.ar    1  UNL1        0.0011
      4 C         -28.1373    0.7363   26.6350 C.ar    1  UNL1        0.0114
      5 C         -29.2360    0.0765   27.0690 C.ar    1  UNL1        0.0579
      6 C         -29.2177   -0.6429   28.1747 C.ar    1  UNL1        0.0180
      7 C         -28.2275   -1.6261   30.1018 C.2     1  UNL1        0.3878
      8 O         -28.4502   -1.0903   31.2224 O.co2   1  UNL1       -0.2406
      9 O         -27.9744   -2.8918   30.0172 O.co2   1  UNL1       -0.2406
     10 CL        -30.6022    0.1710   26.0375 Cl      1  UNL1       -0.0822
@<TRIPOS>BOND
     1     1     7    1
     2     7     8   ar
     3     7     9   ar
     4     5    10    1
     5     1     2   ar
     6     2     3   ar
     7     3     4   ar
     8     4     5   ar
     9     5     6   ar
    10     6     1   ar
