@<TRIPOS>MOLECULE
No_1776-gen_results/8p0m/2024-11-26-14-13-15/
 21 23 0 0 0
SMALL
GASTEIGER

@<TRIPOS>ATOM
      1 C         -28.0162   -0.8135   28.8779 C.ar    1  UNL1        0.0045
      2 C         -28.4690   -0.7850   29.8287 C.ar    1  UNL1        0.0536
      3 C         -26.5042   -0.7777   28.8766 C.ar    1  UNL1        0.0001
      4 C         -25.6540   -0.6597   27.7191 C.ar    1  UNL1        0.0001
      5 C         -27.9180   -0.9374   31.1824 C.ar    1  UNL1        0.0045
      6 C         -26.5423   -0.9399   31.2606 C.ar    1  UNL1        0.0001
      7 C         -25.7832   -0.8935   30.1201 C.ar    1  UNL1        0.0001
      8 C         -24.3096   -0.3015   27.8531 C.ar    1  UNL1        0.0039
      9 C         -23.6669   -0.4595   29.0986 C.ar    1  UNL1        0.0476
     10 C         -24.3700   -0.6645   30.2027 C.ar    1  UNL1        0.0039
     11 C         -22.1946   -0.2290   29.1314 C.2     1  UNL1        0.2416
     12 N         -21.2882    0.5666   28.7716 N.2     1  UNL1       -0.1156
     13 F         -21.6307   -1.3991   29.6379 F       1  UNL1       -0.1815
     14 C         -30.0644   -0.8851   29.8747 C.2     1  UNL1        0.2490
     15 O         -30.5376   -0.3195   29.0102 O.2     1  UNL1       -0.2699
     16 N         -30.7247   -1.2153   31.0283 N.am    1  UNL1       -0.2761
     17 C         -32.1669   -1.2005   31.0295 C.3     1  UNL1        0.0937
     18 C         -32.8198   -1.6368   31.6584 C.3     1  UNL1        0.0216
     19 C         -32.2973   -2.4085   32.8382 C.3     1  UNL1        0.0035
     20 C         -30.8767   -2.5396   32.9484 C.3     1  UNL1        0.0216
     21 C         -30.1091   -2.0632   31.9938 C.3     1  UNL1        0.0937
@<TRIPOS>BOND
     1     9    11    1
     2    11    12    2
     3    11    13    1
     4     2    14    1
     5    14    15    2
     6    14    16   am
     7    16    17    1
     8    18    19    1
     9    16    21    1
    10    20    21    1
    11    17    18    1
    12    19    20    1
    13     1     2   ar
    14     2     5   ar
    15     5     6   ar
    16     6     7   ar
    17     3     1   ar
    18     3     4   ar
    19     4     8   ar
    20     8     9   ar
    21     9    10   ar
    22    10     7   ar
    23     7     3   ar
