@<TRIPOS>MOLECULE
No_1778-gen_results/8p0m/2024-11-26-14-13-15/
 18 20 0 0 0
SMALL
GASTEIGER

@<TRIPOS>ATOM
      1 C         -28.0162   -0.8135   28.8779 C.ar    1  UNL1        0.0013
      2 C         -27.0636   -0.1189   28.6079 C.ar    1  UNL1       -0.0002
      3 C         -26.9716    0.7139   27.5060 C.ar    1  UNL1       -0.0030
      4 C         -28.1053    0.7744   26.6421 C.ar    1  UNL1       -0.0084
      5 C         -29.2008    0.1044   27.0527 C.ar    1  UNL1        0.0501
      6 C         -29.2096   -0.6029   28.1853 C.ar    1  UNL1        0.0146
      7 N         -30.3077    0.2215   26.2218 N.am    1  UNL1       -0.2555
      8 C         -30.2379    0.2364   24.9221 C.3     1  UNL1        0.0988
      9 C         -29.1586    1.0085   24.4065 C.3     1  UNL1        0.0266
     10 C         -27.8869    1.0003   25.1879 C.3     1  UNL1        0.0294
     11 C         -31.6258   -0.2118   26.7555 C.2     1  UNL1        0.2527
     12 C         -32.0004    0.4042   27.8623 C.ar    1  UNL1        0.0539
     13 C         -31.9438    1.7645   27.8792 C.ar    1  UNL1        0.0045
     14 C         -32.2441    2.5579   29.0403 C.ar    1  UNL1        0.0001
     15 C         -32.7300    1.8768   30.1454 C.ar    1  UNL1        0.0000
     16 C         -32.8556    0.5147   30.1599 C.ar    1  UNL1        0.0001
     17 C         -32.4498   -0.2223   29.0507 C.ar    1  UNL1        0.0045
     18 O         -32.3152   -1.0269   26.2278 O.2     1  UNL1       -0.2696
@<TRIPOS>BOND
     1     5     7    1
     2     7     8    1
     3     8     9    1
     4     4    10    1
     5     9    10    1
     6     7    11   am
     7    11    12    1
     8    11    18    2
     9     1     2   ar
    10     2     3   ar
    11     3     4   ar
    12     4     5   ar
    13     5     6   ar
    14     6     1   ar
    15    12    13   ar
    16    13    14   ar
    17    14    15   ar
    18    15    16   ar
    19    16    17   ar
    20    17    12   ar
