@<TRIPOS>MOLECULE
No_178-gen_results/8p0m/2024-11-26-14-13-15/
 17 18 0 0 0
SMALL
GASTEIGER

@<TRIPOS>ATOM
      1 C         -28.0162   -0.8135   28.8779 C.ar    1  UNL1        0.0066
      2 C         -27.0636   -0.1190   28.6079 C.ar    1  UNL1        0.0002
      3 C         -25.7647   -0.3897   29.0360 C.ar    1  UNL1        0.0001
      4 C         -24.5516    0.4058   28.7646 C.ar    1  UNL1        0.0030
      5 C         -23.2300    0.1178   29.2575 C.ar    1  UNL1        0.0002
      6 C         -22.1393    0.9427   28.9224 C.ar    1  UNL1        0.0031
      7 C         -27.8294   -1.9287   29.8545 C.ar    1  UNL1        0.0798
      8 C         -26.5882   -2.3272   30.2682 C.ar    1  UNL1        0.0066
      9 C         -25.4565   -1.5432   29.9146 C.ar    1  UNL1        0.0002
     10 C         -22.2302    1.9089   27.8723 C.ar    1  UNL1        0.0369
     11 C         -24.5538    1.4700   27.7617 C.ar    1  UNL1        0.0369
     12 C         -23.4471    2.1666   27.3764 C.ar    1  UNL1        0.1387
     13 C         -28.9807   -2.7737   30.2586 C.2     1  UNL1        0.3878
     14 O         -30.0534   -2.3918   30.1490 O.co2   1  UNL1       -0.2406
     15 O         -28.7133   -3.9179   30.8303 O.co2   1  UNL1       -0.2406
     16 O         -23.6067    3.0996   26.4102 O.3     1  UNL1       -0.4714
     17 C         -24.8962    3.1088   25.8600 C.3     1  UNL1        0.2525
@<TRIPOS>BOND
     1     3     4    1
     2     7    13    1
     3    13    14   ar
     4    13    15   ar
     5    12    16    1
     6    16    17    1
     7     1     2   ar
     8     2     3   ar
     9     3     9   ar
    10     9     8   ar
    11     8     7   ar
    12     7     1   ar
    13     4     5   ar
    14     5     6   ar
    15     6    10   ar
    16    10    12   ar
    17    12    11   ar
    18    11     4   ar
