@<TRIPOS>MOLECULE
No_1780-gen_results/8p0m/2024-11-26-14-13-15/
 35 39 0 0 0
SMALL
GASTEIGER

@<TRIPOS>ATOM
      1 C         -28.0162   -0.8135   28.8779 C.ar    1  UNL1        0.0384
      2 C         -27.0636   -0.1190   28.6079 C.ar    1  UNL1       -0.0112
      3 C         -26.9287    1.1713   29.0083 C.ar    1  UNL1       -0.0034
      4 C         -27.9560    1.7411   29.7840 C.ar    1  UNL1        0.0030
      5 C         -29.0569   -0.3271   29.7466 C.ar    1  UNL1        0.1955
      6 C         -28.9828    0.9722   30.1516 C.ar    1  UNL1        0.0420
      7 C         -25.8907   -0.6263   27.7857 C.3     1  UNL1        0.0662
      8 C         -24.7182   -1.0610   28.6129 C.ar    1  UNL1       -0.0143
      9 C         -24.1449   -0.4239   29.6351 C.ar    1  UNL1       -0.0036
     10 C         -23.0783   -0.9693   30.2884 C.ar    1  UNL1       -0.0003
     11 C         -22.4898   -2.0547   29.6943 C.ar    1  UNL1       -0.0000
     12 C         -23.1788   -2.7885   28.7399 C.ar    1  UNL1       -0.0003
     13 C         -24.2833   -2.3342   28.2331 C.ar    1  UNL1       -0.0036
     14 C         -25.5011    0.4600   26.8532 C.2     1  UNL1       -0.0219
     15 C         -25.8608    0.4005   25.5541 C.2     1  UNL1       -0.0253
     16 C         -26.8284   -0.5408   25.1102 C.3     1  UNL1        0.0520
     17 C         -27.9362   -0.0084   24.3094 C.ar    1  UNL1       -0.0176
     18 C         -29.0354   -0.8545   24.1338 C.ar    1  UNL1       -0.0039
     19 C         -30.2529   -0.8447   24.6972 C.ar    1  UNL1       -0.0001
     20 C         -30.5534    0.4127   25.3715 C.ar    1  UNL1        0.0077
     21 C         -29.6788    1.5113   25.2809 C.ar    1  UNL1        0.0877
     22 C         -29.9686    2.7688   25.8406 C.2     1  UNL1        0.3724
     23 C         -28.3044    1.2469   24.8423 C.ar    1  UNL1        0.0037
     24 N         -29.1536    3.7539   25.7738 N.2     1  UNL1       -0.0317
     25 N         -31.2179    3.1127   26.1886 N.2     1  UNL1       -0.0290
     26 C         -31.3611    4.4062   26.6256 C.2     1  UNL1        0.2856
     27 C         -29.7773    4.8707   26.2789 C.3     1  UNL1        0.3781
     28 O         -30.0089   -1.2123   30.0880 O.3     1  UNL1       -0.2866
     29 N         -29.3177    6.1086   26.4883 N.pl3   1  UNL1       -0.1845
     30 C         -29.1563    6.6743   27.6613 C.ar    1  UNL1        0.0700
     31 C         -28.5757    7.8970   27.6973 C.ar    1  UNL1        0.0162
     32 C         -28.1982    8.5924   28.8639 C.ar    1  UNL1        0.0013
     33 C         -28.4536    7.8743   30.0659 C.ar    1  UNL1        0.0001
     34 C         -29.2598    5.9895   28.8395 C.ar    1  UNL1        0.0162
     35 C         -28.9418    6.5715   30.0468 C.ar    1  UNL1        0.0013
@<TRIPOS>BOND
     1     2     7    1
     2     7    14    1
     3    14    15    2
     4    15    16    1
     5    21    22    1
     6    22    24    2
     7    22    25    1
     8    25    26    2
     9    24    27    1
    10    26    27    1
    11     5    28    1
    12    27    29    1
    13    29    30    1
    14    16    17    1
    15     7     8    1
    16    17    18   ar
    17    18    19   ar
    18    19    20   ar
    19    20    21   ar
    20    21    23   ar
    21    23    17   ar
    22     1     2   ar
    23     2     3   ar
    24     3     4   ar
    25     4     6   ar
    26     6     5   ar
    27     5     1   ar
    28    30    31   ar
    29    31    32   ar
    30    32    33   ar
    31    33    35   ar
    32    35    34   ar
    33    34    30   ar
    34     8     9   ar
    35     9    10   ar
    36    10    11   ar
    37    11    12   ar
    38    12    13   ar
    39    13     8   ar
