@<TRIPOS>MOLECULE
No_1781-gen_results/8p0m/2024-11-26-14-13-15/
 21 22 0 0 0
SMALL
GASTEIGER

@<TRIPOS>ATOM
      1 C         -28.0162   -0.8135   28.8779 C.ar    1  UNL1        0.0494
      2 C         -28.4690   -0.7850   29.8287 C.2     1  UNL1        0.2488
      3 C         -28.1816    0.4277   28.1134 C.ar    1  UNL1       -0.0001
      4 C         -27.4498    0.6435   26.8500 C.ar    1  UNL1       -0.0221
      5 C         -26.1815    0.0357   26.7145 C.ar    1  UNL1       -0.0046
      6 C         -25.7800   -0.9326   27.6938 C.ar    1  UNL1       -0.0044
      7 C         -26.5568   -1.2134   28.7413 C.ar    1  UNL1       -0.0161
      8 N         -28.3810   -1.9990   30.6547 N.am    1  UNL1       -0.2740
      9 O         -29.4468   -0.0838   30.3526 O.2     1  UNL1       -0.2699
     10 C         -27.4825   -3.0102   30.3325 C.3     1  UNL1        0.0984
     11 C         -26.1706   -2.5133   29.4590 C.3     1  UNL1        0.0480
     12 C         -29.2576   -2.4483   31.7753 C.3     1  UNL1        0.1152
     13 C         -27.7643    1.6500   25.8765 C.3     1  UNL1        0.0267
     14 C         -27.2801    2.8753   26.2561 C.3     1  UNL1        0.0050
     15 C         -28.6066    1.3704   24.8352 C.3     1  UNL1        0.0304
     16 C         -29.9480    1.2207   25.0884 C.2     1  UNL1       -0.0258
     17 C         -30.5438    1.5533   26.1257 C.2     1  UNL1       -0.0046
     18 C         -31.7018    1.6449   26.5044 C.2     1  UNL1       -0.0003
     19 C         -32.2227    2.0720   27.7720 C.2     1  UNL1       -0.0000
     20 C         -31.2911    2.5253   28.7169 C.2     1  UNL1       -0.0000
     21 C         -29.9836    2.6830   28.3630 C.2     1  UNL1       -0.0000
@<TRIPOS>BOND
     1     1     2    1
     2     2     8   am
     3     2     9    2
     4     8    10    1
     5     7    11    1
     6    10    11    1
     7     8    12    1
     8     4    13    1
     9    13    14    1
    10    13    15    1
    11    15    16    1
    12    16    17    2
    13    17    18    1
    14    18    19    2
    15    19    20    1
    16    20    21    2
    17     1     3   ar
    18     3     4   ar
    19     4     5   ar
    20     5     6   ar
    21     6     7   ar
    22     7     1   ar
