@<TRIPOS>MOLECULE
No_1782-gen_results/8p0m/2024-11-26-14-13-15/
 25 28 0 0 0
SMALL
GASTEIGER

@<TRIPOS>ATOM
      1 C         -28.0162   -0.8135   28.8779 C.ar    1  UNL1       -0.0003
      2 C         -28.4690   -0.7850   29.8287 C.ar    1  UNL1       -0.0000
      3 C         -28.1960    0.3478   28.0550 C.ar    1  UNL1       -0.0037
      4 C         -29.0191    1.3501   28.3782 C.ar    1  UNL1       -0.0184
      5 C         -29.4107    0.1803   30.3782 C.ar    1  UNL1       -0.0003
      6 C         -29.6059    1.2495   29.6193 C.ar    1  UNL1       -0.0040
      7 C         -27.4597    0.3802   26.7091 C.2     1  UNL1       -0.0003
      8 C         -27.9298    0.5836   25.6804 C.2     1  UNL1       -0.0003
      9 C         -29.3518    0.8141   25.5930 C.ar    1  UNL1       -0.0040
     10 C         -30.0874    0.3793   24.7863 C.ar    1  UNL1       -0.0003
     11 C         -31.5061    0.6291   24.6778 C.ar    1  UNL1       -0.0000
     12 C         -32.0014    1.4784   25.6478 C.ar    1  UNL1       -0.0003
     13 C         -31.2549    2.0846   26.5629 C.ar    1  UNL1       -0.0043
     14 C         -29.8572    1.8097   26.5872 C.ar    1  UNL1       -0.0225
     15 C         -28.1483    2.7360   28.3992 C.3     1  UNL1        0.0448
     16 C         -29.0877    3.1516   26.5074 C.3     1  UNL1        0.0230
     17 C         -27.4332    3.0273   29.5536 C.ar    1  UNL1       -0.0184
     18 C         -28.2859    3.5695   27.3246 C.3     1  UNL1        0.0121
     19 C         -27.5399    3.9136   30.2912 C.ar    1  UNL1       -0.0040
     20 C         -26.1781    2.1754   29.7085 C.ar    1  UNL1       -0.0040
     21 C         -25.3184    2.3909   30.7664 C.ar    1  UNL1       -0.0003
     22 C         -25.5587    3.4248   31.6570 C.ar    1  UNL1       -0.0000
     23 C         -26.6746    4.2314   31.4978 C.ar    1  UNL1       -0.0003
     24 C         -29.3962    3.9850   25.2481 C.3     1  UNL1        0.0047
     25 C         -27.5652    4.8332   27.3156 C.3     1  UNL1        0.0010
@<TRIPOS>BOND
     1     3     7    1
     2     7     8    2
     3     8     9    1
     4     4    15    1
     5    14    16    1
     6    15    17    1
     7    15    18    1
     8    16    18    1
     9    16    24    1
    10    18    25    1
    11     9    10   ar
    12    10    11   ar
    13    11    12   ar
    14    12    13   ar
    15    13    14   ar
    16    14     9   ar
    17    17    19   ar
    18    19    23   ar
    19    23    22   ar
    20    22    21   ar
    21    21    20   ar
    22    20    17   ar
    23     1     2   ar
    24     2     5   ar
    25     5     6   ar
    26     6     4   ar
    27     4     3   ar
    28     3     1   ar
