@<TRIPOS>MOLECULE
No_1784-gen_results/8p0m/2024-11-26-14-13-15/
 22 24 0 0 0
SMALL
GASTEIGER

@<TRIPOS>ATOM
      1 C         -28.0162   -0.8135   28.8779 C.ar    1  UNL1        0.0000
      2 C         -28.4690   -0.7850   29.8287 C.ar    1  UNL1        0.0000
      3 C         -27.0871    0.2903   28.6377 C.ar    1  UNL1        0.0006
      4 C         -26.8317    1.2487   29.5869 C.ar    1  UNL1        0.0000
      5 C         -28.3914    0.0801   31.0065 C.ar    1  UNL1        0.0000
      6 C         -27.4940    1.1521   30.7841 C.ar    1  UNL1        0.0000
      7 C         -26.3172    0.3994   27.3653 C.ar    1  UNL1        0.0076
      8 C         -26.8815    0.9711   26.3721 C.ar    1  UNL1        0.0003
      9 C         -26.1464    0.9703   25.0973 C.ar    1  UNL1        0.0000
     10 C         -24.7793    0.5609   25.1117 C.ar    1  UNL1        0.0006
     11 C         -25.0074   -0.1159   27.2986 C.ar    1  UNL1        0.0416
     12 C         -24.2881    0.0057   26.2234 C.ar    1  UNL1        0.0082
     13 C         -24.3938   -0.7225   28.5385 C.1     1  UNL1       -0.0643
     14 C         -23.6294   -1.1921   29.0847 C.1     1  UNL1       -0.0854
     15 C         -22.6109   -1.6233   29.9080 C.3     1  UNL1        0.0903
     16 C         -28.2820    1.4695   26.2666 C.ar    1  UNL1       -0.0039
     17 C         -28.4248    2.7926   26.4739 C.ar    1  UNL1       -0.0003
     18 C         -29.0276    3.4737   26.9998 C.ar    1  UNL1       -0.0000
     19 C         -30.0906    3.0218   27.9773 C.ar    1  UNL1       -0.0003
     20 C         -30.4253    1.7511   27.6626 C.ar    1  UNL1       -0.0043
     21 C         -29.0085    0.9140   27.6196 C.ar    1  UNL1       -0.0218
     22 C         -29.6860   -0.3235   27.0164 C.3     1  UNL1        0.0310
@<TRIPOS>BOND
     1     3     7    1
     2    11    13    1
     3    13    14    3
     4    14    15    1
     5     8    16    1
     6    21    22    1
     7     7     8   ar
     8     8     9   ar
     9     9    10   ar
    10    10    12   ar
    11    12    11   ar
    12    11     7   ar
    13     1     2   ar
    14     2     5   ar
    15     5     6   ar
    16     6     4   ar
    17     4     3   ar
    18     3     1   ar
    19    16    17   ar
    20    17    18   ar
    21    18    19   ar
    22    19    20   ar
    23    20    21   ar
    24    21    16   ar
