@<TRIPOS>MOLECULE
No_1785-gen_results/8p0m/2024-11-26-14-13-15/
 15 16 0 0 0
SMALL
GASTEIGER

@<TRIPOS>ATOM
      1 C         -28.0162   -0.8135   28.8779 C.ar    1  UNL1        0.0045
      2 C         -28.4690   -0.7850   29.8287 C.ar    1  UNL1        0.0536
      3 C         -26.5042   -0.7777   28.8766 C.ar    1  UNL1        0.0001
      4 C         -25.8103   -0.8531   30.1028 C.ar    1  UNL1        0.0000
      5 C         -27.9906   -0.8916   31.2257 C.ar    1  UNL1        0.0045
      6 C         -26.6042   -0.8676   31.2652 C.ar    1  UNL1        0.0001
      7 C         -30.0773   -0.8857   30.0240 C.2     1  UNL1        0.2508
      8 N         -30.7067   -0.1575   29.2595 N.am    1  UNL1       -0.2499
      9 C         -31.8823   -0.3471   28.7837 C.3     1  UNL1        0.2396
     10 C         -32.4711    0.5045   27.8022 C.3     1  UNL1        0.0568
     11 F         -32.5923   -1.3746   29.0774 F       1  UNL1       -0.2147
     12 C         -32.1146    1.8104   27.8670 C.3     1  UNL1        0.0064
     13 C         -30.7707    2.1352   28.2865 C.3     1  UNL1        0.0217
     14 C         -30.1389    1.1992   29.0368 C.3     1  UNL1        0.0962
     15 O         -30.4599   -2.0107   30.4982 O.2     1  UNL1       -0.2698
@<TRIPOS>BOND
     1     2     7    1
     2     7     8   am
     3     8     9    1
     4     9    11    1
     5    10    12    1
     6     8    14    1
     7    13    14    1
     8     7    15    2
     9     9    10    1
    10    12    13    1
    11     1     2   ar
    12     2     5   ar
    13     5     6   ar
    14     6     4   ar
    15     4     3   ar
    16     3     1   ar
