@<TRIPOS>MOLECULE
No_1786-gen_results/8p0m/2024-11-26-14-13-15/
 16 17 0 0 0
SMALL
GASTEIGER

@<TRIPOS>ATOM
      1 C         -28.0162   -0.8135   28.8779 C.ar    1  UNL1       -0.0155
      2 C         -27.0636   -0.1189   28.6079 C.3     1  UNL1        0.0798
      3 C         -26.9716    0.7139   27.5060 C.2     1  UNL1        0.1548
      4 C         -25.8206    1.4910   27.1160 C.3     1  UNL1        0.0761
      5 C         -24.6562    1.4242   27.9180 C.3     1  UNL1        0.1107
      6 C         -24.6847    0.5901   29.0659 C.3     1  UNL1        0.0125
      7 C         -25.8099   -0.1265   29.3338 C.3     1  UNL1        0.0123
      8 C         -28.6943   -0.4734   30.1587 C.ar    1  UNL1       -0.0039
      9 C         -29.7865   -1.3251   30.6371 C.ar    1  UNL1       -0.0003
     10 C         -23.4524    2.1889   27.6083 C.2     1  UNL1        0.3647
     11 O         -22.5786    2.2579   28.4956 O.co2   1  UNL1       -0.2457
     12 O         -23.2782    2.5789   26.3779 O.co2   1  UNL1       -0.2457
     13 C         -29.9978   -2.2975   30.0980 C.ar    1  UNL1       -0.0000
     14 C         -29.2553   -3.0463   29.2796 C.ar    1  UNL1       -0.0003
     15 C         -28.1334   -2.3510   28.7788 C.ar    1  UNL1       -0.0039
     16 O         -28.0367    0.8019   26.7236 O.2     1  UNL1       -0.2957
@<TRIPOS>BOND
     1     2     3    1
     2     3     4    1
     3     4     5    1
     4     5     6    1
     5     2     7    1
     6     5    10    1
     7    10    11   ar
     8    10    12   ar
     9     3    16    2
    10     1     2    1
    11     7     6    1
    12     1     8   ar
    13     8     9   ar
    14     9    13   ar
    15    13    14   ar
    16    14    15   ar
    17    15     1   ar
