@<TRIPOS>MOLECULE
No_1787-gen_results/8p0m/2024-11-26-14-13-15/
 35 38 0 0 0
SMALL
GASTEIGER

@<TRIPOS>ATOM
      1 O         -28.1229   -1.3353   28.4874 O.2     1  UNL1       -0.2730
      2 C         -27.4806   -0.4044   28.7094 C.2     1  UNL1        0.2452
      3 N         -26.4599   -0.1104   28.0051 N.am    1  UNL1       -0.2023
      4 C         -25.4297    0.8788   28.3572 C.3     1  UNL1        0.1206
      5 C         -24.3600    1.0559   27.5650 C.ar    1  UNL1        0.0378
      6 C         -27.7374    0.5007   29.9644 C.3     1  UNL1        0.1005
      7 C         -24.3412    1.6188   26.4311 C.ar    1  UNL1        0.1363
      8 C         -23.1172    1.8808   25.6302 C.ar    1  UNL1        0.0366
      9 C         -22.0414    2.0892   26.4860 C.ar    1  UNL1        0.0033
     10 C         -21.9176    1.6537   27.7799 C.ar    1  UNL1        0.0065
     11 C         -23.0844    1.2405   28.3648 C.ar    1  UNL1        0.0803
     12 C         -25.6810    1.5283   29.6004 C.3     1  UNL1        0.0271
     13 C         -26.8093    1.3800   30.3995 C.3     1  UNL1        0.0157
     14 C         -28.9300    0.0721   30.7114 C.ar    1  UNL1       -0.0130
     15 C         -29.7072    1.1669   31.0962 C.ar    1  UNL1        0.0076
     16 C         -30.7679    0.8253   31.8917 C.ar    1  UNL1        0.0574
     17 C         -31.0922   -0.5179   32.1483 C.ar    1  UNL1        0.0114
     18 C         -30.3048   -1.5469   31.6914 C.ar    1  UNL1        0.0006
     19 C         -29.1704   -1.2445   30.9893 C.ar    1  UNL1       -0.0038
     20 C         -22.9994    0.8546   29.8091 C.2     1  UNL1        0.3876
     21 O         -22.9447   -0.2709   30.1605 O.co2   1  UNL1       -0.2406
     22 O         -23.0717    1.8925   30.6526 O.co2   1  UNL1       -0.2406
     23 CL        -31.8381    2.0624   32.4254 Cl      1  UNL1       -0.0823
     24 O         -25.4014    1.4399   25.5911 O.3     1  UNL1       -0.4754
     25 C         -25.6571    0.3905   24.7288 C.3     1  UNL1        0.2100
     26 C         -26.9590   -0.1970   24.9492 C.3     1  UNL1        0.0736
     27 C         -28.0015    0.4831   24.3575 C.ar    1  UNL1       -0.0185
     28 C         -29.3347   -0.0170   24.4545 C.ar    1  UNL1       -0.0044
     29 C         -30.4738    0.5902   24.6453 C.ar    1  UNL1       -0.0038
     30 C         -30.5106    1.5785   25.0406 C.ar    1  UNL1       -0.0119
     31 C         -29.2747    2.4997   25.0218 C.ar    1  UNL1       -0.0038
     32 C         -27.9603    1.6780   23.8376 C.ar    1  UNL1       -0.0044
     33 C         -31.7216    2.5069   25.3402 C.3     1  UNL1        0.0792
     34 BR        -31.8279    3.9170   26.3812 Br      1  UNL1       -0.0769
     35 C         -32.9566    1.9408   25.5946 C.3     1  UNL1        0.0170
@<TRIPOS>BOND
     1     1     2    2
     2     2     3   am
     3     3     4    1
     4     4     5    1
     5     2     6    1
     6     4    12    1
     7     6    14    1
     8    11    20    1
     9    20    21   ar
    10    20    22   ar
    11    16    23    1
    12     7    24    1
    13    24    25    1
    14    25    26    1
    15    26    27    1
    16    30    33    1
    17    33    34    1
    18    33    35    1
    19    12    13    1
    20    13     6    1
    21     5     7   ar
    22     7     8   ar
    23     8     9   ar
    24     9    10   ar
    25    10    11   ar
    26    11     5   ar
    27    27    28   ar
    28    28    29   ar
    29    29    30   ar
    30    30    31   ar
    31    31    32   ar
    32    32    27   ar
    33    14    15   ar
    34    15    16   ar
    35    16    17   ar
    36    17    18   ar
    37    18    19   ar
    38    19    14   ar
