@<TRIPOS>MOLECULE
No_1788-gen_results/8p0m/2024-11-26-14-13-15/
 19 21 0 0 0
SMALL
GASTEIGER

@<TRIPOS>ATOM
      1 C         -28.0162   -0.8135   28.8779 C.ar    1  UNL1        0.0031
      2 C         -27.0636   -0.1190   28.6079 C.ar    1  UNL1        0.0353
      3 C         -26.9716    0.7139   27.5060 C.ar    1  UNL1       -0.0151
      4 C         -28.1053    0.7744   26.6421 C.ar    1  UNL1        0.0027
      5 C         -29.2041    0.1179   27.0477 C.ar    1  UNL1        0.0795
      6 C         -29.2127   -0.6088   28.1281 C.ar    1  UNL1        0.0067
      7 C         -25.7106    1.4518   27.1380 C.3     1  UNL1        0.0448
      8 C         -24.6052    0.9253   27.6902 C.ar    1  UNL1       -0.0153
      9 C         -23.3376    1.6509   27.5495 C.ar    1  UNL1       -0.0039
     10 C         -22.1759    1.2277   28.2868 C.ar    1  UNL1       -0.0003
     11 C         -22.1814    0.0854   29.0261 C.ar    1  UNL1        0.0001
     12 C         -23.3607   -0.6935   29.1008 C.ar    1  UNL1        0.0029
     13 C         -24.5305   -0.2411   28.4874 C.ar    1  UNL1        0.0353
     14 C         -25.7159   -0.6069   29.1263 C.2     1  UNL1        0.1950
     15 O         -25.7376   -1.5573   29.9905 O.2     1  UNL1       -0.2866
     16 C         -25.7533    2.4979   26.1763 C.3     1  UNL1        0.0094
     17 C         -30.4397    0.3173   26.2661 C.2     1  UNL1        0.3877
     18 O         -30.6517    1.1527   25.7106 O.co2   1  UNL1       -0.2406
     19 O         -31.2657   -0.7295   26.2903 O.co2   1  UNL1       -0.2406
@<TRIPOS>BOND
     1     3     7    1
     2     7     8    1
     3     2    14    1
     4    13    14    1
     5    14    15    2
     6     7    16    1
     7     5    17    1
     8    17    18   ar
     9    17    19   ar
    10     1     2   ar
    11     2     3   ar
    12     3     4   ar
    13     4     5   ar
    14     5     6   ar
    15     6     1   ar
    16     8     9   ar
    17     9    10   ar
    18    10    11   ar
    19    11    12   ar
    20    12    13   ar
    21    13     8   ar
