@<TRIPOS>MOLECULE
No_1789-gen_results/8p0m/2024-11-26-14-13-15/
 19 21 0 0 0
SMALL
GASTEIGER

@<TRIPOS>ATOM
      1 C         -28.0162   -0.8135   28.8779 C.ar    1  UNL1        0.0066
      2 C         -27.0636   -0.1190   28.6079 C.ar    1  UNL1        0.0002
      3 C         -25.7647   -0.3897   29.0360 C.ar    1  UNL1        0.0000
      4 C         -24.5516    0.4058   28.7646 C.ar    1  UNL1        0.0000
      5 C         -23.2300    0.1178   29.2575 C.ar    1  UNL1        0.0000
      6 C         -23.0942   -1.1309   29.8730 C.ar    1  UNL1        0.0000
      7 C         -27.7981   -1.9341   29.8560 C.ar    1  UNL1        0.0798
      8 C         -26.5420   -2.3269   30.2580 C.ar    1  UNL1        0.0066
      9 C         -25.4514   -1.5516   29.9079 C.ar    1  UNL1        0.0002
     10 C         -24.1562   -1.9097   30.2809 C.ar    1  UNL1        0.0000
     11 C         -24.6450    1.6582   27.9464 C.ar    1  UNL1        0.0000
     12 C         -24.8958    2.7559   28.5615 C.ar    1  UNL1        0.0000
     13 C         -25.0836    3.9733   27.8352 C.ar    1  UNL1        0.0000
     14 C         -24.8963    3.9191   26.4347 C.ar    1  UNL1        0.0000
     15 C         -24.5586    1.7166   26.5551 C.ar    1  UNL1        0.0000
     16 C         -24.5930    2.7904   25.8448 C.ar    1  UNL1        0.0000
     17 C         -29.0121   -2.7555   30.2301 C.2     1  UNL1        0.3878
     18 O         -30.0618   -2.2031   30.0873 O.co2   1  UNL1       -0.2406
     19 O         -28.8223   -3.9132   30.7151 O.co2   1  UNL1       -0.2406
@<TRIPOS>BOND
     1     4    11    1
     2     7    17    1
     3    17    18   ar
     4    17    19   ar
     5    11    12   ar
     6    12    13   ar
     7    13    14   ar
     8    14    16   ar
     9    16    15   ar
    10    15    11   ar
    11     1     2   ar
    12     2     3   ar
    13     9     8   ar
    14     8     7   ar
    15     7     1   ar
    16     3     4   ar
    17     4     5   ar
    18     5     6   ar
    19     6    10   ar
    20    10     9   ar
    21     9     3   ar
