@<TRIPOS>MOLECULE
No_179-gen_results/8p0m/2024-11-26-14-13-15/
 28 31 0 0 0
SMALL
GASTEIGER

@<TRIPOS>ATOM
      1 C         -28.0162   -0.8135   28.8779 C.ar    1  UNL1        0.0043
      2 C         -27.0636   -0.1190   28.6079 C.ar    1  UNL1       -0.0035
      3 C         -27.0010    0.6913   27.4910 C.ar    1  UNL1       -0.0184
      4 C         -25.8548    1.4825   27.0830 C.ar    1  UNL1       -0.0024
      5 C         -24.6901    1.4526   27.8807 C.ar    1  UNL1        0.0189
      6 C         -23.4878    2.1451   27.6011 C.ar    1  UNL1        0.0988
      7 C         -25.7206   -0.1766   29.3315 C.ar    1  UNL1       -0.0002
      8 C         -24.6020    0.5547   29.0326 C.ar    1  UNL1        0.0030
      9 C         -28.3734   -1.3739   30.1059 C.ar    1  UNL1        0.0554
     10 C         -27.4382   -1.0439   31.1052 C.ar    1  UNL1        0.0046
     11 C         -26.0690   -0.6467   30.7621 C.ar    1  UNL1        0.0001
     12 N         -22.3423    1.8693   28.2101 N.ar    1  UNL1       -0.2423
     13 C         -22.3148    0.9509   29.2116 C.ar    1  UNL1        0.0989
     14 C         -23.3960    0.2778   29.6664 C.ar    1  UNL1        0.0207
     15 C         -28.1389    0.7516   26.5499 C.3     1  UNL1        0.0446
     16 C         -29.1177    1.3927   26.7764 C.ar    1  UNL1       -0.0184
     17 C         -30.0513    1.7900   26.4696 C.ar    1  UNL1       -0.0040
     18 C         -31.0812    2.5789   27.1824 C.ar    1  UNL1       -0.0003
     19 C         -30.8015    2.8902   28.4911 C.ar    1  UNL1       -0.0000
     20 C         -29.6857    2.4658   29.0996 C.ar    1  UNL1       -0.0003
     21 C         -28.7431    1.7591   28.3784 C.ar    1  UNL1       -0.0040
     22 C         -27.9778    0.1476   25.2309 C.3     1  UNL1        0.0094
     23 C         -29.5576   -2.0145   30.5086 C.2     1  UNL1        0.2690
     24 O         -29.6916   -3.0234   30.9433 O.2     1  UNL1       -0.2680
     25 N         -30.7540   -1.3091   30.1711 N.am    1  UNL1       -0.1745
     26 C         -32.0146   -1.6507   30.2355 C.2     1  UNL1        0.0844
     27 C         -32.7834   -1.1518   30.6387 C.2     1  UNL1       -0.0079
     28 C         -34.1742   -1.5824   30.7701 C.3     1  UNL1        0.0321
@<TRIPOS>BOND
     1     3    15    1
     2    15    22    1
     3     9    23    1
     4    23    24    2
     5    23    25   am
     6    25    26    1
     7    26    27    2
     8    27    28    1
     9    15    16    1
    10     1     2   ar
    11     7    11   ar
    12    11    10   ar
    13    10     9   ar
    14     9     1   ar
    15     2     3   ar
    16     3     4   ar
    17     4     5   ar
    18     8     7   ar
    19     7     2   ar
    20     5     6   ar
    21     6    12   ar
    22    12    13   ar
    23    13    14   ar
    24    14     8   ar
    25     8     5   ar
    26    16    17   ar
    27    17    18   ar
    28    18    19   ar
    29    19    20   ar
    30    20    21   ar
    31    21    16   ar
