@<TRIPOS>MOLECULE
No_1790-gen_results/8p0m/2024-11-26-14-13-15/
 21 23 0 0 0
SMALL
GASTEIGER

@<TRIPOS>ATOM
      1 C         -28.0162   -0.8135   28.8779 C.ar    1  UNL1        0.0369
      2 C         -27.0636   -0.1190   28.6079 C.ar    1  UNL1        0.0031
      3 C         -25.7923   -0.4302   29.0761 C.ar    1  UNL1        0.0002
      4 C         -25.5756   -1.5654   29.9363 C.ar    1  UNL1        0.0031
      5 C         -26.7354   -2.3004   30.2173 C.ar    1  UNL1        0.0369
      6 C         -27.9184   -1.9537   29.7629 C.ar    1  UNL1        0.1391
      7 O         -29.0001   -2.7012   30.1151 O.3     1  UNL1       -0.4705
      8 C         -24.5290    0.3490   28.7998 C.ar    1  UNL1        0.0000
      9 C         -23.3442    0.0060   29.1658 C.ar    1  UNL1        0.0000
     10 C         -22.1783    0.7811   28.7783 C.ar    1  UNL1        0.0000
     11 C         -22.3620    1.5200   27.6330 C.ar    1  UNL1        0.0000
     12 C         -24.3689    1.1644   27.5471 C.ar    1  UNL1        0.0000
     13 C         -23.4113    1.8425   27.1382 C.ar    1  UNL1        0.0000
     14 C         -30.1254   -2.1327   30.5832 C.3     1  UNL1        0.2352
     15 C         -30.2222   -1.1441   31.0475 C.ar    1  UNL1        0.0601
     16 C         -30.7657   -0.2596   31.2673 C.ar    1  UNL1        0.0025
     17 C         -30.7636    0.9342   31.7613 C.ar    1  UNL1       -0.0000
     18 C         -29.4460    1.3473   32.2209 C.ar    1  UNL1        0.0033
     19 C         -28.4365    0.4445   32.1132 C.ar    1  UNL1        0.0418
     20 C         -28.6851   -0.7895   31.4988 C.ar    1  UNL1        0.1952
     21 O         -27.9941   -1.6232   32.1649 O.3     1  UNL1       -0.2868
@<TRIPOS>BOND
     1     6     7    1
     2     3     8    1
     3     7    14    1
     4    14    15    1
     5    20    21    1
     6    15    16   ar
     7    16    17   ar
     8    17    18   ar
     9    18    19   ar
    10    19    20   ar
    11    20    15   ar
    12     1     2   ar
    13     2     3   ar
    14     3     4   ar
    15     4     5   ar
    16     5     6   ar
    17     6     1   ar
    18     8     9   ar
    19     9    10   ar
    20    10    11   ar
    21    11    13   ar
    22    13    12   ar
    23    12     8   ar
