@<TRIPOS>MOLECULE
No_1791-gen_results/8p0m/2024-11-26-14-13-15/
 8 8 0 0 0
SMALL
GASTEIGER

@<TRIPOS>ATOM
      1 C         -28.0162   -0.8135   28.8779 C.2     1  UNL1        0.0304
      2 C         -27.0636   -0.1189   28.6079 C.3     1  UNL1        0.0329
      3 C         -27.0010    0.6913   27.4910 C.3     1  UNL1        0.0051
      4 C         -28.1420    0.8282   26.7994 C.3     1  UNL1        0.0007
      5 C         -27.9653   -1.5171   30.1662 C.1     1  UNL1        0.1246
      6 C         -29.2723    0.1712   27.2155 C.3     1  UNL1        0.0051
      7 C         -29.2027   -0.5399   28.2807 C.3     1  UNL1        0.0329
      8 O         -28.7596   -1.9621   30.7287 O.2     1  UNL1       -0.2318
@<TRIPOS>BOND
     1     1     2    1
     2     2     3    1
     3     3     4    1
     4     1     5    2
     5     4     6    1
     6     1     7    1
     7     6     7    1
     8     5     8    2
