@<TRIPOS>MOLECULE
No_1792-gen_results/8p0m/2024-11-26-14-13-15/
 35 38 0 0 0
SMALL
GASTEIGER

@<TRIPOS>ATOM
      1 C         -28.0162   -0.8135   28.8779 C.ar    1  UNL1        0.0058
      2 C         -28.4690   -0.7850   29.8287 C.ar    1  UNL1        0.0682
      3 C         -26.5042   -0.7777   28.8766 C.ar    1  UNL1       -0.0170
      4 C         -25.6540   -0.6597   27.7191 C.3     1  UNL1        0.0549
      5 C         -27.9180   -0.9374   31.1824 C.ar    1  UNL1        0.1447
      6 C         -26.5424   -0.9399   31.2606 C.ar    1  UNL1        0.0371
      7 C         -25.7832   -0.8935   30.1201 C.ar    1  UNL1       -0.0008
      8 C         -25.2134    0.6923   27.3830 C.ar    1  UNL1        0.0110
      9 C         -23.9202    0.9215   27.7698 C.ar    1  UNL1        0.1022
     10 C         -23.2631    2.0064   27.5373 C.ar    1  UNL1        0.1603
     11 C         -23.7976    3.0044   26.6905 C.ar    1  UNL1        0.0397
     12 C         -25.8362    1.5144   26.4962 C.ar    1  UNL1        0.0555
     13 C         -25.1149    2.7198   26.1438 C.ar    1  UNL1        0.0143
     14 BR        -30.4438   -0.7652   29.8330 Br      1  UNL1       -0.0459
     15 CL        -27.2850    1.2539   25.8251 Cl      1  UNL1       -0.0825
     16 O         -22.0235    2.3479   27.9943 O.3     1  UNL1       -0.4477
     17 C         -21.3485    1.0741   28.2956 C.2     1  UNL1        0.1973
     18 N         -23.3426   -0.0630   28.5573 N.pl3   1  UNL1       -0.2051
     19 C         -21.9211    0.0537   28.8666 C.2     1  UNL1        0.1263
     20 O         -28.6920   -0.9876   32.2986 O.3     1  UNL1       -0.4723
     21 C         -29.1074   -2.1141   32.7350 C.3     1  UNL1        0.2350
     22 C         -29.4142   -2.1553   34.0946 C.3     1  UNL1        0.1635
     23 O         -28.7642   -1.5171   34.7973 O.3     1  UNL1       -0.3473
     24 C         -28.1562   -1.9560   35.9449 C.3     1  UNL1        0.1684
     25 C         -30.8790   -1.7287   34.2599 C.3     1  UNL1        0.0598
     26 C         -31.2027   -0.4618   34.1193 C.ar    1  UNL1       -0.0196
     27 C         -30.7084    0.4009   34.4861 C.ar    1  UNL1       -0.0042
     28 C         -31.0351    1.8795   34.2412 C.ar    1  UNL1       -0.0003
     29 C         -32.0621    2.0823   33.3674 C.ar    1  UNL1       -0.0000
     30 C         -32.7378    0.9919   32.8479 C.ar    1  UNL1       -0.0003
     31 C         -32.3266   -0.2722   33.1534 C.ar    1  UNL1       -0.0042
     32 C         -28.0187   -1.1182   37.0325 C.2     1  UNL1        0.0056
     33 C         -27.4348   -1.5721   38.0466 C.2     1  UNL1       -0.0021
     34 C         -26.8534   -2.8718   38.1257 C.2     1  UNL1       -0.0003
     35 C         -26.9230   -3.6675   36.9884 C.2     1  UNL1       -0.0000
@<TRIPOS>BOND
     1     3     4    1
     2     4     8    1
     3     2    14    1
     4    12    15    1
     5    10    16    1
     6    16    17    1
     7     9    18    1
     8    17    19    2
     9    18    19    1
    10     5    20    1
    11    20    21    1
    12    21    22    1
    13    22    23    1
    14    23    24    1
    15    22    25    1
    16    25    26    1
    17    24    32    1
    18    32    33    2
    19    33    34    1
    20    34    35    2
    21    26    27   ar
    22    27    28   ar
    23    28    29   ar
    24    29    30   ar
    25    30    31   ar
    26    31    26   ar
    27     1     2   ar
    28     2     5   ar
    29     5     6   ar
    30     6     7   ar
    31     7     3   ar
    32     3     1   ar
    33     8     9   ar
    34     9    10   ar
    35    10    11   ar
    36    11    13   ar
    37    13    12   ar
    38    12     8   ar
