@<TRIPOS>MOLECULE
No_1794-gen_results/8p0m/2024-11-26-14-13-15/
 18 20 0 0 0
SMALL
GASTEIGER

@<TRIPOS>ATOM
      1 C         -28.0162   -0.8135   28.8779 C.ar    1  UNL1        0.0015
      2 C         -28.4690   -0.7850   29.8287 C.ar    1  UNL1        0.0176
      3 C         -26.5042   -0.7777   28.8766 C.ar    1  UNL1        0.0000
      4 C         -25.8103   -0.8531   30.1028 C.ar    1  UNL1        0.0000
      5 C         -27.9906   -0.8916   31.2257 C.ar    1  UNL1        0.0015
      6 C         -26.6042   -0.8676   31.2652 C.ar    1  UNL1        0.0000
      7 C         -30.0739   -0.8360   29.8615 C.ar    1  UNL1        0.0813
      8 N         -30.6529   -1.7943   30.2676 N.ar    1  UNL1       -0.2438
      9 C         -30.7371    0.2483   29.2293 C.ar    1  UNL1        0.0177
     10 C         -30.1236    1.4032   28.7483 C.ar    1  UNL1        0.0014
     11 C         -30.8998    2.3702   28.1023 C.ar    1  UNL1        0.0000
     12 C         -30.2558    3.5821   27.7413 C.ar    1  UNL1        0.0000
     13 C         -28.8553    3.7655   27.8745 C.ar    1  UNL1        0.0000
     14 C         -28.1041    2.7380   28.4258 C.ar    1  UNL1        0.0000
     15 C         -28.6988    1.5912   28.9013 C.ar    1  UNL1        0.0000
     16 C         -31.9519   -2.0564   30.0511 C.ar    1  UNL1        0.0988
     17 C         -32.0863    0.1259   29.2072 C.ar    1  UNL1        0.0031
     18 C         -32.6943   -1.0449   29.6062 C.ar    1  UNL1        0.0207
@<TRIPOS>BOND
     1     2     7    1
     2     9    10    1
     3    10    11   ar
     4    11    12   ar
     5    12    13   ar
     6    13    14   ar
     7    14    15   ar
     8    15    10   ar
     9     1     2   ar
    10     2     5   ar
    11     5     6   ar
    12     6     4   ar
    13     4     3   ar
    14     3     1   ar
    15     7     8   ar
    16     8    16   ar
    17    16    18   ar
    18    18    17   ar
    19    17     9   ar
    20     9     7   ar
