@<TRIPOS>MOLECULE
No_1795-gen_results/8p0m/2024-11-26-14-13-15/
 12 12 0 0 0
SMALL
GASTEIGER

@<TRIPOS>ATOM
      1 C         -28.0162   -0.8135   28.8779 C.ar    1  UNL1       -0.0039
      2 C         -28.4690   -0.7850   29.8287 C.ar    1  UNL1       -0.0003
      3 C         -28.1816    0.4277   28.1134 C.ar    1  UNL1       -0.0178
      4 C         -28.9841    1.4155   28.5154 C.ar    1  UNL1       -0.0039
      5 C         -29.3802    0.1384   30.4612 C.ar    1  UNL1       -0.0000
      6 C         -29.5415    1.2736   29.7242 C.ar    1  UNL1       -0.0003
      7 C         -27.5429    0.6374   26.7442 C.3     1  UNL1        0.0523
      8 C         -26.1537    0.5302   26.7496 C.2     1  UNL1       -0.0214
      9 C         -25.3229    1.4531   27.3080 C.2     1  UNL1       -0.0046
     10 C         -23.9051    1.2722   27.4002 C.2     1  UNL1       -0.0049
     11 C         -23.0779    2.3163   27.1967 C.2     1  UNL1       -0.0258
     12 C         -23.6325    3.5950   27.2654 C.3     1  UNL1        0.0307
@<TRIPOS>BOND
     1     3     7    1
     2     7     8    1
     3     8     9    2
     4     9    10    1
     5    10    11    2
     6    11    12    1
     7     1     2   ar
     8     2     5   ar
     9     5     6   ar
    10     6     4   ar
    11     4     3   ar
    12     3     1   ar
