@<TRIPOS>MOLECULE
No_1796-gen_results/8p0m/2024-11-26-14-13-15/
 24 25 0 0 0
SMALL
GASTEIGER

@<TRIPOS>ATOM
      1 C         -28.0162   -0.8135   28.8779 C.ar    1  UNL1        0.0716
      2 C         -27.0636   -0.1190   28.6079 C.ar    1  UNL1        0.0038
      3 C         -27.0010    0.6913   27.4910 C.ar    1  UNL1       -0.0001
      4 C         -28.1373    0.7363   26.6350 C.ar    1  UNL1        0.0045
      5 C         -29.2360    0.0765   27.0690 C.ar    1  UNL1        0.0535
      6 C         -29.2177   -0.6429   28.1747 C.ar    1  UNL1        0.0084
      7 C         -30.4152    0.1590   26.1820 C.2     1  UNL1        0.2491
      8 N         -31.0232    1.1188   26.0346 N.am    1  UNL1       -0.2726
      9 O         -30.8241   -0.9325   25.6274 O.2     1  UNL1       -0.2699
     10 C         -30.7574    2.4451   26.7030 C.3     1  UNL1        0.1152
     11 C         -32.1741    1.3014   25.0359 C.3     1  UNL1        0.1152
     12 C         -28.0219   -1.6614   30.1650 C.3     1  UNL1        0.4186
     13 F         -28.7256   -1.6804   30.9557 F       1  UNL1       -0.1659
     14 F         -26.7045   -1.4792   30.7150 F       1  UNL1       -0.1659
     15 C         -25.7261    1.3814   27.0601 C.ar    1  UNL1       -0.0021
     16 C         -25.1162    2.2411   28.0601 C.ar    1  UNL1        0.0020
     17 C         -23.7844    2.6410   27.7648 C.ar    1  UNL1       -0.0023
     18 C         -23.2729    2.3279   26.4683 C.ar    1  UNL1       -0.0003
     19 C         -23.9430    1.5868   25.5932 C.ar    1  UNL1       -0.0000
     20 C         -25.1669    1.0788   25.8816 C.ar    1  UNL1       -0.0003
     21 F         -27.7218   -2.9454   29.5609 F       1  UNL1       -0.1659
     22 C         -25.6131    2.5759   29.3745 C.3     1  UNL1        0.1519
     23 N         -26.3006    3.6944   29.5442 N.2     1  UNL1       -0.2625
     24 C         -27.0861    3.9746   30.5574 C.2     1  UNL1        0.1137
@<TRIPOS>BOND
     1     5     7    1
     2     7     8   am
     3     7     9    2
     4     8    10    1
     5     8    11    1
     6     1    12    1
     7    12    13    1
     8    12    14    1
     9     3    15    1
    10    12    21    1
    11    16    22    1
    12    22    23    1
    13    23    24    2
    14    15    16   ar
    15    16    17   ar
    16    17    18   ar
    17    18    19   ar
    18    19    20   ar
    19    20    15   ar
    20     1     2   ar
    21     2     3   ar
    22     3     4   ar
    23     4     5   ar
    24     5     6   ar
    25     6     1   ar
