@<TRIPOS>MOLECULE
No_1797-gen_results/8p0m/2024-11-26-14-13-15/
 31 33 0 0 0
SMALL
GASTEIGER

@<TRIPOS>ATOM
      1 CL        -28.1493   -0.8198   28.9079 Cl      1  UNL1       -0.0822
      2 C         -26.9116   -0.0797   28.9452 C.ar    1  UNL1        0.0591
      3 C         -25.9665   -0.2123   29.6235 C.ar    1  UNL1        0.0112
      4 C         -24.7040    0.5534   29.6218 C.ar    1  UNL1       -0.0021
      5 C         -24.5238    1.1992   28.7552 C.ar    1  UNL1       -0.0060
      6 C         -25.4293    1.4953   27.7201 C.ar    1  UNL1       -0.0006
      7 C         -26.5605    0.7781   27.8350 C.ar    1  UNL1        0.0280
      8 C         -23.1637    2.0263   28.6063 C.3     1  UNL1        0.0991
      9 N         -22.1618    1.2905   28.0247 N.3     1  UNL1       -0.2691
     10 C         -27.6012    1.0035   26.7283 C.ar    1  UNL1        0.0821
     11 N         -27.2520    0.8905   25.5295 N.ar    1  UNL1       -0.2438
     12 C         -28.1063    0.7682   24.4937 C.ar    1  UNL1        0.0988
     13 C         -28.8613    1.4431   27.0294 C.ar    1  UNL1        0.0192
     14 C         -29.8034    1.5195   26.0513 C.ar    1  UNL1        0.0031
     15 C         -29.4034    1.2780   24.7381 C.ar    1  UNL1        0.0192
     16 C         -21.5551    0.3251   28.6816 C.3     1  UNL1        0.0579
     17 C         -21.0210    2.2211   27.6337 C.3     1  UNL1        0.0899
     18 C         -22.3895   -0.7182   29.3444 C.3     1  UNL1        0.0173
     19 C         -20.4178   -0.3281   27.8503 C.3     1  UNL1        0.0173
     20 C         -30.3027    1.3117   23.5801 C.2     1  UNL1        0.0015
     21 C         -30.7863    2.6254   23.3320 C.2     1  UNL1        0.0000
     22 C         -31.8010    2.8061   22.3311 C.ar    1  UNL1       -0.0000
     23 C         -32.3241    4.0345   21.9704 C.ar    1  UNL1       -0.0001
     24 C         -33.2579    4.1097   20.8725 C.ar    1  UNL1        0.0039
     25 C         -33.5202    2.8800   20.1353 C.ar    1  UNL1        0.0714
     26 C         -32.9805    1.7114   20.4782 C.ar    1  UNL1        0.0039
     27 C         -32.0960    1.6516   21.5567 C.ar    1  UNL1       -0.0001
     28 C         -34.4942    2.9554   18.9786 C.3     1  UNL1        0.4186
     29 F         -34.7565    1.9354   18.4856 F       1  UNL1       -0.1659
     30 F         -35.5975    3.6704   19.4272 F       1  UNL1       -0.1659
     31 F         -33.9244    3.7474   17.9923 F       1  UNL1       -0.1659
@<TRIPOS>BOND
     1     1     2    1
     2     5     8    1
     3     8     9    1
     4     7    10    1
     5     9    16    1
     6     9    17    1
     7    16    18    1
     8    16    19    1
     9    15    20    1
    10    20    21    2
    11    21    22    1
    12    25    28    1
    13    28    29    1
    14    28    30    1
    15    28    31    1
    16     2     3   ar
    17     3     4   ar
    18     4     5   ar
    19     5     6   ar
    20     6     7   ar
    21     7     2   ar
    22    22    23   ar
    23    23    24   ar
    24    24    25   ar
    25    25    26   ar
    26    26    27   ar
    27    27    22   ar
    28    10    11   ar
    29    11    12   ar
    30    12    15   ar
    31    15    14   ar
    32    14    13   ar
    33    13    10   ar
