@<TRIPOS>MOLECULE
No_1798-gen_results/8p0m/2024-11-26-14-13-15/
 29 32 0 0 0
SMALL
GASTEIGER

@<TRIPOS>ATOM
      1 C         -28.0162   -0.8135   28.8779 C.ar    1  UNL1        0.0115
      2 C         -27.0636   -0.1189   28.6079 C.ar    1  UNL1        0.0026
      3 C         -25.7647   -0.3897   29.0360 C.ar    1  UNL1        0.0151
      4 C         -25.5296   -1.5302   29.9014 C.ar    1  UNL1        0.0586
      5 C         -26.6888   -2.2893   30.1810 C.ar    1  UNL1        0.0228
      6 C         -27.8727   -1.9508   29.7373 C.ar    1  UNL1        0.0585
      7 CL        -29.1266   -3.0333   30.2545 Cl      1  UNL1       -0.0822
      8 C         -24.5419    0.4316   28.7270 C.ar    1  UNL1        0.0541
      9 C         -24.0642    1.4025   29.5844 C.ar    1  UNL1        0.2251
     10 N         -23.0005    2.1327   29.1607 N.ar    1  UNL1       -0.2101
     11 O         -24.6555    1.7092   30.6666 O.3     1  UNL1       -0.4552
     12 C         -22.2106    1.9238   28.0127 C.ar    1  UNL1        0.1021
     13 C         -23.7930    0.2369   27.4807 C.ar    1  UNL1        0.0063
     14 C         -22.7308    0.9724   27.2202 C.ar    1  UNL1        0.0209
     15 C         -27.2070    1.0583   27.6540 C.ar    1  UNL1        0.0106
     16 C         -27.5490    2.2135   28.2814 C.ar    1  UNL1        0.0576
     17 C         -27.7656    3.3942   27.4899 C.ar    1  UNL1        0.0114
     18 C         -27.6001    3.2928   26.1217 C.ar    1  UNL1        0.0009
     19 C         -27.0878    0.9314   26.3266 C.ar    1  UNL1        0.0008
     20 C         -27.2702    2.0524   25.5086 C.ar    1  UNL1        0.0001
     21 CL        -27.7374    2.4418   29.9578 Cl      1  UNL1       -0.0822
     22 CL        -23.9779   -1.9540   30.4414 Cl      1  UNL1       -0.0822
     23 C         -24.4161    1.1311   31.8975 C.3     1  UNL1        0.2337
     24 C         -25.7091    0.8645   32.7024 C.ar    1  UNL1        0.0212
     25 C         -25.7206   -0.1170   33.6196 C.ar    1  UNL1       -0.0007
     26 C         -27.0034   -0.4833   34.1287 C.ar    1  UNL1       -0.0002
     27 C         -28.1647    0.1455   33.6273 C.ar    1  UNL1       -0.0000
     28 C         -28.0472    1.2542   32.7997 C.ar    1  UNL1       -0.0002
     29 C         -26.8365    1.5460   32.2307 C.ar    1  UNL1       -0.0007
@<TRIPOS>BOND
     1     6     7    1
     2     3     8    1
     3     9    11    1
     4     2    15    1
     5    16    21    1
     6     4    22    1
     7    11    23    1
     8    23    24    1
     9    15    16   ar
    10    16    17   ar
    11    17    18   ar
    12    18    20   ar
    13    20    19   ar
    14    19    15   ar
    15     1     2   ar
    16     2     3   ar
    17     3     4   ar
    18     4     5   ar
    19     5     6   ar
    20     6     1   ar
    21    24    25   ar
    22    25    26   ar
    23    26    27   ar
    24    27    28   ar
    25    28    29   ar
    26    29    24   ar
    27     8     9   ar
    28     9    10   ar
    29    10    12   ar
    30    12    14   ar
    31    14    13   ar
    32    13     8   ar
