@<TRIPOS>MOLECULE
No_1799-gen_results/8p0m/2024-11-26-14-13-15/
 8 7 0 0 0
SMALL
GASTEIGER

@<TRIPOS>ATOM
      1 C         -28.0162   -0.8135   28.8779 C.2     1  UNL1       -0.0087
      2 C         -28.4690   -0.7850   29.8287 C.2     1  UNL1       -0.0026
      3 C         -26.5042   -0.7777   28.8766 C.2     1  UNL1       -0.0436
      4 C         -25.6540   -0.6597   27.7191 C.3     1  UNL1        0.0264
      5 C         -27.9180   -0.9374   31.1824 C.2     1  UNL1        0.0090
      6 C         -26.5423   -0.9399   31.2606 C.3     1  UNL1        0.2084
      7 C         -25.7832   -0.8935   30.1201 C.3     1  UNL1        0.0264
      8 O         -25.8805   -1.0100   32.4270 O.3     1  UNL1       -0.2152
@<TRIPOS>BOND
     1     1     2    1
     2     1     3    2
     3     3     4    1
     4     2     5    2
     5     5     6    1
     6     3     7    1
     7     6     8    1
