@<TRIPOS>MOLECULE
No_18-gen_results/8p0m/2024-11-26-14-13-15/
 22 22 0 0 0
SMALL
GASTEIGER

@<TRIPOS>ATOM
      1 C         -28.0162   -0.8135   28.8779 C.3     1  UNL1        0.4214
      2 C         -27.0636   -0.1189   28.6079 C.ar    1  UNL1        0.1067
      3 C         -26.9287    1.1713   29.0083 C.ar    1  UNL1        0.1598
      4 C         -25.7702    2.0341   28.6884 C.ar    1  UNL1        0.0955
      5 C         -24.7141    1.4431   27.9188 C.ar    1  UNL1        0.0571
      6 C         -24.8590    0.0783   27.5836 C.ar    1  UNL1        0.0046
      7 C         -25.9647   -0.6606   27.9164 C.ar    1  UNL1        0.0071
      8 F         -29.0591   -0.5087   28.2818 F       1  UNL1       -0.1657
      9 F         -28.3369   -0.8098   30.2795 F       1  UNL1       -0.1657
     10 C         -23.5401    2.1450   27.5601 C.2     1  UNL1        0.2152
     11 N         -22.3896    1.6732   27.2692 N.am    1  UNL1       -0.1490
     12 F         -23.8068    3.1730   26.8363 F       1  UNL1       -0.1859
     13 C         -21.6807    1.0440   28.3400 C.2     1  UNL1        0.2811
     14 C         -20.4795    0.3551   27.9418 C.3     1  UNL1        0.2684
     15 O         -22.3438    0.7386   29.4173 O.2     1  UNL1       -0.2701
     16 F         -27.7682   -2.1162   28.7805 F       1  UNL1       -0.1657
     17 CL        -25.7767    3.6164   29.2302 Cl      1  UNL1       -0.0790
     18 O         -20.2423   -0.7748   28.6254 O.3     1  UNL1       -0.2098
     19 O         -27.9395    1.7182   29.6812 O.3     1  UNL1       -0.4499
     20 C         -28.8410    2.5273   29.3150 C.2     1  UNL1        0.1750
     21 C         -28.8346    3.2798   28.5146 C.2     1  UNL1        0.0148
     22 C         -29.9371    4.1633   28.0837 C.3     1  UNL1        0.0341
@<TRIPOS>BOND
     1     1     2    1
     2     1     8    1
     3     1     9    1
     4     5    10    1
     5    10    11    2
     6    10    12    1
     7    11    13    1
     8    13    14    1
     9    13    15    2
    10     1    16    1
    11     4    17    1
    12    14    18    1
    13     3    19    1
    14    19    20    1
    15    20    21    2
    16    21    22    1
    17     2     3   ar
    18     3     4   ar
    19     4     5   ar
    20     5     6   ar
    21     6     7   ar
    22     7     2   ar
