@<TRIPOS>MOLECULE
No_1800-gen_results/8p0m/2024-11-26-14-13-15/
 32 36 0 0 0
SMALL
GASTEIGER

@<TRIPOS>ATOM
      1 C         -28.0162   -0.8135   28.8779 C.ar    1  UNL1        0.0045
      2 C         -27.0636   -0.1189   28.6079 C.ar    1  UNL1        0.0001
      3 C         -25.7923   -0.4302   29.0761 C.ar    1  UNL1        0.0000
      4 C         -24.5456    0.3494   28.8225 C.ar    1  UNL1        0.0000
      5 C         -23.2409    0.0217   29.3323 C.ar    1  UNL1        0.0000
      6 C         -27.8820   -1.8995   29.8633 C.ar    1  UNL1        0.0536
      7 C         -26.6526   -2.3141   30.3138 C.ar    1  UNL1        0.0045
      8 C         -25.5153   -1.5607   29.9787 C.ar    1  UNL1        0.0001
      9 C         -22.1588    0.7866   28.9507 C.ar    1  UNL1        0.0000
     10 C         -22.1309    1.7439   27.9818 C.ar    1  UNL1        0.0000
     11 C         -24.5165    1.3706   27.7930 C.ar    1  UNL1        0.0000
     12 C         -23.3378    2.0353   27.4273 C.ar    1  UNL1        0.0000
     13 C         -28.9418   -2.8409   30.3836 C.2     1  UNL1        0.2495
     14 N         -30.0895   -2.4121   30.6064 N.am    1  UNL1       -0.2679
     15 O         -28.6999   -4.0557   30.5613 O.2     1  UNL1       -0.2699
     16 C         -31.2287   -3.2550   31.0391 C.3     1  UNL1        0.1205
     17 C         -32.3239   -3.0006   30.4914 C.ar    1  UNL1       -0.0047
     18 C         -33.2217   -3.4542   30.2187 C.ar    1  UNL1       -0.0028
     19 C         -34.4664   -2.9828   29.4579 C.ar    1  UNL1        0.0012
     20 C         -34.3884   -1.6593   29.0711 C.ar    1  UNL1        0.0174
     21 C         -33.2878   -0.9134   29.2852 C.ar    1  UNL1       -0.0014
     22 C         -32.2462   -1.4329   29.9301 C.ar    1  UNL1       -0.0046
     23 C         -30.7978   -1.4685   29.5726 C.3     1  UNL1        0.1205
     24 C         -35.6004   -1.0151   28.4357 C.ar    1  UNL1        0.0813
     25 N         -36.2549   -1.3546   27.7501 N.ar    1  UNL1       -0.2437
     26 C         -35.7753    0.4289   28.8812 C.ar    1  UNL1        0.0193
     27 C         -36.8671    1.1070   28.3745 C.ar    1  UNL1        0.0087
     28 C         -37.3877   -0.8284   27.1445 C.ar    1  UNL1        0.1044
     29 C         -37.6583    0.4587   27.4905 C.ar    1  UNL1        0.0869
     30 C         -38.8525    1.1223   26.8966 C.2     1  UNL1        0.3349
     31 O         -39.1998    2.2311   27.2566 O.2     1  UNL1       -0.2540
     32 F         -39.1431    0.7437   25.7207 F       1  UNL1       -0.1585
@<TRIPOS>BOND
     1     3     4    1
     2     6    13    1
     3    13    14   am
     4    13    15    2
     5    14    16    1
     6    16    17    1
     7    14    23    1
     8    22    23    1
     9    20    24    1
    10    29    30    1
    11    30    31    2
    12    30    32    1
    13    17    18   ar
    14    18    19   ar
    15    19    20   ar
    16    20    21   ar
    17    21    22   ar
    18    22    17   ar
    19    24    25   ar
    20    25    28   ar
    21    28    29   ar
    22    29    27   ar
    23    27    26   ar
    24    26    24   ar
    25     1     2   ar
    26     2     3   ar
    27     3     8   ar
    28     8     7   ar
    29     7     6   ar
    30     6     1   ar
    31     4     5   ar
    32     5     9   ar
    33     9    10   ar
    34    10    12   ar
    35    12    11   ar
    36    11     4   ar
