@<TRIPOS>MOLECULE
No_1801-gen_results/8p0m/2024-11-26-14-13-15/
 20 24 0 0 0
SMALL
GASTEIGER

@<TRIPOS>ATOM
      1 C         -28.0162   -0.8135   28.8779 C.ar    1  UNL1       -0.0016
      2 C         -28.4690   -0.7850   29.8287 C.ar    1  UNL1       -0.0002
      3 C         -27.1356    0.2359   28.5352 C.ar    1  UNL1        0.0084
      4 C         -26.3351    0.2900   27.2835 C.3     1  UNL1        0.1596
      5 C         -28.3692    0.1957   30.9236 C.ar    1  UNL1       -0.0000
      6 C         -27.5158    1.2655   30.6540 C.ar    1  UNL1       -0.0005
      7 C         -26.8411    1.2942   29.4761 C.ar    1  UNL1       -0.0050
      8 C         -25.3614    0.7752   26.9672 C.ar    1  UNL1        0.0035
      9 C         -24.5497    1.3390   27.4392 C.ar    1  UNL1       -0.0194
     10 C         -23.3175    1.9567   26.8906 C.ar    1  UNL1       -0.0042
     11 C         -23.3275    2.0410   25.5313 C.ar    1  UNL1       -0.0006
     12 C         -24.2050    1.3652   24.7812 C.ar    1  UNL1       -0.0021
     13 C         -25.2497    0.7666   25.3892 C.ar    1  UNL1        0.0056
     14 O         -27.1809   -0.0876   26.2419 O.3     1  UNL1       -0.3427
     15 C         -26.4202    0.1881   25.0961 C.3     1  UNL1        0.1691
     16 C         -27.2892    2.3325   31.6284 C.ar    1  UNL1       -0.0000
     17 C         -26.5651    3.2282   31.4243 C.ar    1  UNL1       -0.0003
     18 C         -25.8410    3.3477   30.1487 C.ar    1  UNL1       -0.0039
     19 C         -26.0200    2.3736   29.1879 C.ar    1  UNL1       -0.0180
     20 C         -24.5755    2.1672   28.6508 C.3     1  UNL1        0.0524
@<TRIPOS>BOND
     1     3     4    1
     2     4    14    1
     3    13    15    1
     4    14    15    1
     5     9    20    1
     6    19    20    1
     7     4     8    1
     8     7    19   ar
     9    19    18   ar
    10    18    17   ar
    11    17    16   ar
    12    16     6   ar
    13     8     9   ar
    14     9    10   ar
    15    10    11   ar
    16    11    12   ar
    17    12    13   ar
    18    13     8   ar
    19     1     2   ar
    20     2     5   ar
    21     5     6   ar
    22     6     7   ar
    23     7     3   ar
    24     3     1   ar
