@<TRIPOS>MOLECULE
No_1802-gen_results/8p0m/2024-11-26-14-13-15/
 16 17 0 0 0
SMALL
GASTEIGER

@<TRIPOS>ATOM
      1 C         -28.0162   -0.8135   28.8779 C.ar    1  UNL1       -0.0046
      2 C         -27.0636   -0.1189   28.6079 C.ar    1  UNL1       -0.0256
      3 C         -26.8756    1.1325   28.9134 C.ar    1  UNL1       -0.0157
      4 C         -25.6883    1.9515   28.5672 C.3     1  UNL1        0.1279
      5 C         -24.6394    1.2834   27.8753 C.3     1  UNL1        0.0482
      6 C         -24.8068   -0.0513   27.6040 C.3     1  UNL1        0.0083
      7 C         -25.9019   -0.7670   27.9511 C.3     1  UNL1        0.0262
      8 C         -29.2158   -0.1185   29.1813 C.ar    1  UNL1       -0.0003
      9 C         -29.2012    1.1767   29.4009 C.ar    1  UNL1       -0.0003
     10 C         -27.9952    1.9274   29.3121 C.ar    1  UNL1       -0.0041
     11 C         -23.3662    1.8999   27.5474 C.3     1  UNL1        0.1713
     12 N         -22.1631    2.1311   27.9624 N.3     1  UNL1       -0.1151
     13 CL        -23.4754    2.5980   25.8557 Cl      1  UNL1       -0.0940
     14 C         -25.4581    3.3896   28.9005 C.2     1  UNL1        0.3684
     15 O         -25.4729    3.9051   29.8684 O.co2   1  UNL1       -0.2453
     16 O         -25.5000    4.2896   27.7770 O.co2   1  UNL1       -0.2453
@<TRIPOS>BOND
     1     3     4    1
     2     4     5    1
     3     5     6    1
     4     2     7    1
     5     6     7    1
     6     5    11    1
     7    11    12    1
     8    11    13    1
     9     4    14    1
    10    14    15   ar
    11    14    16   ar
    12     1     2   ar
    13     2     3   ar
    14     3    10   ar
    15    10     9   ar
    16     9     8   ar
    17     8     1   ar
