@<TRIPOS>MOLECULE
No_1803-gen_results/8p0m/2024-11-26-14-13-15/
 10 10 0 0 0
SMALL
GASTEIGER

@<TRIPOS>ATOM
      1 N         -28.0544   -1.0498   28.7246 N.2     1  UNL1       -0.1527
      2 C         -27.7460   -0.0733   29.0098 C.2     1  UNL1        0.0805
      3 C         -27.0964    0.7843   28.1008 C.ar    1  UNL1        0.0153
      4 C         -26.8414    0.3495   26.8004 C.ar    1  UNL1        0.0012
      5 C         -26.2093    1.1856   25.8565 C.ar    1  UNL1        0.0000
      6 C         -25.6913    2.4070   26.2238 C.ar    1  UNL1        0.0000
      7 C         -25.8808    2.8844   27.5292 C.ar    1  UNL1        0.0000
      8 C         -26.5196    2.1155   28.3934 C.ar    1  UNL1        0.0012
      9 C         -27.2800    0.1416   30.4173 C.3     1  UNL1        0.0477
     10 C         -27.8597   -0.7023   31.3988 C.3     1  UNL1        0.0068
@<TRIPOS>BOND
     1     1     2    2
     2     2     3    1
     3     2     9    1
     4     9    10    1
     5     3     4   ar
     6     4     5   ar
     7     5     6   ar
     8     6     7   ar
     9     7     8   ar
    10     8     3   ar
