@<TRIPOS>MOLECULE
No_1804-gen_results/8p0m/2024-11-26-14-13-15/
 20 21 0 0 0
SMALL
GASTEIGER

@<TRIPOS>ATOM
      1 F         -28.0727   -1.2542   28.5316 F       1  UNL1       -0.2004
      2 C         -27.3591   -0.3792   28.7224 C.ar    1  UNL1        0.1806
      3 C         -26.8100    0.1885   27.6513 C.ar    1  UNL1        0.1767
      4 C         -25.6015    0.9529   27.6828 C.ar    1  UNL1        0.0466
      5 C         -25.0371    1.2332   29.0000 C.ar    1  UNL1        0.0834
      6 C         -25.6162    0.5855   30.0870 C.ar    1  UNL1        0.0157
      7 C         -26.6061   -0.2296   29.9624 C.ar    1  UNL1        0.0652
      8 C         -23.8926    2.1100   29.0763 C.2     1  UNL1        0.3879
      9 O         -23.4042    2.7123   28.1758 O.co2   1  UNL1       -0.2406
     10 O         -23.5996    2.3758   30.3512 O.co2   1  UNL1       -0.2406
     11 BR        -27.3480   -1.0748   31.4953 Br      1  UNL1       -0.0466
     12 O         -27.2247   -0.0054   26.4062 O.3     1  UNL1       -0.4187
     13 C         -28.1028    0.8590   25.9660 C.2     1  UNL1        0.3458
     14 C         -29.4768    0.5737   26.1994 C.ar    1  UNL1        0.0760
     15 C         -29.9000    0.2905   27.3932 C.ar    1  UNL1        0.0065
     16 C         -31.2110    0.7745   27.6866 C.ar    1  UNL1        0.0002
     17 C         -32.0410    0.8808   26.6813 C.ar    1  UNL1        0.0000
     18 C         -30.4549    0.7569   25.2104 C.ar    1  UNL1        0.0065
     19 C         -31.6895    1.0672   25.4208 C.ar    1  UNL1        0.0002
     20 O         -27.6635    1.8112   25.2194 O.2     1  UNL1       -0.2445
@<TRIPOS>BOND
     1     1     2    1
     2     5     8    1
     3     8     9   ar
     4     8    10   ar
     5     7    11    1
     6     3    12    1
     7    12    13    1
     8    13    14    1
     9    13    20    2
    10     2     3   ar
    11     3     4   ar
    12     4     5   ar
    13     5     6   ar
    14     6     7   ar
    15     7     2   ar
    16    14    15   ar
    17    15    16   ar
    18    16    17   ar
    19    17    19   ar
    20    19    18   ar
    21    18    14   ar
