@<TRIPOS>MOLECULE
No_1805-gen_results/8p0m/2024-11-26-14-13-15/
 21 22 0 0 0
SMALL
GASTEIGER

@<TRIPOS>ATOM
      1 C         -28.0162   -0.8135   28.8779 C.ar    1  UNL1        0.0692
      2 C         -27.0636   -0.1190   28.6079 C.ar    1  UNL1        0.0204
      3 C         -26.9716    0.7139   27.5060 C.ar    1  UNL1        0.0519
      4 C         -28.1053    0.7744   26.6421 C.ar    1  UNL1        0.0194
      5 C         -29.2008    0.1044   27.0527 C.ar    1  UNL1        0.0565
      6 C         -28.0219   -1.5899   30.0879 C.2     1  UNL1        0.3335
      7 C         -29.1640   -0.6394   28.1484 C.ar    1  UNL1        0.0102
      8 O         -28.8451   -1.9567   30.6618 O.2     1  UNL1       -0.2541
      9 F         -26.8269   -1.6816   30.7401 F       1  UNL1       -0.1586
     10 C         -30.4886    0.1311   26.3374 C.2     1  UNL1        0.2649
     11 N         -30.8922    1.0992   25.8260 N.am    1  UNL1       -0.1998
     12 O         -31.1838   -0.9227   26.2445 O.2     1  UNL1       -0.2684
     13 C         -32.1458    1.2852   25.0283 C.3     1  UNL1        0.1388
     14 N         -25.8078    1.4123   27.1040 N.pl3   1  UNL1       -0.2851
     15 C         -24.6040    1.0918   27.5577 C.ar    1  UNL1        0.0516
     16 C         -23.4790    1.9306   27.2304 C.ar    1  UNL1        0.0148
     17 C         -22.2709    1.8016   27.8749 C.ar    1  UNL1        0.0013
     18 C         -22.1084    0.7184   28.8023 C.ar    1  UNL1        0.0001
     19 C         -23.1775   -0.2295   29.0305 C.ar    1  UNL1        0.0013
     20 C         -24.3684    0.0384   28.4725 C.ar    1  UNL1        0.0148
     21 C         -26.0251    2.8109   26.8220 C.3     1  UNL1        0.1173
@<TRIPOS>BOND
     1     1     6    1
     2     6     8    2
     3     6     9    1
     4     5    10    1
     5    10    11   am
     6    10    12    2
     7    11    13    1
     8     3    14    1
     9    14    15    1
    10    14    21    1
    11    15    16   ar
    12    16    17   ar
    13    17    18   ar
    14    18    19   ar
    15    19    20   ar
    16    20    15   ar
    17     1     2   ar
    18     2     3   ar
    19     3     4   ar
    20     4     5   ar
    21     5     7   ar
    22     7     1   ar
