@<TRIPOS>MOLECULE
No_1806-gen_results/8p0m/2024-11-26-14-13-15/
 16 17 0 0 0
SMALL
GASTEIGER

@<TRIPOS>ATOM
      1 C         -28.0162   -0.8135   28.8779 C.ar    1  UNL1        0.0067
      2 C         -28.4690   -0.7850   29.8287 C.ar    1  UNL1        0.0798
      3 C         -27.0871    0.2903   28.6377 C.ar    1  UNL1        0.0046
      4 C         -26.2516    0.4114   27.4223 C.ar    1  UNL1        0.0303
      5 C         -29.4309   -1.9307   30.2714 C.2     1  UNL1        0.3878
      6 C         -28.1601    0.2856   30.9102 C.ar    1  UNL1        0.0066
      7 C         -27.3860    1.2511   30.7511 C.ar    1  UNL1        0.0025
      8 C         -26.7076    1.3035   29.5682 C.ar    1  UNL1        0.0281
      9 C         -25.2151    1.0546   27.1816 C.ar    1  UNL1        0.1485
     10 C         -24.9196    2.0889   28.2080 C.ar    1  UNL1        0.0893
     11 C         -25.5962    2.1990   29.3009 C.ar    1  UNL1        0.1484
     12 O         -30.4696   -2.0530   29.8054 O.co2   1  UNL1       -0.2406
     13 O         -29.1638   -2.5666   31.4650 O.co2   1  UNL1       -0.2406
     14 BR        -23.3869    3.2343   27.7124 Br      1  UNL1       -0.0443
     15 F         -25.2554    3.1295   30.2083 F       1  UNL1       -0.2036
     16 F         -24.5528    1.0140   26.0569 F       1  UNL1       -0.2036
@<TRIPOS>BOND
     1     2     5    1
     2     5    12   ar
     3     5    13   ar
     4    10    14    1
     5    11    15    1
     6     9    16    1
     7     3     4   ar
     8     4     9   ar
     9     9    10   ar
    10    10    11   ar
    11    11     8   ar
    12     1     2   ar
    13     2     6   ar
    14     6     7   ar
    15     7     8   ar
    16     8     3   ar
    17     3     1   ar
