@<TRIPOS>MOLECULE
No_1807-gen_results/8p0m/2024-11-26-14-13-15/
 35 39 0 0 0
SMALL
GASTEIGER

@<TRIPOS>ATOM
      1 C         -28.0162   -0.8135   28.8779 C.ar    1  UNL1        0.0060
      2 C         -28.4690   -0.7850   29.8287 C.ar    1  UNL1        0.0522
      3 C         -26.5455   -0.8762   28.8500 C.ar    1  UNL1        0.0178
      4 C         -25.6825   -0.7773   27.6829 C.ar    1  UNL1        0.0016
      5 C         -29.9909   -0.7300   29.9814 C.ar    1  UNL1        0.1467
      6 C         -24.2640   -0.7731   27.9513 C.ar    1  UNL1        0.0034
      7 C         -23.7548   -0.9500   29.2468 C.ar    1  UNL1        0.0437
      8 C         -25.6279   -1.0194   30.0116 C.ar    1  UNL1        0.0814
      9 C         -24.4691   -1.0218   30.2986 C.ar    1  UNL1        0.0224
     10 C         -30.6810   -1.1403   31.0486 C.ar    1  UNL1        0.0376
     11 C         -29.9624   -1.3797   32.2797 C.ar    1  UNL1        0.0047
     12 C         -28.6140   -1.4770   32.2893 C.ar    1  UNL1        0.0193
     13 C         -27.9235   -1.3059   31.1768 C.ar    1  UNL1        0.0842
     14 N         -26.6728   -1.2312   31.2211 N.ar    1  UNL1       -0.2453
     15 C         -22.1869   -0.8923   29.2221 C.2     1  UNL1        0.2342
     16 O         -21.5877    0.0414   28.6720 O.2     1  UNL1       -0.2831
     17 O         -30.6235   -0.4620   28.8860 O.3     1  UNL1       -0.4532
     18 C         -30.5432    0.7396   28.3043 C.ar    1  UNL1        0.1515
     19 C         -30.6111    0.7462   26.9043 C.ar    1  UNL1        0.1142
     20 C         -30.1047    1.8569   26.2398 C.ar    1  UNL1        0.0097
     21 C         -29.6769    3.0249   26.8777 C.ar    1  UNL1        0.0004
     22 C         -29.6288    2.9469   28.2831 C.ar    1  UNL1        0.0029
     23 C         -29.9285    1.7910   28.9768 C.ar    1  UNL1        0.0345
     24 C         -31.0461   -0.3616   26.1653 C.2     1  UNL1        0.3907
     25 O         -30.4869   -0.7332   25.1356 O.co2   1  UNL1       -0.2404
     26 O         -32.2122   -0.8595   26.4302 O.co2   1  UNL1       -0.2404
     27 C         -29.1930    4.1973   29.0313 C.ar    1  UNL1       -0.0002
     28 C         -29.4578    4.3417   30.2232 C.ar    1  UNL1       -0.0036
     29 C         -30.2402    3.5121   31.0064 C.ar    1  UNL1       -0.0142
     30 C         -30.3777    2.1538   30.3784 C.ar    1  UNL1       -0.0006
     31 C         -30.4256    3.5626   32.4278 C.3     1  UNL1        0.0661
     32 C         -31.3241    4.4277   32.8723 C.2     1  UNL1       -0.0177
     33 C         -31.6164    4.4522   34.2140 C.2     1  UNL1       -0.0042
     34 C         -29.2378    3.4683   33.2273 C.2     1  UNL1       -0.0177
     35 C         -29.4748    3.4612   34.6697 C.2     1  UNL1       -0.0042
@<TRIPOS>BOND
     1     7    15    1
     2    15    16    2
     3     5    17    1
     4    17    18    1
     5    19    24    1
     6    24    25   ar
     7    24    26   ar
     8    29    31    1
     9    31    32    1
    10    32    33    2
    11    31    34    1
    12    34    35    2
    13    18    19   ar
    14    19    20   ar
    15    20    21   ar
    16    21    22   ar
    17    23    18   ar
    18     3     4   ar
    19     4     6   ar
    20     6     7   ar
    21     7     9   ar
    22     9     8   ar
    23     2     5   ar
    24     5    10   ar
    25    10    11   ar
    26    11    12   ar
    27    12    13   ar
    28    22    23   ar
    29    23    30   ar
    30    30    29   ar
    31    29    28   ar
    32    28    27   ar
    33    27    22   ar
    34     1     2   ar
    35     2    13   ar
    36    13    14   ar
    37    14     8   ar
    38     8     3   ar
    39     3     1   ar
