@<TRIPOS>MOLECULE
No_1808-gen_results/8p0m/2024-11-26-14-13-15/
 15 16 0 0 0
SMALL
GASTEIGER

@<TRIPOS>ATOM
      1 C         -28.0162   -0.8135   28.8779 C.ar    1  UNL1        0.0369
      2 C         -28.4690   -0.7850   29.8287 C.ar    1  UNL1        0.0031
      3 C         -28.1960    0.3478   28.0550 C.ar    1  UNL1        0.1391
      4 C         -29.0191    1.3501   28.3782 C.ar    1  UNL1        0.0369
      5 C         -29.4107    0.1803   30.3782 C.ar    1  UNL1        0.0002
      6 C         -29.6059    1.2495   29.6193 C.ar    1  UNL1        0.0031
      7 O         -27.5003    0.3576   26.8164 O.3     1  UNL1       -0.4707
      8 C         -26.4976    1.3388   26.6595 C.3     1  UNL1        0.2315
      9 C         -25.2287    0.7278   26.6101 C.2     1  UNL1        0.0162
     10 C         -24.0880    1.5526   26.6229 C.2     1  UNL1       -0.0250
     11 C         -22.7905    1.0978   26.8973 C.3     1  UNL1        0.0521
     12 C         -21.7701    2.1256   27.0157 C.3     1  UNL1        0.1298
     13 N         -20.6380    1.7025   27.6823 N.2     1  UNL1       -0.2732
     14 C         -20.7860    0.4632   28.2769 C.2     1  UNL1        0.0671
     15 C         -22.4556    0.1539   27.9611 C.3     1  UNL1        0.0529
@<TRIPOS>BOND
     1     3     7    1
     2     7     8    1
     3     8     9    1
     4     9    10    2
     5    10    11    1
     6    11    12    1
     7    12    13    1
     8    13    14    2
     9    11    15    1
    10    14    15    1
    11     1     2   ar
    12     2     5   ar
    13     5     6   ar
    14     6     4   ar
    15     4     3   ar
    16     3     1   ar
