@<TRIPOS>MOLECULE
No_1809-gen_results/8p0m/2024-11-26-14-13-15/
 22 23 0 0 0
SMALL
GASTEIGER

@<TRIPOS>ATOM
      1 C         -28.0162   -0.8135   28.8779 C.ar    1  UNL1        0.1963
      2 C         -27.0636   -0.1190   28.6079 C.ar    1  UNL1        0.0534
      3 C         -26.9716    0.7139   27.5060 C.ar    1  UNL1        0.0606
      4 C         -28.1053    0.7744   26.6421 C.ar    1  UNL1        0.0084
      5 C         -29.2008    0.1044   27.0527 C.ar    1  UNL1       -0.0013
      6 C         -29.2096   -0.6029   28.1853 C.ar    1  UNL1        0.0389
      7 C         -30.3702    0.2264   26.1604 C.3     1  UNL1        0.1479
      8 C         -31.0706    1.2007   26.0929 C.ar    1  UNL1       -0.0053
      9 C         -30.0570   -0.4814   24.8236 C.2     1  UNL1       -0.0083
     10 O         -28.0209   -1.5768   30.0521 O.3     1  UNL1       -0.2866
     11 C         -31.3919   -0.9623   26.6802 C.2     1  UNL1        0.3748
     12 O         -31.6800   -1.0322   27.7909 O.co2   1  UNL1       -0.2446
     13 O         -31.7980   -1.8845   25.8445 O.co2   1  UNL1       -0.2446
     14 CL        -25.4936    1.5294   27.0372 Cl      1  UNL1       -0.0821
     15 C         -30.9846    2.1903   27.0788 C.ar    1  UNL1       -0.0032
     16 C         -31.6753    3.4927   26.9667 C.ar    1  UNL1       -0.0003
     17 C         -31.8319    1.6628   25.0083 C.ar    1  UNL1       -0.0032
     18 C         -32.5173    2.8504   24.8161 C.ar    1  UNL1       -0.0003
     19 C         -32.3732    3.7919   25.8637 C.ar    1  UNL1       -0.0000
     20 C         -28.8964    0.1777   24.2724 C.2     1  UNL1       -0.0065
     21 C         -30.2138   -1.6316   24.2570 C.3     1  UNL1        0.1325
     22 N         -29.7242   -1.9569   23.0714 N.3     1  UNL1       -0.1265
@<TRIPOS>BOND
     1     5     7    1
     2     7     8    1
     3     7     9    1
     4     1    10    1
     5     7    11    1
     6    11    12   ar
     7    11    13   ar
     8     3    14    1
     9     9    20    2
    10     9    21    1
    11    21    22    1
    12     1     2   ar
    13     2     3   ar
    14     3     4   ar
    15     4     5   ar
    16     5     6   ar
    17     6     1   ar
    18     8    15   ar
    19    15    16   ar
    20    16    19   ar
    21    19    18   ar
    22    18    17   ar
    23    17     8   ar
