@<TRIPOS>MOLECULE
No_181-gen_results/8p0m/2024-11-26-14-13-15/
 6 6 0 0 0
SMALL
GASTEIGER

@<TRIPOS>ATOM
      1 C         -28.0162   -0.8135   28.8779 C.ar    1  UNL1        0.0000
      2 C         -27.0636   -0.1189   28.6079 C.ar    1  UNL1        0.0000
      3 C         -25.7902   -0.2340   29.1297 C.ar    1  UNL1        0.0000
      4 C         -25.5192   -1.2814   30.1157 C.ar    1  UNL1        0.0000
      5 C         -26.6757   -2.0962   30.3881 C.ar    1  UNL1        0.0000
      6 C         -27.8504   -1.8814   29.8335 C.ar    1  UNL1        0.0000
@<TRIPOS>BOND
     1     1     2   ar
     2     2     3   ar
     3     3     4   ar
     4     4     5   ar
     5     5     6   ar
     6     6     1   ar
