@<TRIPOS>MOLECULE
No_1810-gen_results/8p0m/2024-11-26-14-13-15/
 19 20 0 0 0
SMALL
GASTEIGER

@<TRIPOS>ATOM
      1 C         -28.0162   -0.8135   28.8779 C.ar    1  UNL1        0.0070
      2 C         -28.4690   -0.7850   29.8287 C.ar    1  UNL1        0.0715
      3 C         -28.1960    0.3478   28.0550 C.ar    1  UNL1        0.0389
      4 C         -29.0191    1.3501   28.3782 C.ar    1  UNL1        0.0032
      5 C         -28.3170   -1.9812   30.8560 C.3     1  UNL1        0.4186
      6 C         -29.5950    1.2859   29.6049 C.ar    1  UNL1        0.0000
      7 C         -29.3465    0.2093   30.3749 C.ar    1  UNL1        0.0039
      8 F         -27.6425   -1.7250   31.6976 F       1  UNL1       -0.1659
      9 F         -29.5781   -2.4357   31.2523 F       1  UNL1       -0.1659
     10 F         -27.7667   -3.0404   30.1323 F       1  UNL1       -0.1659
     11 C         -27.4492    0.3791   26.6653 C.2     1  UNL1        0.1955
     12 C         -26.0308    0.3931   26.6696 C.ar    1  UNL1        0.0391
     13 C         -25.2267    0.0428   27.6958 C.ar    1  UNL1        0.0055
     14 C         -24.2044    0.6844   28.2509 C.ar    1  UNL1        0.0297
     15 C         -23.5120    1.5433   27.3250 C.ar    1  UNL1        0.1401
     16 C         -24.1165    1.8750   26.0963 C.ar    1  UNL1        0.0297
     17 C         -25.2471    0.6317   25.5113 C.ar    1  UNL1        0.0055
     18 O         -28.0682    0.0388   25.6357 O.2     1  UNL1       -0.2866
     19 F         -22.4459    2.1533   27.6068 F       1  UNL1       -0.2042
@<TRIPOS>BOND
     1     2     5    1
     2     5     8    1
     3     5     9    1
     4     5    10    1
     5     3    11    1
     6    11    12    1
     7    11    18    2
     8    15    19    1
     9    12    13   ar
    10    13    14   ar
    11    14    15   ar
    12    15    16   ar
    13    16    17   ar
    14    17    12   ar
    15     1     2   ar
    16     2     7   ar
    17     7     6   ar
    18     6     4   ar
    19     4     3   ar
    20     3     1   ar
