@<TRIPOS>MOLECULE
No_1813-gen_results/8p0m/2024-11-26-14-13-15/
 15 16 0 0 0
SMALL
GASTEIGER

@<TRIPOS>ATOM
      1 C         -28.0162   -0.8135   28.8779 C.ar    1  UNL1        0.0410
      2 C         -27.0636   -0.1189   28.6079 C.ar    1  UNL1        0.0599
      3 C         -25.7923   -0.4302   29.0761 C.ar    1  UNL1        0.0108
      4 C         -25.5756   -1.5654   29.9363 C.ar    1  UNL1        0.0031
      5 C         -26.7354   -2.3004   30.2173 C.ar    1  UNL1        0.0297
      6 C         -27.9184   -1.9537   29.7629 C.ar    1  UNL1        0.1410
      7 CL        -27.1463    1.2916   27.6407 Cl      1  UNL1       -0.0822
      8 F         -28.9655   -2.7040   30.0730 F       1  UNL1       -0.2041
      9 C         -24.5144    0.3687   28.7731 C.ar    1  UNL1        0.0030
     10 C         -23.3883   -0.1106   28.9382 C.ar    1  UNL1        0.0297
     11 C         -22.1697    0.6358   28.7571 C.ar    1  UNL1        0.1401
     12 C         -22.2191    1.7076   27.9095 C.ar    1  UNL1        0.0296
     13 C         -23.4871    2.2594   27.5972 C.ar    1  UNL1        0.0023
     14 C         -24.6327    1.5622   27.9861 C.ar    1  UNL1        0.0002
     15 F         -21.0061    0.0263   28.9721 F       1  UNL1       -0.2042
@<TRIPOS>BOND
     1     2     7    1
     2     6     8    1
     3     3     9    1
     4    11    15    1
     5     1     2   ar
     6     2     3   ar
     7     3     4   ar
     8     4     5   ar
     9     5     6   ar
    10     6     1   ar
    11     9    10   ar
    12    10    11   ar
    13    11    12   ar
    14    12    13   ar
    15    13    14   ar
    16    14     9   ar
