@<TRIPOS>MOLECULE
No_1816-gen_results/8p0m/2024-11-26-14-13-15/
 23 25 0 0 0
SMALL
GASTEIGER

@<TRIPOS>ATOM
      1 C         -28.0162   -0.8135   28.8779 C.ar    1  UNL1       -0.0036
      2 C         -27.0636   -0.1189   28.6079 C.ar    1  UNL1       -0.0143
      3 C         -25.7923   -0.4302   29.0761 C.ar    1  UNL1       -0.0036
      4 C         -25.5756   -1.5654   29.9363 C.ar    1  UNL1       -0.0003
      5 C         -26.7354   -2.3004   30.2173 C.ar    1  UNL1       -0.0000
      6 C         -27.9184   -1.9537   29.7629 C.ar    1  UNL1       -0.0003
      7 C         -27.1057    1.1023   27.7593 C.3     1  UNL1        0.0666
      8 C         -26.7157    2.2350   27.9945 C.ar    1  UNL1       -0.0143
      9 C         -26.0688    2.4770   29.3567 C.ar    1  UNL1       -0.0036
     10 C         -25.4405    3.7637   29.5605 C.ar    1  UNL1       -0.0003
     11 C         -25.5223    4.7219   28.6224 C.ar    1  UNL1       -0.0000
     12 C         -26.0122    4.4992   27.3532 C.ar    1  UNL1       -0.0003
     13 C         -26.5923    3.2654   27.0520 C.ar    1  UNL1       -0.0036
     14 C         -27.7989    0.8276   26.4673 C.ar    1  UNL1       -0.0119
     15 C         -29.1095    1.0778   26.3266 C.ar    1  UNL1        0.0761
     16 C         -27.0644    0.3285   25.4032 C.ar    1  UNL1       -0.0250
     17 C         -29.7744    0.8028   25.1803 C.ar    1  UNL1        0.0063
     18 C         -25.6424   -0.0040   25.5322 C.3     1  UNL1        0.0307
     19 C         -29.0489    0.3294   24.0915 C.ar    1  UNL1       -0.0001
     20 C         -27.7383    0.0917   24.2021 C.ar    1  UNL1       -0.0045
     21 C         -29.9833    1.6631   27.4767 C.2     1  UNL1        0.3875
     22 O         -29.8106    2.6238   28.0526 O.co2   1  UNL1       -0.2406
     23 O         -30.9890    0.8523   27.8209 O.co2   1  UNL1       -0.2406
@<TRIPOS>BOND
     1     2     7    1
     2     7    14    1
     3    16    18    1
     4    15    21    1
     5    21    22   ar
     6    21    23   ar
     7     7     8    1
     8     1     2   ar
     9     2     3   ar
    10     3     4   ar
    11     4     5   ar
    12     5     6   ar
    13     6     1   ar
    14    14    15   ar
    15    15    17   ar
    16    17    19   ar
    17    19    20   ar
    18    20    16   ar
    19    16    14   ar
    20     8     9   ar
    21     9    10   ar
    22    10    11   ar
    23    11    12   ar
    24    12    13   ar
    25    13     8   ar
