@<TRIPOS>MOLECULE
No_1817-gen_results/8p0m/2024-11-26-14-13-15/
 19 20 0 0 0
SMALL
GASTEIGER

@<TRIPOS>ATOM
      1 C         -28.0162   -0.8135   28.8779 C.ar    1  UNL1        0.0162
      2 C         -28.4690   -0.7850   29.8287 C.ar    1  UNL1        0.0013
      3 C         -26.5455   -0.8762   28.8500 C.ar    1  UNL1        0.0678
      4 C         -25.8041   -1.0324   30.0571 C.ar    1  UNL1        0.0092
      5 C         -26.5373   -1.0386   31.2171 C.ar    1  UNL1       -0.0016
      6 C         -27.8843   -0.9532   31.1862 C.ar    1  UNL1       -0.0002
      7 C         -24.3555   -1.1121   30.0346 C.3     1  UNL1        0.1015
      8 N         -23.7015    0.0586   29.8442 N.3     1  UNL1       -0.2540
      9 C         -23.7841    1.1403   30.5806 C.3     1  UNL1        0.1640
     10 C         -23.3725    0.4291   28.4763 C.3     1  UNL1        0.0752
     11 C         -22.8932    1.7110   28.2325 C.3     1  UNL1        0.0362
     12 N         -23.9413    2.1995   30.4362 N.3     1  UNL1       -0.2008
     13 C         -23.3812    2.7245   29.2193 C.3     1  UNL1        0.0917
     14 N         -25.8185   -0.8344   27.6491 N.pl3   1  UNL1       -0.2114
     15 C         -26.1610   -0.0526   26.5681 C.2     1  UNL1        0.0856
     16 C         -26.9002    1.1220   26.7412 C.2     1  UNL1        0.0175
     17 C         -26.9888    1.7454   27.8671 C.2     1  UNL1       -0.0032
     18 C         -27.5754    3.0957   28.0083 C.2     1  UNL1       -0.0257
     19 C         -28.0996    3.5688   26.8533 C.3     1  UNL1        0.0307
@<TRIPOS>BOND
     1     4     7    1
     2     7     8    1
     3     8     9    1
     4     8    10    1
     5     9    12    1
     6    11    13    1
     7     3    14    1
     8    14    15    1
     9    15    16    2
    10    16    17    1
    11    17    18    2
    12    18    19    1
    13    12    13    1
    14    11    10    1
    15     1     2   ar
    16     2     6   ar
    17     6     5   ar
    18     5     4   ar
    19     4     3   ar
    20     3     1   ar
