@<TRIPOS>MOLECULE
No_1818-gen_results/8p0m/2024-11-26-14-13-15/
 12 13 0 0 0
SMALL
GASTEIGER

@<TRIPOS>ATOM
      1 C         -28.0162   -0.8135   28.8779 C.ar    1  UNL1        0.0000
      2 C         -27.0636   -0.1189   28.6079 C.ar    1  UNL1        0.0015
      3 C         -25.7647   -0.3897   29.0360 C.ar    1  UNL1        0.0178
      4 C         -25.5296   -1.5302   29.9014 C.ar    1  UNL1        0.0015
      5 C         -26.6888   -2.2893   30.1810 C.ar    1  UNL1        0.0000
      6 C         -27.8727   -1.9508   29.7373 C.ar    1  UNL1        0.0000
      7 C         -24.5491    0.4100   28.7341 C.ar    1  UNL1        0.0846
      8 N         -24.4645    1.1820   27.7527 N.ar    1  UNL1       -0.2240
      9 C         -23.3426    1.7966   27.4071 C.ar    1  UNL1        0.1989
     10 N         -22.2034    1.5776   28.0955 N.ar    1  UNL1       -0.2224
     11 C         -23.2828    0.2005   29.4313 C.ar    1  UNL1        0.0398
     12 C         -22.1443    0.8344   29.0920 C.ar    1  UNL1        0.1022
@<TRIPOS>BOND
     1     3     7    1
     2     7     8   ar
     3     8     9   ar
     4     9    10   ar
     5    10    12   ar
     6    12    11   ar
     7    11     7   ar
     8     1     2   ar
     9     2     3   ar
    10     3     4   ar
    11     4     5   ar
    12     5     6   ar
    13     6     1   ar
