@<TRIPOS>MOLECULE
No_1819-gen_results/8p0m/2024-11-26-14-13-15/
 35 38 0 0 0
SMALL
GASTEIGER

@<TRIPOS>ATOM
      1 C         -28.0162   -0.8135   28.8779 C.ar    1  UNL1        0.0006
      2 C         -28.4690   -0.7850   29.8287 C.ar    1  UNL1        0.0533
      3 C         -26.5042   -0.7777   28.8766 C.ar    1  UNL1       -0.0176
      4 C         -25.8103   -0.8531   30.1028 C.ar    1  UNL1       -0.0039
      5 C         -27.9906   -0.8916   31.2257 C.ar    1  UNL1        0.0045
      6 C         -26.6042   -0.8676   31.2652 C.ar    1  UNL1       -0.0002
      7 C         -30.0739   -0.8360   29.8615 C.2     1  UNL1        0.2491
      8 O         -30.6891   -1.6554   30.2229 O.2     1  UNL1       -0.2699
      9 N         -30.6022    0.4333   29.5984 N.am    1  UNL1       -0.2736
     10 C         -32.0098    0.5508   29.4757 C.3     1  UNL1        0.1231
     11 C         -32.3458    1.5388   28.7508 C.3     1  UNL1        0.1355
     12 C         -31.4426    2.5780   28.2707 C.3     1  UNL1        0.0331
     13 C         -30.0496    2.3198   28.4141 C.3     1  UNL1        0.0241
     14 C         -29.6438    1.2549   28.9641 C.3     1  UNL1        0.0939
     15 C         -25.6593   -0.6799   27.6652 C.3     1  UNL1        0.0526
     16 C         -25.8785    0.3579   26.7255 C.ar    1  UNL1       -0.0178
     17 C         -24.9771    0.6275   25.7797 C.ar    1  UNL1       -0.0039
     18 C         -25.1839    1.4968   24.7462 C.ar    1  UNL1       -0.0003
     19 C         -26.3068    2.3907   24.9574 C.ar    1  UNL1       -0.0000
     20 C         -26.9008    1.3693   26.6250 C.ar    1  UNL1       -0.0039
     21 C         -27.1552    2.2589   25.8329 C.ar    1  UNL1       -0.0003
     22 O         -33.6331    1.9925   28.9659 O.3     1  UNL1       -0.3497
     23 C         -34.0381    2.9362   29.7305 C.3     1  UNL1        0.1685
     24 C         -35.0996    3.4792   29.4669 C.ar    1  UNL1        0.0073
     25 C         -36.0067    3.1019   28.5042 C.ar    1  UNL1       -0.0017
     26 C         -37.2603    3.7620   28.2019 C.ar    1  UNL1        0.0043
     27 C         -37.5521    4.8992   29.0091 C.ar    1  UNL1        0.0554
     28 C         -36.7527    5.3585   29.9871 C.ar    1  UNL1        0.0043
     29 C         -35.5424    4.7038   30.2600 C.ar    1  UNL1       -0.0017
     30 C         -38.8536    5.5436   28.6703 C.2     1  UNL1        0.2690
     31 O         -39.1594    6.5800   29.1996 O.2     1  UNL1       -0.2680
     32 N         -39.6121    4.9449   27.7716 N.am    1  UNL1       -0.1745
     33 C         -40.8698    5.4698   27.3909 C.2     1  UNL1        0.0844
     34 C         -41.5409    4.8345   26.5661 C.2     1  UNL1       -0.0079
     35 C         -41.0567    3.6850   25.9920 C.3     1  UNL1        0.0321
@<TRIPOS>BOND
     1     2     7    1
     2     7     8    2
     3     7     9   am
     4     9    10    1
     5    11    12    1
     6     9    14    1
     7    13    14    1
     8     3    15    1
     9    15    16    1
    10    11    22    1
    11    22    23    1
    12    27    30    1
    13    30    31    2
    14    30    32   am
    15    32    33    1
    16    33    34    2
    17    34    35    1
    18    23    24    1
    19    10    11    1
    20    12    13    1
    21    24    25   ar
    22    25    26   ar
    23    26    27   ar
    24    27    28   ar
    25    28    29   ar
    26    29    24   ar
    27     1     2   ar
    28     2     5   ar
    29     5     6   ar
    30     6     4   ar
    31     4     3   ar
    32     3     1   ar
    33    16    17   ar
    34    17    18   ar
    35    18    19   ar
    36    19    21   ar
    37    21    20   ar
    38    20    16   ar
