@<TRIPOS>MOLECULE
No_182-gen_results/8p0m/2024-11-26-14-13-15/
 35 37 0 0 0
SMALL
GASTEIGER

@<TRIPOS>ATOM
      1 C         -28.0162   -0.8135   28.8779 C.ar    1  UNL1        0.0063
      2 C         -28.4690   -0.7850   29.8287 C.ar    1  UNL1        0.0798
      3 C         -26.5455   -0.8762   28.8500 C.ar    1  UNL1       -0.0040
      4 C         -25.8041   -1.0324   30.0571 C.ar    1  UNL1       -0.0219
      5 C         -27.9437   -0.9869   31.2075 C.ar    1  UNL1        0.0063
      6 C         -26.5825   -1.0386   31.2231 C.ar    1  UNL1       -0.0040
      7 C         -24.3810   -1.1082   30.0855 C.3     1  UNL1        0.0307
      8 C         -23.7054    0.0955   29.8440 C.3     1  UNL1        0.0264
      9 C         -23.3084    0.5206   28.6549 C.2     1  UNL1       -0.0261
     10 C         -22.9442    1.3542   28.1350 C.2     1  UNL1       -0.0049
     11 C         -22.4518    1.4972   26.7761 C.2     1  UNL1       -0.0042
     12 C         -23.1513    1.9008   25.7097 C.2     1  UNL1       -0.0161
     13 C         -24.4806    2.2434   25.8859 C.3     1  UNL1        0.0851
     14 C         -25.4418    1.2946   25.6780 C.ar    1  UNL1       -0.0128
     15 C         -25.1624   -0.0078   25.2702 C.ar    1  UNL1       -0.0036
     16 C         -26.2924   -0.8212   24.9628 C.ar    1  UNL1       -0.0003
     17 C         -27.5578   -0.2143   24.8220 C.ar    1  UNL1       -0.0000
     18 C         -27.8508    1.0918   25.1870 C.ar    1  UNL1       -0.0003
     19 C         -26.7711    1.9285   25.5351 C.ar    1  UNL1       -0.0036
     20 C         -30.1042   -0.6923   29.8366 C.2     1  UNL1        0.3878
     21 O         -30.5112   -0.1241   28.9211 O.co2   1  UNL1       -0.2406
     22 O         -30.7587   -0.8280   30.9204 O.co2   1  UNL1       -0.2406
     23 C         -22.7362    0.5061   30.9158 C.3     1  UNL1        0.0050
     24 C         -24.8491    3.6020   26.2716 C.2     1  UNL1        0.0752
     25 N         -25.1278    4.0584   27.2185 N.2     1  UNL1       -0.2709
     26 C         -25.4792    3.4557   28.4012 C.3     1  UNL1        0.1479
     27 C         -25.9053    4.2384   29.5735 C.3     1  UNL1        0.1141
     28 N         -26.1775    3.5732   30.6970 N.ar    1  UNL1       -0.3245
     29 C         -26.0757    2.2155   30.7782 C.ar    1  UNL1        0.0760
     30 C         -26.3646    1.8448   32.1823 C.ar    1  UNL1        0.0202
     31 C         -26.2380    2.9293   32.9339 C.ar    1  UNL1        0.0202
     32 C         -26.1870    4.1828   32.0120 C.ar    1  UNL1        0.0760
     33 C         -27.1106    5.1291   29.1810 C.3     1  UNL1        0.0506
     34 C         -27.6884    5.6435   30.0291 C.2     1  UNL1       -0.0241
     35 C         -28.8825    6.5278   29.6828 C.2     1  UNL1       -0.0048
@<TRIPOS>BOND
     1     4     7    1
     2     7     8    1
     3     8     9    1
     4     9    10    2
     5    10    11    1
     6    11    12    2
     7    12    13    1
     8     2    20    1
     9    20    21   ar
    10    20    22   ar
    11     8    23    1
    12    13    24    1
    13    24    25    2
    14    25    26    1
    15    26    27    1
    16    27    28    1
    17    28    29   ar
    18    29    30   ar
    19    30    31   ar
    20    28    32   ar
    21    31    32   ar
    22    27    33    1
    23    33    34    1
    24    34    35    2
    25    13    14    1
    26    14    15   ar
    27    15    16   ar
    28    16    17   ar
    29    17    18   ar
    30    18    19   ar
    31    19    14   ar
    32     1     2   ar
    33     2     5   ar
    34     5     6   ar
    35     6     4   ar
    36     4     3   ar
    37     3     1   ar
