@<TRIPOS>MOLECULE
No_1820-gen_results/8p0m/2024-11-26-14-13-15/
 18 19 0 0 0
SMALL
GASTEIGER

@<TRIPOS>ATOM
      1 C         -28.0162   -0.8135   28.8779 C.ar    1  UNL1       -0.0042
      2 C         -27.0636   -0.1189   28.6079 C.ar    1  UNL1       -0.0214
      3 C         -26.9287    1.1713   29.0083 C.ar    1  UNL1       -0.0042
      4 C         -27.9560    1.7411   29.7840 C.ar    1  UNL1       -0.0003
      5 C         -29.0569   -0.3271   29.7466 C.ar    1  UNL1       -0.0003
      6 C         -28.9828    0.9722   30.1516 C.ar    1  UNL1       -0.0000
      7 C         -25.8907   -0.6263   27.7857 C.3     1  UNL1        0.0399
      8 C         -24.7183   -1.0610   28.6129 C.3     1  UNL1        0.1047
      9 C         -23.5950   -0.2827   28.8125 C.ar    1  UNL1       -0.0135
     10 C         -23.4356    1.0607   28.2949 C.ar    1  UNL1       -0.0038
     11 C         -22.1708    1.6917   28.3753 C.ar    1  UNL1       -0.0003
     12 C         -21.0787    0.9144   28.6906 C.ar    1  UNL1       -0.0000
     13 C         -21.1396   -0.4062   29.0915 C.ar    1  UNL1       -0.0003
     14 C         -22.4251   -1.0078   29.1175 C.ar    1  UNL1       -0.0038
     15 C         -24.9149   -2.2110   29.4225 C.2     1  UNL1        0.2454
     16 N         -24.5629   -3.3435   28.9473 N.am    1  UNL1       -0.2033
     17 C         -25.2450   -4.5396   29.2177 C.3     1  UNL1        0.1385
     18 O         -25.4732   -2.0975   30.5339 O.2     1  UNL1       -0.2730
@<TRIPOS>BOND
     1     2     7    1
     2     7     8    1
     3     8    15    1
     4    15    16   am
     5    16    17    1
     6    15    18    2
     7     8     9    1
     8     1     2   ar
     9     2     3   ar
    10     3     4   ar
    11     4     6   ar
    12     6     5   ar
    13     5     1   ar
    14     9    10   ar
    15    10    11   ar
    16    11    12   ar
    17    12    13   ar
    18    13    14   ar
    19    14     9   ar
