@<TRIPOS>MOLECULE
No_1821-gen_results/8p0m/2024-11-26-14-13-15/
 9 8 0 0 0
SMALL
GASTEIGER

@<TRIPOS>ATOM
      1 P         -27.9505   -0.5786   29.0402 P.3     1  UNL1        0.5326
      2 O         -27.2401    0.0613   28.4283 O.3     1  UNL1       -0.2699
      3 O         -29.3621   -0.5774   28.6194 O.2     1  UNL1       -0.2224
      4 O         -27.4933   -2.0888   29.1563 O.3     1  UNL1       -0.1145
      5 O         -27.9537   -0.1280   30.6351 O.3     1  UNL1       -0.1145
      6 C         -25.9156    0.1786   28.6707 C.3     1  UNL1        0.1584
      7 C         -25.2904    1.5075   28.8000 C.3     1  UNL1        0.0587
      8 C         -24.6275    1.9418   27.7682 C.2     1  UNL1       -0.0235
      9 C         -25.0914    2.7629   26.9130 C.2     1  UNL1       -0.0048
@<TRIPOS>BOND
     1     1     2    1
     2     1     3    2
     3     1     4    1
     4     1     5    1
     5     2     6    1
     6     6     7    1
     7     7     8    1
     8     8     9    2
