@<TRIPOS>MOLECULE
No_1822-gen_results/8p0m/2024-11-26-14-13-15/
 17 19 0 0 0
SMALL
GASTEIGER

@<TRIPOS>ATOM
      1 C         -28.0162   -0.8135   28.8779 C.ar    1  UNL1       -0.0000
      2 C         -27.0636   -0.1189   28.6079 C.ar    1  UNL1       -0.0003
      3 C         -25.7647   -0.3897   29.0360 C.ar    1  UNL1       -0.0036
      4 C         -25.5296   -1.5302   29.9014 C.ar    1  UNL1       -0.0003
      5 C         -26.6577   -2.2915   30.2035 C.ar    1  UNL1       -0.0000
      6 C         -27.8548   -1.9555   29.7630 C.ar    1  UNL1       -0.0000
      7 C         -24.4389    0.1803   28.7279 C.ar    1  UNL1       -0.0178
      8 C         -23.2667   -0.0774   29.2080 C.ar    1  UNL1       -0.0039
      9 C         -23.2051   -1.3242   29.9589 C.ar    1  UNL1       -0.0003
     10 C         -24.2719   -1.9909   30.3025 C.ar    1  UNL1       -0.0000
     11 C         -24.5213    1.4531   27.8013 C.3     1  UNL1        0.0526
     12 C         -24.8689    2.5243   28.1822 C.ar    1  UNL1       -0.0178
     13 C         -24.9445    3.6745   27.3487 C.ar    1  UNL1       -0.0039
     14 C         -25.2997    4.9922   27.7384 C.ar    1  UNL1       -0.0003
     15 C         -25.6910    5.1849   29.0514 C.ar    1  UNL1       -0.0000
     16 C         -25.6782    4.0752   29.9308 C.ar    1  UNL1       -0.0003
     17 C         -25.2837    2.8448   29.5698 C.ar    1  UNL1       -0.0039
@<TRIPOS>BOND
     1     7    11    1
     2    11    12    1
     3    12    13   ar
     4    13    14   ar
     5    14    15   ar
     6    15    16   ar
     7    16    17   ar
     8    17    12   ar
     9     1     2   ar
    10     2     3   ar
    11     4     5   ar
    12     5     6   ar
    13     6     1   ar
    14     3     4   ar
    15     4    10   ar
    16    10     9   ar
    17     9     8   ar
    18     8     7   ar
    19     7     3   ar
