@<TRIPOS>MOLECULE
No_1823-gen_results/8p0m/2024-11-26-14-13-15/
 13 14 0 0 0
SMALL
GASTEIGER

@<TRIPOS>ATOM
      1 C         -28.0162   -0.8135   28.8779 C.ar    1  UNL1        0.0191
      2 C         -27.0636   -0.1189   28.6079 C.ar    1  UNL1        0.0813
      3 N         -26.9849    0.5972   27.5218 N.ar    1  UNL1       -0.2438
      4 C         -27.9606   -1.5421   30.1660 C.ar    1  UNL1        0.0015
      5 C         -26.7813   -1.6198   30.8836 C.ar    1  UNL1        0.0001
      6 C         -25.6460   -0.9698   30.4630 C.ar    1  UNL1        0.0015
      7 C         -25.7563   -0.1767   29.2863 C.ar    1  UNL1        0.0174
      8 C         -25.9019    0.8964   26.8088 C.ar    1  UNL1        0.0988
      9 C         -24.6132    0.8896   27.4818 C.ar    1  UNL1        0.0204
     10 C         -24.5422    0.3373   28.7078 C.ar    1  UNL1       -0.0010
     11 C         -23.2213    0.2838   29.3790 C.2     1  UNL1       -0.0218
     12 C         -22.1625   -0.4228   28.9007 C.2     1  UNL1       -0.0046
     13 C         -23.1715    0.9101   30.7034 C.3     1  UNL1        0.0310
@<TRIPOS>BOND
     1    10    11    1
     2    11    12    2
     3    11    13    1
     4     1     2   ar
     5     7     6   ar
     6     6     5   ar
     7     5     4   ar
     8     4     1   ar
     9     2     3   ar
    10     3     8   ar
    11     8     9   ar
    12     9    10   ar
    13    10     7   ar
    14     7     2   ar
