@<TRIPOS>MOLECULE
No_1824-gen_results/8p0m/2024-11-26-14-13-15/
 26 28 0 0 0
SMALL
GASTEIGER

@<TRIPOS>ATOM
      1 O         -28.1229   -1.3353   28.4874 O.2     1  UNL1       -0.2699
      2 C         -27.4806   -0.4044   28.7094 C.2     1  UNL1        0.2487
      3 C         -26.3804   -0.0867   27.9394 C.ar    1  UNL1        0.0496
      4 N         -27.4232    0.1749   30.0549 N.am    1  UNL1       -0.2774
      5 C         -26.1558    0.1159   26.9677 C.ar    1  UNL1        0.0040
      6 C         -24.8999    0.6041   26.2249 C.ar    1  UNL1       -0.0015
      7 C         -24.0303    1.0547   26.9836 C.ar    1  UNL1        0.0100
      8 C         -24.0378    0.9051   28.3738 C.ar    1  UNL1       -0.0058
      9 C         -25.1577    0.4744   28.9583 C.ar    1  UNL1       -0.0180
     10 C         -28.5814   -0.2291   30.9242 C.3     1  UNL1        0.0937
     11 C         -22.7468    1.7248   26.3957 C.3     1  UNL1        0.1927
     12 N         -21.8141    2.1057   27.2660 N.3     1  UNL1       -0.1101
     13 CL        -22.7637    2.2648   24.8209 Cl      1  UNL1       -0.0890
     14 C         -28.2160   -0.4069   32.1200 C.3     1  UNL1        0.0216
     15 C         -27.0332    0.2053   32.7479 C.3     1  UNL1        0.0035
     16 C         -26.0773    0.6483   31.7965 C.3     1  UNL1        0.0202
     17 C         -26.2936    0.5562   30.5059 C.3     1  UNL1        0.0799
     18 C         -26.2958    1.8618   30.2337 C.3     1  UNL1        0.0445
     19 C         -24.5327   -0.7161   29.6997 C.3     1  UNL1        0.0265
     20 C         -26.7456    2.8109   30.8807 C.2     1  UNL1       -0.0248
     21 C         -26.7848    4.2279   30.2868 C.2     1  UNL1       -0.0091
     22 C         -26.1732    4.3787   29.0536 C.2     1  UNL1       -0.0264
     23 C         -26.2327    5.6434   28.4241 C.2     1  UNL1       -0.0300
     24 C         -25.8573    2.5756   28.8705 C.3     1  UNL1        0.0320
     25 C         -24.2993   -1.9800   29.1279 C.3     1  UNL1        0.0050
     26 C         -25.8552    5.6029   27.0884 C.3     1  UNL1        0.0304
@<TRIPOS>BOND
     1     1     2    2
     2     2     3    1
     3     2     4   am
     4     4    10    1
     5     7    11    1
     6    11    12    1
     7    11    13    1
     8    14    15    1
     9    15    16    1
    10     4    17    1
    11    16    17    1
    12    17    18    1
    13     9    19    1
    14    18    20    1
    15    20    21    2
    16    21    22    1
    17    22    23    2
    18    18    24    1
    19    22    24    1
    20    19    25    1
    21    23    26    1
    22    10    14    1
    23     3     5   ar
    24     5     6   ar
    25     6     7   ar
    26     7     8   ar
    27     8     9   ar
    28     9     3   ar
