@<TRIPOS>MOLECULE
No_1825-gen_results/8p0m/2024-11-26-14-13-15/
 7 6 0 0 0
SMALL
GASTEIGER

@<TRIPOS>ATOM
      1 CL        -28.1493   -0.8198   28.9079 Cl      1  UNL1       -0.0455
      2 C         -27.8339    0.4961   29.0598 C.3     1  UNL1        0.3458
      3 F         -27.7903    1.1418   28.0451 F       1  UNL1       -0.1852
      4 C         -28.6323    1.2373   30.1065 C.3     1  UNL1        0.1719
      5 F         -26.5233    0.5319   29.5428 F       1  UNL1       -0.1852
      6 N         -29.7654    0.9112   30.3232 N.3     1  UNL1       -0.2096
      7 C         -30.3745    0.1137   29.7475 C.3     1  UNL1        0.1077
@<TRIPOS>BOND
     1     1     2    1
     2     2     3    1
     3     2     4    1
     4     2     5    1
     5     4     6    1
     6     6     7    1
