@<TRIPOS>MOLECULE
No_1826-gen_results/8p0m/2024-11-26-14-13-15/
 34 38 0 0 0
SMALL
GASTEIGER

@<TRIPOS>ATOM
      1 C         -28.0162   -0.8135   28.8779 C.ar    1  UNL1        0.0146
      2 C         -28.4690   -0.7850   29.8287 C.ar    1  UNL1        0.0013
      3 C         -27.1356    0.2359   28.5352 C.ar    1  UNL1        0.0496
      4 N         -26.3686    0.2641   27.3086 N.pl3   1  UNL1       -0.2845
      5 C         -28.3598    0.2048   30.9043 C.ar    1  UNL1        0.0001
      6 C         -27.5089    1.2636   30.6291 C.ar    1  UNL1        0.0012
      7 C         -26.8155    1.2848   29.4167 C.ar    1  UNL1        0.0146
      8 C         -26.7930    0.6612   26.1676 C.3     1  UNL1        0.1351
      9 C         -25.9383    0.4819   25.0425 C.3     1  UNL1        0.0369
     10 C         -25.0421   -0.2544   27.3097 C.3     1  UNL1        0.1351
     11 N         -24.5821   -0.6463   28.6441 N.3     1  UNL1       -0.2583
     12 C         -24.5524    0.2162   25.1615 C.3     1  UNL1        0.0063
     13 C         -24.1052   -0.0459   26.4270 C.3     1  UNL1        0.0369
     14 C         -24.5999   -1.9127   29.0346 C.3     1  UNL1        0.0735
     15 C         -23.8342    0.2608   29.4593 C.3     1  UNL1        0.0735
     16 C         -23.1674    0.1757   30.2054 C.3     1  UNL1        0.0174
     17 C         -23.1447   -1.1515   30.8953 C.3     1  UNL1        0.0029
     18 C         -23.7898   -2.1709   30.2130 C.3     1  UNL1        0.0174
     19 N         -28.0891    0.9153   25.9559 N.3     1  UNL1       -0.2583
     20 C         -28.7085    1.9240   26.6690 C.3     1  UNL1        0.0740
     21 C         -30.1467    2.0542   26.4891 C.3     1  UNL1        0.0265
     22 C         -28.8093    0.3175   25.0089 C.3     1  UNL1        0.0740
     23 C         -30.1826    0.3663   24.8711 C.3     1  UNL1        0.0265
     24 C         -30.5818    1.3565   25.8074 C.3     1  UNL1        0.0810
     25 C         -32.1448    1.2584   25.6204 C.2     1  UNL1        0.2410
     26 C         -27.2925    2.3458   31.6511 C.ar    1  UNL1        0.0000
     27 C         -26.9362    3.5192   31.4895 C.ar    1  UNL1        0.0000
     28 C         -26.6685    4.4786   32.5418 C.ar    1  UNL1        0.0000
     29 C         -26.8250    4.0566   33.8775 C.ar    1  UNL1        0.0000
     30 C         -27.1798    2.7459   34.0972 C.ar    1  UNL1        0.0000
     31 C         -27.3721    1.8625   33.0711 C.ar    1  UNL1        0.0000
     32 O         -32.8682    0.8329   24.9121 O.2     1  UNL1       -0.2734
     33 N         -32.9335    1.8210   26.8584 N.am    1  UNL1       -0.2035
     34 C         -34.3376    1.8139   26.8927 C.3     1  UNL1        0.1385
@<TRIPOS>BOND
     1     3     4    1
     2     4     8    1
     3     4    10    1
     4    10    11    1
     5     9    12    1
     6    10    13    1
     7    12    13    1
     8    11    14    1
     9    11    15    1
    10    16    17    1
    11    17    18    1
    12     8    19    1
    13    19    20    1
    14    19    22    1
    15    21    24    1
    16    23    24    1
    17    24    25    1
    18     6    26    1
    19    25    32    2
    20    25    33   am
    21    33    34    1
    22    14    18    1
    23    16    15    1
    24    20    21    1
    25    23    22    1
    26     8     9    1
    27     1     2   ar
    28     2     5   ar
    29     5     6   ar
    30     6     7   ar
    31     7     3   ar
    32     3     1   ar
    33    26    27   ar
    34    27    28   ar
    35    28    29   ar
    36    29    30   ar
    37    30    31   ar
    38    31    26   ar
