@<TRIPOS>MOLECULE
No_1828-gen_results/8p0m/2024-11-26-14-13-15/
 20 21 0 0 0
SMALL
GASTEIGER

@<TRIPOS>ATOM
      1 C         -28.0162   -0.8135   28.8779 C.ar    1  UNL1        0.0285
      2 C         -27.0636   -0.1190   28.6079 C.ar    1  UNL1        0.0805
      3 C         -25.7647   -0.3897   29.0360 C.ar    1  UNL1        0.1537
      4 C         -25.5296   -1.5302   29.9014 C.ar    1  UNL1        0.0318
      5 C         -26.6888   -2.2893   30.1810 C.ar    1  UNL1        0.0138
      6 C         -27.8727   -1.9508   29.7373 C.ar    1  UNL1        0.0591
      7 CL        -29.1941   -2.9228   30.2191 Cl      1  UNL1       -0.0822
      8 F         -24.8139    0.5573   28.7778 F       1  UNL1       -0.2029
      9 N         -27.1626    1.0598   27.8198 N.pl3   1  UNL1       -0.2821
     10 C         -26.6214    1.2317   26.5972 C.3     1  UNL1        0.0997
     11 C         -25.6146    0.6637   26.2326 C.3     1  UNL1        0.0267
     12 C         -27.7792    1.0401   25.6497 C.ar    1  UNL1       -0.0040
     13 C         -27.4162    2.1618   28.6434 C.2     1  UNL1        0.0610
     14 C         -27.7333    0.2074   24.6319 C.ar    1  UNL1       -0.0027
     15 C         -28.8952   -0.1004   23.9038 C.ar    1  UNL1       -0.0003
     16 C         -30.0211    0.6511   24.0562 C.ar    1  UNL1       -0.0000
     17 C         -30.0822    1.6500   25.0666 C.ar    1  UNL1       -0.0003
     18 C         -28.9938    1.8434   25.8733 C.ar    1  UNL1       -0.0027
     19 C         -26.5000    3.0771   29.0958 C.2     1  UNL1       -0.0097
     20 C         -26.8583    4.1368   29.8741 C.3     1  UNL1        0.0321
@<TRIPOS>BOND
     1     6     7    1
     2     3     8    1
     3     2     9    1
     4     9    10    1
     5    10    11    1
     6    10    12    1
     7     9    13    1
     8    13    19    2
     9    19    20    1
    10    12    14   ar
    11    14    15   ar
    12    15    16   ar
    13    16    17   ar
    14    17    18   ar
    15    18    12   ar
    16     1     2   ar
    17     2     3   ar
    18     3     4   ar
    19     4     5   ar
    20     5     6   ar
    21     6     1   ar
