@<TRIPOS>MOLECULE
No_1829-gen_results/8p0m/2024-11-26-14-13-15/
 31 35 0 0 0
SMALL
GASTEIGER

@<TRIPOS>ATOM
      1 C         -28.0162   -0.8135   28.8779 C.3     1  UNL1        0.0267
      2 C         -27.0636   -0.1189   28.6079 C.ar    1  UNL1       -0.0222
      3 C         -27.0010    0.6913   27.4910 C.ar    1  UNL1       -0.0040
      4 C         -25.8548    1.4825   27.0830 C.ar    1  UNL1        0.0035
      5 C         -24.6901    1.4526   27.8807 C.ar    1  UNL1        0.0714
      6 C         -24.7379    0.6010   29.0416 C.ar    1  UNL1        0.0035
      7 C         -25.8234   -0.1688   29.3887 C.ar    1  UNL1       -0.0043
      8 C         -28.7350   -0.4637   30.1419 C.3     1  UNL1        0.0081
      9 C         -29.8111   -1.3049   30.6007 C.3     1  UNL1        0.0053
     10 C         -23.5152    2.1989   27.5480 C.3     1  UNL1        0.4186
     11 F         -22.7560    1.7136   26.9988 F       1  UNL1       -0.1659
     12 F         -22.9583    2.7175   28.7505 F       1  UNL1       -0.1659
     13 F         -23.9536    3.3804   26.9639 F       1  UNL1       -0.1659
     14 C         -30.8459   -1.3578   30.4533 C.3     1  UNL1        0.0261
     15 C         -31.4548   -0.2808   29.6441 C.ar    1  UNL1       -0.0261
     16 C         -32.6687   -0.3951   29.0902 C.ar    1  UNL1       -0.0046
     17 C         -33.1742    0.6120   28.2540 C.ar    1  UNL1       -0.0003
     18 C         -32.4653    1.4077   27.8726 C.ar    1  UNL1       -0.0003
     19 C         -31.1225    1.6901   28.2638 C.ar    1  UNL1       -0.0046
     20 C         -30.6313    0.7485   29.1518 C.ar    1  UNL1       -0.0264
     21 C         -29.1923    0.8667   30.3069 C.3     1  UNL1        0.0223
     22 C         -27.7377   -0.1492   31.3825 C.3     1  UNL1        0.0006
     23 C         -27.8074    0.8757   32.1873 C.3     1  UNL1        0.0000
     24 C         -28.9904    2.0035   30.8474 C.3     1  UNL1        0.0044
     25 C         -28.2657    2.0505   31.9070 C.3     1  UNL1        0.0003
     26 C         -28.1409    0.7609   26.5232 C.ar    1  UNL1       -0.0003
     27 C         -28.7217    0.0682   25.8389 C.ar    1  UNL1       -0.0000
     28 C         -29.8889    0.2663   25.0779 C.ar    1  UNL1       -0.0000
     29 C         -30.2797    1.5715   24.8819 C.ar    1  UNL1       -0.0000
     30 C         -28.5294    2.2925   26.3805 C.ar    1  UNL1       -0.0000
     31 C         -29.5537    2.6146   25.5440 C.ar    1  UNL1       -0.0000
@<TRIPOS>BOND
     1     1     2    1
     2     1     8    1
     3     8     9    1
     4     5    10    1
     5    10    11    1
     6    10    12    1
     7    10    13    1
     8    14    15    1
     9     8    21    1
    10    20    21    1
    11     8    22    1
    12    21    24    1
    13    23    25    1
    14     3    26    1
    15     9    14    1
    16    24    25    1
    17    23    22    1
    18    15    16   ar
    19    16    17   ar
    20    17    18   ar
    21    18    19   ar
    22    19    20   ar
    23    20    15   ar
    24     2     3   ar
    25     3     4   ar
    26     4     5   ar
    27     5     6   ar
    28     6     7   ar
    29     7     2   ar
    30    26    27   ar
    31    27    28   ar
    32    28    29   ar
    33    29    31   ar
    34    31    30   ar
    35    30    26   ar
