@<TRIPOS>MOLECULE
No_183-gen_results/8p0m/2024-11-26-14-13-15/
 15 16 0 0 0
SMALL
GASTEIGER

@<TRIPOS>ATOM
      1 C         -28.0162   -0.8135   28.8779 C.ar    1  UNL1        0.0000
      2 C         -27.0636   -0.1189   28.6079 C.ar    1  UNL1        0.0000
      3 C         -25.7647   -0.3897   29.0360 C.ar    1  UNL1        0.0002
      4 C         -25.5296   -1.5302   29.9014 C.ar    1  UNL1        0.0000
      5 C         -26.6577   -2.2915   30.2035 C.ar    1  UNL1        0.0000
      6 C         -27.8548   -1.9555   29.7630 C.ar    1  UNL1        0.0000
      7 C         -24.5441    0.4126   28.7379 C.ar    1  UNL1        0.0064
      8 C         -24.0952    1.3785   29.5751 C.ar    1  UNL1        0.0798
      9 C         -22.9780    2.1448   29.2566 C.ar    1  UNL1        0.0066
     10 C         -22.2496    1.9089   28.0531 C.ar    1  UNL1        0.0002
     11 C         -23.7843    0.2749   27.5458 C.ar    1  UNL1        0.0002
     12 C         -22.7252    0.9953   27.2629 C.ar    1  UNL1        0.0000
     13 C         -24.7707    1.6220   30.9072 C.2     1  UNL1        0.3878
     14 O         -25.0207    0.7106   31.6938 O.co2   1  UNL1       -0.2406
     15 O         -24.7563    2.8966   31.3267 O.co2   1  UNL1       -0.2406
@<TRIPOS>BOND
     1     3     7    1
     2     8    13    1
     3    13    14   ar
     4    13    15   ar
     5     7     8   ar
     6     8     9   ar
     7     9    10   ar
     8    10    12   ar
     9    12    11   ar
    10    11     7   ar
    11     1     2   ar
    12     2     3   ar
    13     3     4   ar
    14     4     5   ar
    15     5     6   ar
    16     6     1   ar
