@<TRIPOS>MOLECULE
No_1831-gen_results/8p0m/2024-11-26-14-13-15/
 8 7 0 0 0
SMALL
GASTEIGER

@<TRIPOS>ATOM
      1 C         -28.0162   -0.8135   28.8779 C.2     1  UNL1        0.0084
      2 C         -27.0636   -0.1190   28.6079 C.3     1  UNL1        0.1830
      3 F         -27.0788    0.9846   29.1738 F       1  UNL1       -0.2325
      4 C         -25.9956   -0.3885   27.6940 C.3     1  UNL1        0.0399
      5 C         -24.7191   -0.8167   28.2368 C.3     1  UNL1        0.0033
      6 C         -28.6365   -1.1768   30.0855 C.2     1  UNL1       -0.0019
      7 C         -28.0820   -0.5256   31.1393 C.2     1  UNL1       -0.0002
      8 C         -27.4277    0.6073   31.2627 C.2     1  UNL1       -0.0000
@<TRIPOS>BOND
     1     1     2    1
     2     2     3    1
     3     2     4    1
     4     4     5    1
     5     1     6    2
     6     6     7    1
     7     7     8    2
