@<TRIPOS>MOLECULE
No_1832-gen_results/8p0m/2024-11-26-14-13-15/
 14 15 0 0 0
SMALL
GASTEIGER

@<TRIPOS>ATOM
      1 C         -28.0162   -0.8135   28.8779 C.ar    1  UNL1        0.0293
      2 C         -28.4690   -0.7850   29.8287 C.ar    1  UNL1        0.0023
      3 C         -26.5455   -0.8762   28.8500 C.ar    1  UNL1        0.1365
      4 C         -25.8041   -1.0324   30.0571 C.ar    1  UNL1        0.0097
      5 C         -26.5373   -1.0386   31.2171 C.ar    1  UNL1       -0.0017
      6 C         -27.8843   -0.9532   31.1862 C.ar    1  UNL1       -0.0002
      7 C         -24.3655   -1.1134   30.0483 C.3     1  UNL1        0.0549
      8 C         -23.6925    0.1188   29.9185 C.ar    1  UNL1       -0.0177
      9 C         -23.9863    1.2743   30.4522 C.ar    1  UNL1       -0.0039
     10 C         -23.3983    2.4978   30.0514 C.ar    1  UNL1       -0.0003
     11 C         -22.5872    2.4117   28.9079 C.ar    1  UNL1       -0.0000
     12 C         -22.7366    0.3142   28.7819 C.ar    1  UNL1       -0.0039
     13 C         -22.1782    1.3578   28.3860 C.ar    1  UNL1       -0.0003
     14 F         -25.8291   -0.8055   27.7101 F       1  UNL1       -0.2045
@<TRIPOS>BOND
     1     4     7    1
     2     7     8    1
     3     3    14    1
     4     1     2   ar
     5     2     6   ar
     6     6     5   ar
     7     5     4   ar
     8     4     3   ar
     9     3     1   ar
    10     8     9   ar
    11     9    10   ar
    12    10    11   ar
    13    11    13   ar
    14    13    12   ar
    15    12     8   ar
