@<TRIPOS>MOLECULE
No_1833-gen_results/8p0m/2024-11-26-14-13-15/
 22 24 0 0 0
SMALL
GASTEIGER

@<TRIPOS>ATOM
      1 C         -28.0162   -0.8135   28.8779 C.ar    1  UNL1        0.0045
      2 C         -27.0636   -0.1189   28.6079 C.ar    1  UNL1        0.0001
      3 C         -25.7923   -0.4302   29.0761 C.ar    1  UNL1        0.0000
      4 C         -24.5456    0.3494   28.8225 C.ar    1  UNL1        0.0000
      5 C         -23.2409    0.0217   29.3323 C.ar    1  UNL1        0.0000
      6 C         -27.8820   -1.8995   29.8633 C.ar    1  UNL1        0.0539
      7 C         -26.6526   -2.3141   30.3138 C.ar    1  UNL1        0.0045
      8 C         -25.5153   -1.5607   29.9787 C.ar    1  UNL1        0.0001
      9 C         -22.1588    0.7866   28.9507 C.ar    1  UNL1        0.0000
     10 C         -22.1309    1.7439   27.9818 C.ar    1  UNL1        0.0000
     11 C         -24.6218    1.5666   28.0091 C.ar    1  UNL1        0.0000
     12 C         -23.3878    2.1563   27.5546 C.ar    1  UNL1        0.0000
     13 C         -29.0419   -2.7360   30.2842 C.2     1  UNL1        0.2528
     14 O         -28.9793   -3.9456   30.2966 O.2     1  UNL1       -0.2696
     15 N         -29.9770   -2.1016   31.0476 N.am    1  UNL1       -0.2534
     16 C         -31.1169   -2.8784   31.5885 C.3     1  UNL1        0.1203
     17 C         -30.0429   -0.6755   31.2575 C.ar    1  UNL1        0.0542
     18 C         -30.8249   -0.0039   30.5560 C.ar    1  UNL1        0.0149
     19 C         -30.7060    1.4097   30.5669 C.ar    1  UNL1        0.0013
     20 C         -29.7597    2.0387   31.4027 C.ar    1  UNL1        0.0001
     21 C         -28.9109    1.2115   32.1802 C.ar    1  UNL1        0.0013
     22 C         -28.9764   -0.1125   32.0955 C.ar    1  UNL1        0.0149
@<TRIPOS>BOND
     1     3     4    1
     2     6    13    1
     3    13    14    2
     4    13    15   am
     5    15    16    1
     6    15    17    1
     7    17    18   ar
     8    18    19   ar
     9    19    20   ar
    10    20    21   ar
    11    21    22   ar
    12    22    17   ar
    13     1     2   ar
    14     2     3   ar
    15     3     8   ar
    16     8     7   ar
    17     7     6   ar
    18     6     1   ar
    19     4     5   ar
    20     5     9   ar
    21     9    10   ar
    22    10    12   ar
    23    12    11   ar
    24    11     4   ar
