@<TRIPOS>MOLECULE
No_1834-gen_results/8p0m/2024-11-26-14-13-15/
 12 13 0 0 0
SMALL
GASTEIGER

@<TRIPOS>ATOM
      1 C         -28.0162   -0.8135   28.8779 C.ar    1  UNL1        0.0033
      2 C         -28.4690   -0.7850   29.8287 C.ar    1  UNL1        0.0422
      3 C         -26.5042   -0.7777   28.8766 C.ar    1  UNL1        0.0001
      4 C         -25.6540   -0.6597   27.7191 C.ar    1  UNL1        0.0000
      5 C         -29.9920   -0.8134   29.9579 C.2     1  UNL1        0.2342
      6 C         -24.2081   -0.6354   27.9684 C.ar    1  UNL1        0.0000
      7 C         -23.7148   -0.7617   29.2554 C.ar    1  UNL1        0.0000
      8 C         -24.5039   -0.8892   30.3377 C.ar    1  UNL1        0.0000
      9 C         -25.8377   -0.9206   30.1886 C.ar    1  UNL1        0.0000
     10 C         -27.8406   -0.9550   31.2067 C.ar    1  UNL1        0.0033
     11 C         -26.6393   -0.9986   31.3460 C.ar    1  UNL1        0.0001
     12 O         -30.5602   -0.2035   29.1665 O.2     1  UNL1       -0.2831
@<TRIPOS>BOND
     1     5    12    2
     2     5     2    1
     3     3     4   ar
     4     4     6   ar
     5     6     7   ar
     6     7     8   ar
     7     8     9   ar
     8     1     2   ar
     9     2    10   ar
    10    10    11   ar
    11    11     9   ar
    12     9     3   ar
    13     3     1   ar
