@<TRIPOS>MOLECULE
No_1835-gen_results/8p0m/2024-11-26-14-13-15/
 10 10 0 0 0
SMALL
GASTEIGER

@<TRIPOS>ATOM
      1 O         -28.1229   -1.3353   28.4874 O.2     1  UNL1       -0.2730
      2 C         -27.4806   -0.4044   28.7094 C.2     1  UNL1        0.2450
      3 C         -27.1904    0.2460   29.5268 C.3     1  UNL1        0.0998
      4 N         -26.6871   -0.0001   27.4423 N.am    1  UNL1       -0.2052
      5 C         -26.3501    1.4331   29.7418 C.3     1  UNL1        0.0153
      6 C         -25.8648    1.0936   27.4148 C.3     1  UNL1        0.1152
      7 C         -25.6589    1.8314   28.5720 C.3     1  UNL1        0.0243
      8 C         -27.8165    0.0697   31.0102 C.2     1  UNL1       -0.0219
      9 C         -27.3244    0.2700   31.9997 C.2     1  UNL1       -0.0299
     10 C         -26.4114    1.5032   32.0905 C.3     1  UNL1        0.0304
@<TRIPOS>BOND
     1     1     2    2
     2     2     3    1
     3     2     4   am
     4     4     6    1
     5     5     7    1
     6     3     8    1
     7     8     9    2
     8     9    10    1
     9     3     5    1
    10     7     6    1
