@<TRIPOS>MOLECULE
No_1836-gen_results/8p0m/2024-11-26-14-13-15/
 25 29 0 0 0
SMALL
GASTEIGER

@<TRIPOS>ATOM
      1 C         -28.0162   -0.8135   28.8779 C.ar    1  UNL1        0.0174
      2 C         -28.4690   -0.7850   29.8287 C.ar    1  UNL1        0.0014
      3 C         -26.5455   -0.8762   28.8500 C.ar    1  UNL1        0.0799
      4 C         -25.8041   -1.0324   30.0571 C.ar    1  UNL1       -0.0044
      5 C         -26.5373   -1.0386   31.2171 C.ar    1  UNL1       -0.0029
      6 C         -27.8843   -0.9532   31.1862 C.ar    1  UNL1       -0.0002
      7 C         -24.3655   -1.1134   30.0483 C.3     1  UNL1        0.0454
      8 C         -23.6254   -0.9434   29.0230 C.3     1  UNL1        0.0819
      9 C         -22.3775   -0.3348   29.0683 C.3     1  UNL1        0.0181
     10 C         -21.9934    0.7172   28.8174 C.3     1  UNL1        0.0029
     11 C         -22.8988    1.6876   28.2449 C.3     1  UNL1        0.0182
     12 C         -23.9977    1.3611   27.5813 C.3     1  UNL1        0.0834
     13 N         -24.4075   -0.4878   27.9131 N.3     1  UNL1       -0.1891
     14 N         -25.7580   -0.5682   27.7295 N.pl3   1  UNL1       -0.1643
     15 C         -24.7927    1.9875   26.7550 C.3     1  UNL1        0.0633
     16 C         -25.3293    1.6118   25.7320 C.2     1  UNL1        0.0681
     17 C         -25.4870    3.1671   27.3922 C.3     1  UNL1        0.0536
     18 C         -25.1785    3.6995   28.5892 C.ar    1  UNL1       -0.0201
     19 C         -25.7930    4.8623   29.0781 C.ar    1  UNL1       -0.0042
     20 C         -25.6975    5.2952   30.3946 C.ar    1  UNL1       -0.0003
     21 C         -25.3440    4.3214   31.3834 C.ar    1  UNL1       -0.0000
     22 C         -24.8933    3.0489   30.9927 C.ar    1  UNL1       -0.0003
     23 C         -24.9606    2.7332   29.6783 C.ar    1  UNL1       -0.0042
     24 N         -26.5028    2.0504   25.2814 N.2     1  UNL1       -0.2731
     25 C         -26.4966    3.5522   26.4073 C.3     1  UNL1        0.1298
@<TRIPOS>BOND
     1     4     7    1
     2     8     9    1
     3    10    11    1
     4     8    13    1
     5    12    13    1
     6     3    14    1
     7    13    14    1
     8    12    15    1
     9    15    16    1
    10    15    17    1
    11    17    18    1
    12    16    24    2
    13    17    25    1
    14    24    25    1
    15     9    10    1
    16    11    12    1
    17     8     7    1
    18    18    19   ar
    19    19    20   ar
    20    20    21   ar
    21    21    22   ar
    22    22    23   ar
    23    23    18   ar
    24     1     2   ar
    25     2     6   ar
    26     6     5   ar
    27     5     4   ar
    28     4     3   ar
    29     3     1   ar
