@<TRIPOS>MOLECULE
No_1837-gen_results/8p0m/2024-11-26-14-13-15/
 31 31 0 0 0
SMALL
GASTEIGER

@<TRIPOS>ATOM
      1 C         -28.0162   -0.8135   28.8779 C.3     1  UNL1        0.1418
      2 C         -27.0636   -0.1190   28.6079 C.ar    1  UNL1       -0.0005
      3 C         -27.0010    0.6913   27.4910 C.ar    1  UNL1       -0.0024
      4 C         -25.8548    1.4825   27.0830 C.ar    1  UNL1        0.0036
      5 C         -24.6901    1.4526   27.8807 C.ar    1  UNL1        0.0475
      6 C         -24.7379    0.6010   29.0416 C.ar    1  UNL1        0.0036
      7 C         -25.8234   -0.1688   29.3887 C.ar    1  UNL1       -0.0024
      8 N         -28.7300   -0.5298   30.0429 N.am    1  UNL1       -0.1968
      9 C         -29.6775   -1.3126   30.5974 C.2     1  UNL1        0.2649
     10 C         -30.1069   -2.3641   29.9909 C.2     1  UNL1        0.0554
     11 C         -30.4711   -3.4422   30.8081 C.2     1  UNL1       -0.0111
     12 C         -30.7773   -4.6757   30.1957 C.3     1  UNL1        0.1192
     13 C         -29.8350   -5.5814   29.9422 C.3     1  UNL1        0.1228
     14 C         -31.5899   -4.4664   28.8599 C.2     1  UNL1        0.2465
     15 C         -23.5303    2.2171   27.5713 C.2     1  UNL1        0.2416
     16 N         -23.4399    2.7623   26.3423 N.2     1  UNL1       -0.1156
     17 F         -22.4587    2.0694   28.2090 F       1  UNL1       -0.1815
     18 O         -30.4799   -0.6358   31.3855 O.2     1  UNL1       -0.2684
     19 O         -32.4363   -3.6841   28.8370 O.2     1  UNL1       -0.2729
     20 N         -31.4604   -5.5472   27.9905 N.am    1  UNL1       -0.2024
     21 C         -32.2667   -5.5357   26.8296 C.3     1  UNL1        0.1471
     22 N         -28.9857   -5.6859   31.1451 N.3     1  UNL1       -0.1305
     23 C         -32.6395   -6.9028   26.5122 C.3     1  UNL1        0.1655
     24 O         -31.6478   -7.5796   26.1378 O.3     1  UNL1       -0.3515
     25 C         -31.6978   -8.6303   25.2168 C.3     1  UNL1        0.1465
     26 C         -30.3913   -8.9347   24.8542 C.3     1  UNL1        0.0517
     27 C         -29.7201   -7.8585   24.0969 C.3     1  UNL1        0.0073
     28 C         -29.7702  -10.2259   24.9703 C.2     1  UNL1       -0.0239
     29 C         -30.2992  -11.0650   25.8780 C.2     1  UNL1       -0.0045
     30 C         -29.6356  -12.3139   26.0486 C.2     1  UNL1       -0.0003
     31 C         -28.5075  -12.5459   25.2766 C.2     1  UNL1       -0.0000
@<TRIPOS>BOND
     1     1     2    1
     2     1     8    1
     3     8     9   am
     4     9    10    1
     5    10    11    2
     6    11    12    1
     7    12    13    1
     8    12    14    1
     9     5    15    1
    10    15    16    2
    11    15    17    1
    12     9    18    2
    13    14    19    2
    14    14    20   am
    15    20    21    1
    16    13    22    1
    17    21    23    1
    18    23    24    1
    19    24    25    1
    20    25    26    1
    21    26    27    1
    22    26    28    1
    23    28    29    2
    24    29    30    1
    25    30    31    2
    26     2     3   ar
    27     3     4   ar
    28     4     5   ar
    29     5     6   ar
    30     6     7   ar
    31     7     2   ar
