@<TRIPOS>MOLECULE
No_1838-gen_results/8p0m/2024-11-26-14-13-15/
 13 14 0 0 0
SMALL
GASTEIGER

@<TRIPOS>ATOM
      1 O         -28.1229   -1.3353   28.4874 O.2     1  UNL1       -0.2741
      2 C         -27.4806   -0.4044   28.7094 C.2     1  UNL1        0.2360
      3 C         -26.3804   -0.0867   27.9394 C.3     1  UNL1        0.1121
      4 N         -27.6664    0.4468   29.8988 N.am    1  UNL1       -0.2244
      5 C         -25.8047    1.1658   28.0750 C.ar    1  UNL1       -0.0087
      6 C         -24.6514    1.6081   27.3233 C.ar    1  UNL1       -0.0036
      7 C         -23.7797    2.1866   27.5602 C.ar    1  UNL1       -0.0003
      8 C         -27.0369    1.5775   30.1242 C.2     1  UNL1        0.2545
      9 C         -26.0080    2.0355   29.2544 C.ar    1  UNL1        0.0505
     10 C         -23.9938    3.0975   28.7858 C.ar    1  UNL1        0.0001
     11 C         -25.0494    2.9638   29.5686 C.ar    1  UNL1        0.0042
     12 O         -27.3387    2.2392   31.1620 O.2     1  UNL1       -0.2695
     13 C         -28.8804    0.1701   30.7326 C.3     1  UNL1        0.1231
@<TRIPOS>BOND
     1     1     2    2
     2     2     3    1
     3     2     4   am
     4     4     8   am
     5     8     9    1
     6     8    12    2
     7     4    13    1
     8     3     5    1
     9     5     6   ar
    10     6     7   ar
    11     7    10   ar
    12    10    11   ar
    13    11     9   ar
    14     9     5   ar
