@<TRIPOS>MOLECULE
No_1839-gen_results/8p0m/2024-11-26-14-13-15/
 12 13 0 0 0
SMALL
GASTEIGER

@<TRIPOS>ATOM
      1 C         -28.0162   -0.8135   28.8779 C.ar    1  UNL1        0.0000
      2 C         -28.4690   -0.7850   29.8287 C.ar    1  UNL1        0.0000
      3 C         -27.1356    0.2359   28.5352 C.ar    1  UNL1        0.0000
      4 C         -26.8745    1.2825   29.3982 C.ar    1  UNL1        0.0000
      5 C         -28.3613    0.1987   30.9244 C.ar    1  UNL1        0.0000
      6 C         -27.5277    1.2234   30.6356 C.ar    1  UNL1        0.0000
      7 C         -26.3987    0.2949   27.2279 C.ar    1  UNL1        0.0000
      8 C         -25.0392    0.2356   27.3538 C.ar    1  UNL1        0.0000
      9 C         -26.8419    1.2723   26.2572 C.ar    1  UNL1        0.0000
     10 C         -24.2362    1.2186   27.7916 C.ar    1  UNL1        0.0000
     11 C         -24.4862    2.4106   26.8550 C.ar    1  UNL1        0.0000
     12 C         -25.8899    2.5281   26.3701 C.ar    1  UNL1        0.0000
@<TRIPOS>BOND
     1     3     7    1
     2     1     2   ar
     3     2     5   ar
     4     5     6   ar
     5     6     4   ar
     6     4     3   ar
     7     3     1   ar
     8     7     8   ar
     9     8    10   ar
    10    10    11   ar
    11    11    12   ar
    12    12     9   ar
    13     9     7   ar
