@<TRIPOS>MOLECULE
No_184-gen_results/8p0m/2024-11-26-14-13-15/
 21 23 0 0 0
SMALL
GASTEIGER

@<TRIPOS>ATOM
      1 C         -28.0162   -0.8135   28.8779 C.ar    1  UNL1        0.0094
      2 C         -28.4690   -0.7850   29.8287 C.ar    1  UNL1        0.0799
      3 C         -26.5455   -0.8762   28.8500 C.ar    1  UNL1        0.0355
      4 C         -25.8041   -1.0324   30.0571 C.ar    1  UNL1       -0.0147
      5 C         -24.3697   -1.0998   30.0718 C.3     1  UNL1        0.0528
      6 C         -27.9902   -1.0051   31.2092 C.ar    1  UNL1        0.0063
      7 C         -26.5616   -1.1368   31.2600 C.ar    1  UNL1       -0.0036
      8 C         -23.6342   -0.7825   29.0667 C.ar    1  UNL1       -0.0145
      9 C         -22.1763   -0.6779   29.1657 C.ar    1  UNL1       -0.0038
     10 C         -21.5613    0.4612   28.8574 C.ar    1  UNL1       -0.0001
     11 C         -22.1205    1.3911   27.9070 C.ar    1  UNL1        0.0067
     12 C         -23.5405    1.2730   27.6656 C.ar    1  UNL1        0.0825
     13 C         -24.2761    0.3472   28.2811 C.ar    1  UNL1        0.0417
     14 C         -25.6991   -0.2115   27.8066 C.2     1  UNL1        0.1952
     15 C         -24.1540    2.2954   26.7968 C.2     1  UNL1        0.3878
     16 O         -24.5730    3.2569   27.3389 O.co2   1  UNL1       -0.2406
     17 O         -24.2017    1.9689   25.5544 O.co2   1  UNL1       -0.2406
     18 C         -30.0792   -0.7926   29.8754 C.2     1  UNL1        0.3878
     19 O         -30.6510    0.1597   30.4818 O.co2   1  UNL1       -0.2406
     20 O         -30.6781   -1.6815   29.2714 O.co2   1  UNL1       -0.2406
     21 O         -26.1802    0.2190   26.7544 O.2     1  UNL1       -0.2866
@<TRIPOS>BOND
     1     4     5    1
     2     3    14    1
     3    13    14    1
     4    12    15    1
     5    15    16   ar
     6    15    17   ar
     7     2    18    1
     8    18    19   ar
     9    18    20   ar
    10    14    21    2
    11     5     8    1
    12     1     2   ar
    13     2     6   ar
    14     6     7   ar
    15     7     4   ar
    16     4     3   ar
    17     3     1   ar
    18     8     9   ar
    19     9    10   ar
    20    10    11   ar
    21    11    12   ar
    22    12    13   ar
    23    13     8   ar
