@<TRIPOS>MOLECULE
No_1842-gen_results/8p0m/2024-11-26-14-13-15/
 17 19 0 0 0
SMALL
GASTEIGER

@<TRIPOS>ATOM
      1 C         -28.0162   -0.8135   28.8779 C.ar    1  UNL1       -0.0046
      2 C         -27.0636   -0.1190   28.6079 C.ar    1  UNL1       -0.0261
      3 C         -26.9716    0.7139   27.5060 C.ar    1  UNL1       -0.0256
      4 C         -25.8205    1.4909   27.1160 C.3     1  UNL1        0.0373
      5 C         -24.6562    1.4242   27.9180 C.3     1  UNL1        0.1081
      6 C         -24.6847    0.5901   29.0659 C.3     1  UNL1        0.0162
      7 C         -25.8099   -0.1265   29.3338 C.3     1  UNL1        0.0266
      8 C         -29.2185   -0.0422   29.3127 C.ar    1  UNL1       -0.0003
      9 C         -30.2802   -0.8075   29.8362 C.ar    1  UNL1       -0.0000
     10 C         -23.4679    2.2043   27.6013 C.2     1  UNL1        0.3647
     11 O         -22.5604    2.2190   28.4825 O.co2   1  UNL1       -0.2457
     12 O         -23.2751    2.6124   26.3872 O.co2   1  UNL1       -0.2457
     13 C         -31.5561   -0.7321   29.3573 C.ar    1  UNL1       -0.0000
     14 C         -31.8315    0.2951   28.5551 C.ar    1  UNL1       -0.0000
     15 C         -30.8352    1.1535   28.0437 C.ar    1  UNL1       -0.0000
     16 C         -29.5372    0.8386   28.3325 C.ar    1  UNL1       -0.0003
     17 C         -28.4530    1.4503   27.4880 C.ar    1  UNL1       -0.0046
@<TRIPOS>BOND
     1     3     4    1
     2     4     5    1
     3     5     6    1
     4     2     7    1
     5     6     7    1
     6     5    10    1
     7    10    11   ar
     8    10    12   ar
     9     8     9   ar
    10     9    13   ar
    11    13    14   ar
    12    14    15   ar
    13    15    16   ar
    14     1     2   ar
    15     2     3   ar
    16     3    17   ar
    17    17    16   ar
    18    16     8   ar
    19     8     1   ar
