@<TRIPOS>MOLECULE
No_1844-gen_results/8p0m/2024-11-26-14-13-15/
 35 38 0 0 0
SMALL
GASTEIGER

@<TRIPOS>ATOM
      1 O         -28.1229   -1.3353   28.4874 O.2     1  UNL1       -0.2729
      2 C         -27.0637   -0.8242   28.8687 C.2     1  UNL1        0.2483
      3 N         -25.9773   -1.1378   28.8137 N.am    1  UNL1       -0.1793
      4 C         -24.7669   -0.3464   29.1634 C.ar    1  UNL1        0.0726
      5 C         -27.1684    0.7551   29.2892 C.3     1  UNL1        0.1170
      6 C         -24.9442    0.9296   29.5403 C.ar    1  UNL1       -0.0061
      7 C         -26.1697    1.4497   29.5843 C.3     1  UNL1        0.0398
      8 C         -23.4218   -0.9540   29.0983 C.ar    1  UNL1        0.0583
      9 C         -22.3078   -0.0731   29.2127 C.ar    1  UNL1        0.1970
     10 C         -22.4780    1.2331   29.4491 C.ar    1  UNL1        0.0418
     11 C         -23.6907    1.7415   29.6956 C.ar    1  UNL1        0.0003
     12 O         -21.0926   -0.6050   29.0457 O.3     1  UNL1       -0.2865
     13 C         -28.6316    1.1946   29.3582 C.3     1  UNL1        0.1686
     14 N         -29.1617    1.5503   28.3611 N.am    1  UNL1       -0.2443
     15 C         -29.5844    2.6558   28.1548 C.2     1  UNL1        0.0686
     16 C         -29.3657    3.5695   27.5458 C.2     1  UNL1        0.0159
     17 C         -28.1005    3.5425   26.7475 C.2     1  UNL1       -0.0028
     18 C         -27.7802    2.6902   25.9479 C.2     1  UNL1       -0.0173
     19 C         -28.5894    1.6410   25.5298 C.3     1  UNL1        0.0993
     20 C         -28.4314    1.0799   26.9310 C.2     1  UNL1        0.2339
     21 O         -27.5247    0.5028   26.8816 O.2     1  UNL1       -0.2742
     22 C         -29.2288    1.1304   24.5899 C.3     1  UNL1        0.0171
     23 CL        -28.9912    1.8288   30.7492 Cl      1  UNL1       -0.0919
     24 C         -29.4161   -0.2282   24.5525 C.3     1  UNL1        0.0272
     25 C         -30.5584   -0.8522   24.3961 C.ar    1  UNL1       -0.0220
     26 C         -30.6424   -2.3277   24.4350 C.ar    1  UNL1       -0.0043
     27 C         -31.8386   -0.2081   24.6170 C.ar    1  UNL1        0.0022
     28 C         -33.0547   -0.8544   24.6478 C.ar    1  UNL1        0.0753
     29 C         -31.9413   -2.8814   24.4784 C.ar    1  UNL1       -0.0001
     30 C         -33.1102   -2.1816   24.5576 C.ar    1  UNL1        0.0064
     31 C         -29.8454    1.9536   23.6045 C.3     1  UNL1        0.0012
     32 C         -34.2984   -0.0494   24.7076 C.2     1  UNL1        0.3413
     33 O         -34.9381    0.1870   23.7276 O.2     1  UNL1       -0.2449
     34 O         -34.6398    0.4623   25.8600 O.3     1  UNL1       -0.4413
     35 C         -35.1983    1.4201   26.1698 C.3     1  UNL1        0.2560
@<TRIPOS>BOND
     1     1     2    2
     2     2     3   am
     3     3     4    1
     4     2     5    1
     5     6     7    1
     6     9    12    1
     7     5    13    1
     8    13    14    1
     9    14    15    1
    10    15    16    2
    11    16    17    1
    12    17    18    2
    13    18    19    1
    14    14    20   am
    15    19    20    1
    16    20    21    2
    17    19    22    1
    18    13    23    1
    19    22    24    1
    20    24    25    1
    21    22    31    1
    22    28    32    1
    23    32    33    2
    24    32    34    1
    25    34    35    1
    26     7     5    1
    27    25    26   ar
    28    26    29   ar
    29    29    30   ar
    30    30    28   ar
    31    28    27   ar
    32    27    25   ar
    33     4     8   ar
    34     8     9   ar
    35     9    10   ar
    36    10    11   ar
    37    11     6   ar
    38     6     4   ar
