@<TRIPOS>MOLECULE
No_1845-gen_results/8p0m/2024-11-26-14-13-15/
 14 15 0 0 0
SMALL
GASTEIGER

@<TRIPOS>ATOM
      1 C         -28.0162   -0.8135   28.8779 C.ar    1  UNL1       -0.0003
      2 C         -28.4690   -0.7850   29.8287 C.ar    1  UNL1       -0.0000
      3 C         -28.1816    0.4277   28.1134 C.ar    1  UNL1       -0.0000
      4 C         -27.4498    0.6435   26.8500 C.ar    1  UNL1       -0.0000
      5 C         -26.1815    0.0357   26.7145 C.ar    1  UNL1       -0.0000
      6 C         -25.7800   -0.9326   27.6938 C.ar    1  UNL1       -0.0003
      7 C         -26.5568   -1.2134   28.7413 C.ar    1  UNL1       -0.0036
      8 C         -28.3333   -2.0293   30.7374 C.ar    1  UNL1       -0.0003
      9 C         -27.0914   -2.7240   30.5686 C.ar    1  UNL1       -0.0039
     10 C         -26.1478   -2.3643   29.5692 C.ar    1  UNL1       -0.0151
     11 C         -25.0191   -3.1467   29.3249 C.3     1  UNL1        0.0871
     12 C         -23.7496   -2.6206   29.6067 C.3     1  UNL1        0.0130
     13 C         -25.1573   -4.5071   29.0077 C.2     1  UNL1        0.2113
     14 O         -26.2904   -5.0413   29.0089 O.2     1  UNL1       -0.2880
@<TRIPOS>BOND
     1    10    11    1
     2    11    12    1
     3    11    13    1
     4    13    14    2
     5     1     2   ar
     6     2     8   ar
     7     8     9   ar
     8     9    10   ar
     9    10     7   ar
    10     1     3   ar
    11     3     4   ar
    12     4     5   ar
    13     5     6   ar
    14     6     7   ar
    15     7     1   ar
