@<TRIPOS>MOLECULE
No_1846-gen_results/8p0m/2024-11-26-14-13-15/
 20 21 0 0 0
SMALL
GASTEIGER

@<TRIPOS>ATOM
      1 C         -28.0162   -0.8135   28.8779 C.ar    1  UNL1        0.0797
      2 C         -27.0636   -0.1189   28.6079 C.ar    1  UNL1        0.0066
      3 C         -26.9716    0.7139   27.5060 C.ar    1  UNL1        0.0002
      4 C         -28.1053    0.7744   26.6421 C.ar    1  UNL1        0.0039
      5 C         -29.2008    0.1044   27.0527 C.ar    1  UNL1        0.0716
      6 C         -28.0219   -1.5899   30.0879 C.2     1  UNL1        0.3877
      7 C         -29.1640   -0.6394   28.1484 C.ar    1  UNL1        0.0104
      8 O         -28.8451   -1.9567   30.6618 O.co2   1  UNL1       -0.2406
      9 O         -26.7721   -2.1226   30.4302 O.co2   1  UNL1       -0.2406
     10 C         -30.2853    0.2810   26.0049 C.3     1  UNL1        0.4186
     11 F         -30.0984    0.4574   24.9287 F       1  UNL1       -0.1659
     12 F         -31.1874    1.1202   26.5794 F       1  UNL1       -0.1659
     13 F         -31.0230   -0.9475   26.0513 F       1  UNL1       -0.1659
     14 C         -25.7066    1.4516   27.1288 C.ar    1  UNL1        0.0008
     15 C         -24.5706    0.9485   27.4767 C.ar    1  UNL1        0.0114
     16 C         -23.2950    1.6454   27.2378 C.ar    1  UNL1        0.0577
     17 C         -23.3974    2.6962   26.2755 C.ar    1  UNL1        0.0114
     18 C         -25.7336    2.7739   26.6508 C.ar    1  UNL1        0.0001
     19 C         -24.6330    3.3996   26.2057 C.ar    1  UNL1        0.0009
     20 CL        -21.7985    1.0165   27.5355 Cl      1  UNL1       -0.0822
@<TRIPOS>BOND
     1     1     6    1
     2     6     8   ar
     3     6     9   ar
     4     5    10    1
     5    10    11    1
     6    10    12    1
     7    10    13    1
     8     3    14    1
     9    16    20    1
    10    14    15   ar
    11    15    16   ar
    12    16    17   ar
    13    17    19   ar
    14    19    18   ar
    15    18    14   ar
    16     1     2   ar
    17     2     3   ar
    18     3     4   ar
    19     4     5   ar
    20     5     7   ar
    21     7     1   ar
