@<TRIPOS>MOLECULE
No_1847-gen_results/8p0m/2024-11-26-14-13-15/
 20 21 0 0 0
SMALL
GASTEIGER

@<TRIPOS>ATOM
      1 C         -28.0162   -0.8135   28.8779 C.ar    1  UNL1        0.0359
      2 C         -28.4690   -0.7850   29.8287 C.ar    1  UNL1        0.0820
      3 C         -26.5455   -0.8762   28.8500 C.ar    1  UNL1        0.1367
      4 C         -25.8041   -1.0324   30.0571 C.ar    1  UNL1        0.0116
      5 C         -26.5373   -1.0386   31.2171 C.ar    1  UNL1       -0.0014
      6 C         -27.8843   -0.9532   31.1862 C.ar    1  UNL1        0.0064
      7 C         -24.3555   -1.1121   30.0346 C.3     1  UNL1        0.0798
      8 C         -23.6610    0.1027   29.8448 C.ar    1  UNL1       -0.0126
      9 C         -22.4205    0.1575   29.1928 C.ar    1  UNL1        0.0382
     10 C         -21.8312    1.3420   28.8564 C.ar    1  UNL1        0.1954
     11 C         -24.1357    1.3453   30.3719 C.ar    1  UNL1       -0.0037
     12 C         -23.6601    2.5799   29.9545 C.ar    1  UNL1        0.0030
     13 C         -22.4267    2.5972   29.1994 C.ar    1  UNL1        0.0420
     14 F         -25.8113   -0.8483   27.7300 F       1  UNL1       -0.2045
     15 C         -30.0674   -0.7075   29.8818 C.2     1  UNL1        0.3878
     16 O         -30.6731    0.0312   30.7323 O.co2   1  UNL1       -0.2406
     17 O         -30.6747   -1.3701   29.0458 O.co2   1  UNL1       -0.2406
     18 C         -23.7438   -2.3562   30.1823 C.3     1  UNL1        0.1908
     19 O         -20.6830    1.3977   28.1316 O.3     1  UNL1       -0.2866
     20 O         -23.9372   -3.2665   29.2845 O.3     1  UNL1       -0.2197
@<TRIPOS>BOND
     1     4     7    1
     2     7     8    1
     3     3    14    1
     4     2    15    1
     5    15    16   ar
     6    15    17   ar
     7     7    18    1
     8    10    19    1
     9    18    20    1
    10     1     2   ar
    11     2     6   ar
    12     6     5   ar
    13     5     4   ar
    14     4     3   ar
    15     3     1   ar
    16     8     9   ar
    17     9    10   ar
    18    10    13   ar
    19    13    12   ar
    20    12    11   ar
    21    11     8   ar
