@<TRIPOS>MOLECULE
No_1848-gen_results/8p0m/2024-11-26-14-13-15/
 24 26 0 0 0
SMALL
GASTEIGER

@<TRIPOS>ATOM
      1 F         -28.0727   -1.2542   28.5316 F       1  UNL1       -0.2042
      2 C         -27.0607   -0.6291   28.8721 C.ar    1  UNL1        0.1399
      3 C         -26.1528   -1.1557   29.4537 C.ar    1  UNL1        0.0296
      4 C         -24.8777   -0.5788   29.8639 C.ar    1  UNL1        0.0020
      5 C         -24.7426    0.8273   29.4808 C.ar    1  UNL1       -0.0028
      6 C         -25.7883    1.3927   28.7628 C.ar    1  UNL1       -0.0042
      7 C         -26.9145    0.7309   28.4427 C.ar    1  UNL1        0.0267
      8 C         -25.5328    2.8344   28.3724 C.3     1  UNL1        0.0953
      9 N         -24.6470    3.1765   27.4146 N.3     1  UNL1       -0.2135
     10 C         -26.2507    3.9270   28.9558 C.3     1  UNL1        0.0239
     11 C         -27.1329    3.7884   30.0534 C.3     1  UNL1        0.0205
     12 C         -26.8363    3.2793   31.0531 C.ar    1  UNL1       -0.0227
     13 C         -25.6318    3.6158   31.7636 C.ar    1  UNL1       -0.0043
     14 C         -25.2601    3.0313   33.0550 C.ar    1  UNL1       -0.0003
     15 C         -26.0550    1.8953   33.4190 C.ar    1  UNL1       -0.0000
     16 C         -27.5421    2.2033   31.8157 C.ar    1  UNL1       -0.0043
     17 C         -27.1686    1.5827   32.9289 C.ar    1  UNL1       -0.0003
     18 C         -25.8566    5.2081   28.4107 C.3     1  UNL1        0.0020
     19 C         -24.4469    3.1874   26.2818 C.3     1  UNL1        0.1078
     20 C         -27.7298    5.2262   30.1768 C.3     1  UNL1        0.0041
     21 C         -26.3288    6.1135   28.4777 C.3     1  UNL1        0.0001
     22 C         -27.4291    6.3369   29.4492 C.3     1  UNL1        0.0003
     23 C         -28.3890    3.1093   29.3050 C.3     1  UNL1        0.0041
     24 C         -29.6410    3.3070   30.0081 C.3     1  UNL1        0.0003
@<TRIPOS>BOND
     1     1     2    1
     2     6     8    1
     3     8     9    1
     4     8    10    1
     5    10    11    1
     6    11    12    1
     7    10    18    1
     8     9    19    1
     9    11    20    1
    10    21    22    1
    11    11    23    1
    12    23    24    1
    13    18    21    1
    14    22    20    1
    15    12    13   ar
    16    13    14   ar
    17    14    15   ar
    18    15    17   ar
    19    17    16   ar
    20    16    12   ar
    21     2     3   ar
    22     3     4   ar
    23     4     5   ar
    24     5     6   ar
    25     6     7   ar
    26     7     2   ar
