@<TRIPOS>MOLECULE
No_1849-gen_results/8p0m/2024-11-26-14-13-15/
 8 7 0 0 0
SMALL
GASTEIGER

@<TRIPOS>ATOM
      1 CL        -28.1493   -0.8198   28.9079 Cl      1  UNL1       -0.0719
      2 C         -27.8339    0.4961   29.0598 C.3     1  UNL1        0.2617
      3 F         -27.7903    1.1418   28.0451 F       1  UNL1       -0.2143
      4 C         -27.4491    1.1313   30.2750 C.2     1  UNL1        0.0253
      5 C         -26.6183    1.8255   30.5383 C.2     1  UNL1       -0.0009
      6 C         -26.2821    2.5329   31.8156 C.2     1  UNL1       -0.0048
      7 C         -26.9991    2.0601   32.9073 C.2     1  UNL1       -0.0258
      8 C         -27.9766    1.1120   32.6844 C.3     1  UNL1        0.0307
@<TRIPOS>BOND
     1     1     2    1
     2     2     3    1
     3     2     4    1
     4     4     5    2
     5     5     6    1
     6     6     7    2
     7     7     8    1
