@<TRIPOS>MOLECULE
No_185-gen_results/8p0m/2024-11-26-14-13-15/
 15 17 0 0 0
SMALL
GASTEIGER

@<TRIPOS>ATOM
      1 C         -28.0162   -0.8135   28.8779 C.ar    1  UNL1        0.1448
      2 C         -28.4690   -0.7850   29.8287 C.ar    1  UNL1        0.0876
      3 C         -26.5042   -0.7777   28.8766 C.ar    1  UNL1        0.0371
      4 C         -25.8103   -0.8531   30.1028 C.ar    1  UNL1        0.0031
      5 C         -30.0136   -0.8410   29.8508 C.2     1  UNL1        0.2544
      6 C         -26.5670   -0.8850   31.2517 C.ar    1  UNL1        0.0003
      7 C         -27.9411   -0.9069   31.1850 C.ar    1  UNL1        0.0076
      8 O         -30.6563   -1.6921   30.1809 O.2     1  UNL1       -0.2697
      9 N         -30.5701    0.1290   28.9124 N.am    1  UNL1       -0.2436
     10 C         -31.5619    0.3552   28.6088 C.3     1  UNL1        0.0970
     11 C         -31.8531    1.0096   27.5368 C.3     1  UNL1        0.0218
     12 C         -30.7898    1.6490   26.8185 C.3     1  UNL1        0.0074
     13 C         -29.5041    1.4389   27.1736 C.3     1  UNL1        0.0657
     14 C         -29.3295    0.6182   28.1869 C.3     1  UNL1        0.2466
     15 O         -28.5275   -0.2230   27.7923 O.3     1  UNL1       -0.4602
@<TRIPOS>BOND
     1     2     5    1
     2     5     8    2
     3     5     9   am
     4     9    10    1
     5    11    12    1
     6     9    14    1
     7    13    14    1
     8     1    15    1
     9    14    15    1
    10    10    11    1
    11    12    13    1
    12     1     2   ar
    13     2     7   ar
    14     7     6   ar
    15     6     4   ar
    16     4     3   ar
    17     3     1   ar
