@<TRIPOS>MOLECULE
No_1850-gen_results/8p0m/2024-11-26-14-13-15/
 28 32 0 0 0
SMALL
GASTEIGER

@<TRIPOS>ATOM
      1 C         -28.0162   -0.8135   28.8779 C.ar    1  UNL1       -0.0040
      2 C         -28.4690   -0.7850   29.8287 C.ar    1  UNL1       -0.0003
      3 C         -27.1356    0.2359   28.5352 C.ar    1  UNL1       -0.0195
      4 C         -26.3351    0.2900   27.2835 C.3     1  UNL1        0.0369
      5 C         -28.3692    0.1957   30.9236 C.ar    1  UNL1       -0.0000
      6 C         -27.5158    1.2655   30.6540 C.ar    1  UNL1       -0.0006
      7 C         -26.8589    1.3211   29.4911 C.ar    1  UNL1       -0.0077
      8 C         -25.0012    0.3132   27.5009 C.2     1  UNL1       -0.0071
      9 C         -24.0820   -0.1108   26.6989 C.2     1  UNL1       -0.0057
     10 C         -22.7440    0.3479   27.0567 C.2     1  UNL1       -0.0023
     11 C         -22.4842    0.9781   28.3413 C.2     1  UNL1        0.0103
     12 C         -24.3581    1.0622   28.6198 C.3     1  UNL1        0.1927
     13 C         -26.7420   -0.6512   26.3455 C.3     1  UNL1        0.0085
     14 C         -26.7649    1.7123   26.6875 C.3     1  UNL1        0.0102
     15 C         -27.3284    2.3495   31.6513 C.ar    1  UNL1       -0.0000
     16 C         -26.5465    3.2937   31.4096 C.ar    1  UNL1       -0.0003
     17 C         -25.9139    3.3230   30.1045 C.ar    1  UNL1       -0.0043
     18 C         -26.0594    2.3479   29.1930 C.ar    1  UNL1       -0.0231
     19 C         -25.7734    2.7029   27.8603 C.3     1  UNL1        0.0194
     20 C         -24.5069    3.0918   27.3028 C.3     1  UNL1        0.0041
     21 C         -26.7402    4.1780   27.5711 C.3     1  UNL1        0.0041
     22 C         -26.3562    1.8816   25.2707 C.3     1  UNL1        0.0009
     23 C         -28.2538    2.0407   26.7544 C.3     1  UNL1        0.0009
     24 C         -28.5447    3.2838   26.3883 C.3     1  UNL1        0.0000
     25 C         -30.0113    3.5311   26.2300 C.3     1  UNL1        0.0000
     26 C         -28.0566    4.4135   27.4236 C.3     1  UNL1        0.0003
     27 C         -24.4117    4.1101   26.1063 C.3     1  UNL1        0.0003
     28 O         -24.0329   -0.0056   29.8044 O.3     1  UNL1       -0.2137
@<TRIPOS>BOND
     1     3     4    1
     2     4     8    1
     3     8     9    2
     4     9    10    1
     5    10    11    2
     6     8    12    1
     7    11    12    1
     8     4    13    1
     9     4    14    1
    10    14    19    1
    11    18    19    1
    12    19    20    1
    13    19    21    1
    14    14    22    1
    15    14    23    1
    16    24    25    1
    17    21    26    1
    18    24    26    1
    19    20    27    1
    20    12    28    1
    21    24    23    1
    22     7    18   ar
    23    18    17   ar
    24    17    16   ar
    25    16    15   ar
    26    15     6   ar
    27     1     2   ar
    28     2     5   ar
    29     5     6   ar
    30     6     7   ar
    31     7     3   ar
    32     3     1   ar
