@<TRIPOS>MOLECULE
No_1851-gen_results/8p0m/2024-11-26-14-13-15/
 17 19 0 0 0
SMALL
GASTEIGER

@<TRIPOS>ATOM
      1 C         -28.0162   -0.8135   28.8779 C.ar    1  UNL1        0.0948
      2 C         -27.0636   -0.1190   28.6079 C.ar    1  UNL1        0.0025
      3 C         -26.9716    0.7139   27.5060 C.3     1  UNL1        0.0950
      4 C         -25.8205    1.4909   27.1160 C.3     1  UNL1        0.0364
      5 C         -24.6562    1.4242   27.9180 C.ar    1  UNL1       -0.0217
      6 C         -24.6847    0.5901   29.0659 C.ar    1  UNL1       -0.0042
      7 C         -23.4723    0.4701   29.8435 C.ar    1  UNL1       -0.0003
      8 C         -25.7941   -0.1679   29.3440 C.ar    1  UNL1       -0.0011
      9 N         -27.9615   -1.6587   30.0310 N.ar    1  UNL1       -0.2426
     10 C         -22.2438    0.8902   29.3873 C.ar    1  UNL1       -0.0000
     11 C         -22.1280    1.6206   28.2134 C.ar    1  UNL1       -0.0003
     12 C         -23.3358    1.9632   27.4702 C.ar    1  UNL1       -0.0043
     13 C         -26.7774   -1.8893   30.6721 C.ar    1  UNL1        0.0989
     14 C         -25.6585   -1.0559   30.4916 C.ar    1  UNL1        0.0204
     15 C         -28.1257    0.8321   26.6064 C.3     1  UNL1        0.3227
     16 F         -29.0801    0.8331   27.0092 F       1  UNL1       -0.1981
     17 F         -27.8857    0.6954   25.3788 F       1  UNL1       -0.1981
@<TRIPOS>BOND
     1     2     3    1
     2     3     4    1
     3     4     5    1
     4     6     8    1
     5     3    15    1
     6    15    16    1
     7    15    17    1
     8     1     2   ar
     9     2     8   ar
    10     8    14   ar
    11    14    13   ar
    12    13     9   ar
    13     9     1   ar
    14     5     6   ar
    15     6     7   ar
    16     7    10   ar
    17    10    11   ar
    18    11    12   ar
    19    12     5   ar
