@<TRIPOS>MOLECULE
No_1852-gen_results/8p0m/2024-11-26-14-13-15/
 12 12 0 0 0
SMALL
GASTEIGER

@<TRIPOS>ATOM
      1 C         -28.0162   -0.8135   28.8779 C.ar    1  UNL1        0.0015
      2 C         -28.4690   -0.7850   29.8287 C.ar    1  UNL1        0.0000
      3 C         -28.1960    0.3478   28.0550 C.ar    1  UNL1        0.0172
      4 C         -29.0191    1.3501   28.3782 C.ar    1  UNL1        0.0015
      5 C         -29.4107    0.1803   30.3782 C.ar    1  UNL1        0.0000
      6 C         -29.6059    1.2495   29.6193 C.ar    1  UNL1        0.0000
      7 C         -27.4597    0.3802   26.7091 C.2     1  UNL1        0.0757
      8 N         -27.8834    0.5390   25.7073 N.2     1  UNL1       -0.2683
      9 C         -25.9412    0.2046   26.7840 C.2     1  UNL1        0.0141
     10 C         -25.3563    0.4285   25.5507 C.2     1  UNL1       -0.0243
     11 C         -27.3548    0.6113   24.4554 C.3     1  UNL1        0.1517
     12 C         -23.8443    0.3503   25.5807 C.3     1  UNL1        0.0307
@<TRIPOS>BOND
     1     3     7    1
     2     7     8    2
     3     7     9    1
     4     9    10    2
     5     8    11    1
     6    10    12    1
     7     1     2   ar
     8     2     5   ar
     9     5     6   ar
    10     6     4   ar
    11     4     3   ar
    12     3     1   ar
