@<TRIPOS>MOLECULE
No_1853-gen_results/8p0m/2024-11-26-14-13-15/
 30 34 0 0 0
SMALL
GASTEIGER

@<TRIPOS>ATOM
      1 O         -28.1229   -1.3353   28.4874 O.2     1  UNL1       -0.2692
      2 C         -27.4806   -0.4044   28.7094 C.2     1  UNL1        0.2565
      3 C         -26.3804   -0.0867   27.9394 C.ar    1  UNL1        0.0542
      4 N         -27.6664    0.4468   29.8988 N.am    1  UNL1       -0.2321
      5 C         -26.4086    0.8567   26.8802 C.ar    1  UNL1        0.0045
      6 C         -25.0824   -0.6970   28.1699 C.ar    1  UNL1        0.0045
      7 C         -25.2842    1.0488   26.0470 C.ar    1  UNL1        0.0001
      8 C         -23.9159   -0.3440   27.4444 C.ar    1  UNL1        0.0001
      9 C         -24.0618    0.5290   26.3706 C.ar    1  UNL1        0.0000
     10 C         -28.7784    0.1033   30.7872 C.2     1  UNL1        0.0678
     11 C         -26.8454    1.5246   30.2211 C.2     1  UNL1        0.0678
     12 C         -27.2474    2.6214   30.2572 C.2     1  UNL1       -0.0093
     13 C         -28.1791    3.2074   30.4550 C.3     1  UNL1        0.0322
     14 C         -29.3990    2.4975   30.6944 C.3     1  UNL1        0.0350
     15 C         -30.6385    3.1407   30.8616 C.3     1  UNL1        0.0666
     16 C         -29.4900    1.0885   30.7792 C.2     1  UNL1       -0.0092
     17 C         -31.3974    3.2983   29.8139 C.3     1  UNL1        0.0127
     18 C         -32.6657    4.0084   29.8965 C.3     1  UNL1        0.0269
     19 C         -33.0264    4.5398   31.1492 C.ar    1  UNL1       -0.0194
     20 C         -32.2139    4.3875   32.2183 C.ar    1  UNL1        0.0307
     21 C         -31.0019    3.7222   32.1073 C.2     1  UNL1        0.1726
     22 C         -32.5949    4.9712   33.5392 C.ar    1  UNL1        0.0025
     23 C         -33.0292    6.1905   33.6504 C.ar    1  UNL1        0.0001
     24 C         -33.2548    6.9023   34.3753 C.ar    1  UNL1        0.0000
     25 C         -33.7425    8.3168   34.3044 C.ar    1  UNL1        0.0000
     26 C         -34.0293    8.7337   33.0322 C.ar    1  UNL1       -0.0000
     27 C         -33.7701    7.9016   31.9873 C.ar    1  UNL1       -0.0000
     28 C         -33.2361    6.6337   32.1746 C.ar    1  UNL1       -0.0003
     29 C         -33.1990    5.8089   31.0376 C.ar    1  UNL1       -0.0042
     30 O         -30.3284    3.4439   33.2352 O.2     1  UNL1       -0.2914
@<TRIPOS>BOND
     1     1     2    2
     2     2     3    1
     3     2     4   am
     4     4    10    1
     5     4    11    1
     6    11    12    2
     7    12    13    1
     8    13    14    1
     9    14    15    1
    10    10    16    2
    11    14    16    1
    12    17    18    1
    13    15    21    1
    14    20    21    1
    15    21    30    2
    16    15    17    1
    17    18    19    1
    18    23    24   ar
    19    24    25   ar
    20    25    26   ar
    21    26    27   ar
    22    27    28   ar
    23    19    20   ar
    24    20    22   ar
    25    22    23   ar
    26    23    28   ar
    27    28    29   ar
    28    29    19   ar
    29     3     5   ar
    30     5     7   ar
    31     7     9   ar
    32     9     8   ar
    33     8     6   ar
    34     6     3   ar
