@<TRIPOS>MOLECULE
No_1854-gen_results/8p0m/2024-11-26-14-13-15/
 31 33 0 0 0
SMALL
GASTEIGER

@<TRIPOS>ATOM
      1 C         -28.0162   -0.8135   28.8779 C.2     1  UNL1        0.2493
      2 C         -27.0636   -0.1190   28.6079 C.ar    1  UNL1        0.0566
      3 C         -26.9287    1.1713   29.0083 C.ar    1  UNL1        0.0422
      4 C         -25.7702    2.0341   28.6884 C.ar    1  UNL1        0.1500
      5 C         -24.7141    1.4431   27.9188 C.ar    1  UNL1        0.0923
      6 C         -24.8590    0.0783   27.5836 C.ar    1  UNL1        0.0080
      7 C         -25.9647   -0.6606   27.9164 C.ar    1  UNL1        0.0049
      8 N         -27.9821   -1.6367   30.0748 N.am    1  UNL1       -0.2679
      9 O         -29.1950   -0.6035   28.4621 O.2     1  UNL1       -0.2699
     10 C         -29.0495   -2.5038   30.5225 C.3     1  UNL1        0.1773
     11 C         -26.6889   -1.8860   30.7614 C.3     1  UNL1        0.1154
     12 C         -23.5137    2.1536   27.5449 C.2     1  UNL1        0.2821
     13 N         -22.4324    1.7032   27.1484 N.2     1  UNL1       -0.2078
     14 O         -23.7686    3.4156   27.1498 O.2     1  UNL1       -0.2651
     15 C         -29.4417   -2.2244   31.8491 C.3     1  UNL1        0.3480
     16 CL        -28.5777   -1.0869   32.4447 Cl      1  UNL1       -0.0453
     17 F         -30.7827   -2.0405   31.8833 F       1  UNL1       -0.1849
     18 F         -29.2680   -3.4570   32.5593 F       1  UNL1       -0.1849
     19 C         -21.7467    0.7294   28.0057 C.ar    1  UNL1        0.0846
     20 C         -20.4109    0.9755   28.4077 C.ar    1  UNL1        0.0192
     21 C         -22.3990   -0.4285   28.4852 C.ar    1  UNL1        0.0192
     22 C         -21.6517   -1.2513   29.3804 C.ar    1  UNL1        0.0015
     23 C         -20.3585   -1.0279   29.4726 C.ar    1  UNL1        0.0001
     24 C         -19.7307    0.1515   29.0822 C.ar    1  UNL1        0.0015
     25 O         -25.7173    3.2470   29.0808 O.3     1  UNL1       -0.4533
     26 C         -26.8450    3.8274   29.7283 C.ar    1  UNL1        0.1453
     27 C         -27.3769    3.6256   30.6656 C.ar    1  UNL1        0.0375
     28 C         -28.4526    4.3143   31.2662 C.ar    1  UNL1        0.0031
     29 C         -27.3257    4.9481   28.8478 C.ar    1  UNL1        0.0375
     30 C         -28.3826    5.7058   29.3055 C.ar    1  UNL1        0.0031
     31 C         -28.9382    5.4078   30.5356 C.ar    1  UNL1        0.0002
@<TRIPOS>BOND
     1     1     2    1
     2     1     8   am
     3     1     9    2
     4     8    10    1
     5     8    11    1
     6     5    12    1
     7    12    13    2
     8    12    14    1
     9    10    15    1
    10    15    16    1
    11    15    17    1
    12    15    18    1
    13    13    19    1
    14     4    25    1
    15    25    26    1
    16     2     3   ar
    17     3     4   ar
    18     4     5   ar
    19     5     6   ar
    20     6     7   ar
    21     7     2   ar
    22    19    20   ar
    23    20    24   ar
    24    24    23   ar
    25    23    22   ar
    26    22    21   ar
    27    21    19   ar
    28    26    27   ar
    29    27    28   ar
    30    28    31   ar
    31    31    30   ar
    32    30    29   ar
    33    29    26   ar
