@<TRIPOS>MOLECULE
No_1856-gen_results/8p0m/2024-11-26-14-13-15/
 16 17 0 0 0
SMALL
GASTEIGER

@<TRIPOS>ATOM
      1 C         -28.0162   -0.8135   28.8779 C.ar    1  UNL1        0.0114
      2 C         -27.0636   -0.1190   28.6079 C.ar    1  UNL1        0.0577
      3 C         -26.9287    1.1713   29.0083 C.ar    1  UNL1        0.0114
      4 C         -27.9560    1.7411   29.7840 C.ar    1  UNL1        0.0009
      5 C         -29.0569   -0.3271   29.7466 C.ar    1  UNL1        0.0009
      6 C         -28.9828    0.9722   30.1516 C.ar    1  UNL1        0.0001
      7 CL        -25.8196   -0.9203   27.7393 Cl      1  UNL1       -0.0822
      8 C         -30.0314    1.7288   30.9176 C.ar    1  UNL1        0.0000
      9 C         -30.9386    1.0192   31.5528 C.ar    1  UNL1        0.0000
     10 C         -32.0087    1.6706   32.2988 C.ar    1  UNL1       -0.0000
     11 C         -32.0054    3.0881   32.2691 C.ar    1  UNL1       -0.0000
     12 C         -31.0521    3.7707   31.5820 C.ar    1  UNL1       -0.0003
     13 C         -30.0249    3.1221   30.8973 C.ar    1  UNL1       -0.0000
     14 C         -31.0264    5.2589   31.5815 C.2     1  UNL1       -0.0046
     15 C         -31.1374    5.9326   32.6323 C.2     1  UNL1       -0.0258
     16 C         -31.1448    7.3816   32.6100 C.3     1  UNL1        0.0307
@<TRIPOS>BOND
     1     2     7    1
     2     6     8    1
     3    12    14    1
     4    14    15    2
     5    15    16    1
     6     1     2   ar
     7     2     3   ar
     8     3     4   ar
     9     4     6   ar
    10     6     5   ar
    11     5     1   ar
    12     8     9   ar
    13     9    10   ar
    14    10    11   ar
    15    11    12   ar
    16    12    13   ar
    17    13     8   ar
