@<TRIPOS>MOLECULE
No_1858-gen_results/8p0m/2024-11-26-14-13-15/
 19 19 0 0 0
SMALL
GASTEIGER

@<TRIPOS>ATOM
      1 C         -28.0162   -0.8135   28.8779 C.3     1  UNL1        0.0994
      2 C         -27.0636   -0.1189   28.6079 C.ar    1  UNL1       -0.0061
      3 C         -25.7923   -0.4302   29.0761 C.ar    1  UNL1       -0.0027
      4 C         -24.5456    0.3494   28.8225 C.ar    1  UNL1        0.0063
      5 C         -24.6586    1.4196   27.8878 C.ar    1  UNL1        0.0798
      6 C         -25.9471    1.6811   27.3792 C.ar    1  UNL1        0.0063
      7 C         -27.0439    0.9739   27.6871 C.ar    1  UNL1       -0.0027
      8 N         -29.1797   -0.1202   29.1288 N.3     1  UNL1       -0.2639
      9 C         -29.5842    0.1318   30.4036 C.3     1  UNL1        0.0902
     10 C         -30.0536    0.0965   28.0536 C.3     1  UNL1        0.0992
     11 C         -23.4618    2.1735   27.6266 C.2     1  UNL1        0.3878
     12 O         -23.4788    3.1475   26.9110 O.co2   1  UNL1       -0.2406
     13 O         -22.2656    1.7112   27.9893 O.co2   1  UNL1       -0.2406
     14 C         -31.3887   -0.1987   28.2872 C.2     1  UNL1       -0.0088
     15 C         -32.2319    0.3362   27.4959 C.2     1  UNL1       -0.0032
     16 C         -33.5968    0.2287   27.7129 C.2     1  UNL1       -0.0003
     17 C         -34.5491    0.7491   26.8275 C.2     1  UNL1       -0.0000
     18 C         -34.0985    1.4155   25.6771 C.2     1  UNL1       -0.0000
     19 C         -32.7760    1.5300   25.3854 C.2     1  UNL1       -0.0000
@<TRIPOS>BOND
     1     1     2    1
     2     1     8    1
     3     8     9    1
     4     8    10    1
     5     5    11    1
     6    11    12   ar
     7    11    13   ar
     8    10    14    1
     9    14    15    2
    10    15    16    1
    11    16    17    2
    12    17    18    1
    13    18    19    2
    14     2     3   ar
    15     3     4   ar
    16     4     5   ar
    17     5     6   ar
    18     6     7   ar
    19     7     2   ar
