@<TRIPOS>MOLECULE
No_1859-gen_results/8p0m/2024-11-26-14-13-15/
 29 31 0 0 0
SMALL
GASTEIGER

@<TRIPOS>ATOM
      1 C         -28.0162   -0.8135   28.8779 C.2     1  UNL1        0.2528
      2 C         -27.0636   -0.1189   28.6079 C.ar    1  UNL1        0.0539
      3 C         -26.9287    1.1713   29.0083 C.ar    1  UNL1        0.0046
      4 C         -25.7702    2.0341   28.6884 C.ar    1  UNL1        0.0011
      5 C         -24.7141    1.4431   27.9188 C.ar    1  UNL1        0.0113
      6 C         -24.8590    0.0783   27.5836 C.ar    1  UNL1        0.0011
      7 C         -25.9647   -0.6606   27.9164 C.ar    1  UNL1        0.0046
      8 N         -27.9820   -1.6112   30.1028 N.am    1  UNL1       -0.2534
      9 C         -23.5351    2.1704   27.5550 C.2     1  UNL1        0.0514
     10 N         -22.3779    2.1928   27.8323 N.am    1  UNL1       -0.1836
     11 C         -23.8244    2.9997   26.2855 C.3     1  UNL1        0.0493
     12 O         -29.2177   -0.4074   28.6711 O.2     1  UNL1       -0.2696
     13 C         -29.0426   -2.4695   30.6129 C.ar    1  UNL1        0.0543
     14 C         -26.6711   -2.0210   30.6732 C.3     1  UNL1        0.1203
     15 C         -29.8595   -2.8745   29.9615 C.ar    1  UNL1        0.0194
     16 C         -30.6805   -4.0420   30.4947 C.ar    1  UNL1        0.0552
     17 C         -30.3049   -4.8202   31.0453 C.ar    1  UNL1        0.0046
     18 C         -29.0685   -4.5777   31.9488 C.ar    1  UNL1        0.0014
     19 C         -28.5836   -3.2877   31.8034 C.ar    1  UNL1        0.0149
     20 C         -21.9841    1.2894   28.8213 C.2     1  UNL1        0.2458
     21 C         -20.8279    0.3990   28.4378 C.3     1  UNL1        0.0968
     22 O         -22.6252    1.1050   29.8437 O.2     1  UNL1       -0.2730
     23 C         -31.9173   -4.3243   29.5214 C.2     1  UNL1        0.2535
     24 O         -32.7908   -3.5852   29.2616 O.2     1  UNL1       -0.2695
     25 N         -31.9367   -5.5594   28.8340 N.am    1  UNL1       -0.2426
     26 C         -30.9361   -6.5199   28.9024 C.3     1  UNL1        0.1336
     27 C         -33.0650   -5.9326   28.0517 C.2     1  UNL1        0.1106
     28 C         -31.4280   -7.8324   28.7071 C.2     1  UNL1        0.0385
     29 C         -32.4310   -7.6723   27.7572 C.1     1  UNL1       -0.0873
@<TRIPOS>BOND
     1     1     2    1
     2     1     8   am
     3     5     9    1
     4     9    10    2
     5     9    11    1
     6     1    12    2
     7     8    13    1
     8     8    14    1
     9    10    20    1
    10    20    21    1
    11    20    22    2
    12    16    23    1
    13    23    24    2
    14    23    25   am
    15    25    26    1
    16    25    27    1
    17    26    28    1
    18    27    29    2
    19    28    29    2
    20     2     3   ar
    21     3     4   ar
    22     4     5   ar
    23     5     6   ar
    24     6     7   ar
    25     7     2   ar
    26    13    15   ar
    27    15    16   ar
    28    16    17   ar
    29    17    18   ar
    30    18    19   ar
    31    19    13   ar
