@<TRIPOS>MOLECULE
No_186-gen_results/8p0m/2024-11-26-14-13-15/
 15 16 0 0 0
SMALL
GASTEIGER

@<TRIPOS>ATOM
      1 C         -28.0162   -0.8135   28.8779 C.ar    1  UNL1       -0.0003
      2 C         -28.4690   -0.7850   29.8287 C.ar    1  UNL1       -0.0000
      3 C         -26.5042   -0.7777   28.8766 C.ar    1  UNL1       -0.0043
      4 C         -25.8103   -0.8531   30.1028 C.ar    1  UNL1       -0.0222
      5 C         -27.9906   -0.8916   31.2257 C.ar    1  UNL1       -0.0003
      6 C         -26.6042   -0.8676   31.2652 C.ar    1  UNL1       -0.0043
      7 C         -24.3894   -0.8049   30.1638 C.3     1  UNL1        0.0267
      8 C         -23.8172    0.4762   29.9118 C.3     1  UNL1        0.0094
      9 C         -23.2476    0.8215   28.7226 C.3     1  UNL1        0.0267
     10 C         -23.5684    2.0468   28.0656 C.ar    1  UNL1       -0.0222
     11 C         -23.1590    2.1964   26.7529 C.ar    1  UNL1       -0.0043
     12 C         -23.6912    3.2330   26.0139 C.ar    1  UNL1       -0.0003
     13 C         -24.5220    4.2262   26.5929 C.ar    1  UNL1       -0.0000
     14 C         -24.9299    4.0172   27.8824 C.ar    1  UNL1       -0.0003
     15 C         -24.4879    2.9153   28.6035 C.ar    1  UNL1       -0.0043
@<TRIPOS>BOND
     1     4     7    1
     2     7     8    1
     3     8     9    1
     4     9    10    1
     5     1     2   ar
     6     2     5   ar
     7     5     6   ar
     8     6     4   ar
     9     4     3   ar
    10     3     1   ar
    11    10    11   ar
    12    11    12   ar
    13    12    13   ar
    14    13    14   ar
    15    14    15   ar
    16    15    10   ar
