@<TRIPOS>MOLECULE
No_1860-gen_results/8p0m/2024-11-26-14-13-15/
 13 14 0 0 0
SMALL
GASTEIGER

@<TRIPOS>ATOM
      1 O         -28.1229   -1.3353   28.4874 O.2     1  UNL1       -0.2730
      2 C         -27.4806   -0.4044   28.7094 C.2     1  UNL1        0.2450
      3 C         -27.1904    0.2460   29.5268 C.3     1  UNL1        0.1004
      4 N         -26.6871   -0.0001   27.4423 N.am    1  UNL1       -0.2052
      5 C         -26.3501    1.4331   29.7418 C.3     1  UNL1        0.0154
      6 C         -25.8445    1.0999   27.3990 C.3     1  UNL1        0.1152
      7 C         -25.6424    1.7455   28.4012 C.3     1  UNL1        0.0243
      8 C         -27.8327   -0.0471   30.9671 C.ar    1  UNL1       -0.0138
      9 C         -29.1483    0.5176   31.0624 C.ar    1  UNL1       -0.0038
     10 C         -29.8698    0.0665   32.0118 C.ar    1  UNL1       -0.0003
     11 C         -29.3948   -0.8203   33.0513 C.ar    1  UNL1       -0.0000
     12 C         -28.1201   -1.3137   32.9347 C.ar    1  UNL1       -0.0003
     13 C         -27.3148   -0.9661   31.8288 C.ar    1  UNL1       -0.0038
@<TRIPOS>BOND
     1     1     2    2
     2     2     3    1
     3     2     4   am
     4     3     5    1
     5     6     7    1
     6     3     8    1
     7     5     7    1
     8     6     4    1
     9     8     9   ar
    10     9    10   ar
    11    10    11   ar
    12    11    12   ar
    13    12    13   ar
    14    13     8   ar
