@<TRIPOS>MOLECULE
No_1861-gen_results/8p0m/2024-11-26-14-13-15/
 28 31 0 0 0
SMALL
GASTEIGER

@<TRIPOS>ATOM
      1 C         -28.0162   -0.8135   28.8779 C.ar    1  UNL1       -0.0029
      2 C         -28.4690   -0.7850   29.8287 C.ar    1  UNL1       -0.0046
      3 C         -26.5455   -0.8762   28.8500 C.ar    1  UNL1       -0.0003
      4 C         -25.8041   -1.0324   30.0571 C.ar    1  UNL1       -0.0003
      5 C         -27.9437   -0.9869   31.2075 C.ar    1  UNL1       -0.0244
      6 C         -26.5825   -1.0386   31.2231 C.ar    1  UNL1       -0.0045
      7 C         -24.3810   -1.1082   30.0855 C.ar    1  UNL1       -0.0000
      8 C         -23.6421   -1.1177   29.0487 C.ar    1  UNL1       -0.0000
      9 C         -22.1825   -0.9779   29.1035 C.ar    1  UNL1       -0.0000
     10 C         -23.7272   -1.1460   31.3757 C.ar    1  UNL1       -0.0000
     11 C         -22.6986   -0.5245   31.5537 C.ar    1  UNL1       -0.0000
     12 C         -21.6873   -0.6269   30.3645 C.ar    1  UNL1        0.0000
     13 C         -30.0855   -0.6729   29.8734 C.3     1  UNL1        0.1383
     14 N         -30.5963    0.4761   30.2398 N.pl3   1  UNL1       -0.2316
     15 C         -30.0294    1.4182   30.5470 C.ar    1  UNL1        0.0789
     16 C         -30.0228    2.6238   30.6615 C.ar    1  UNL1        0.0173
     17 C         -29.1066    3.6281   31.1307 C.ar    1  UNL1        0.0014
     18 C         -27.8379    3.1119   31.4702 C.ar    1  UNL1        0.0014
     19 C         -27.6084    1.7618   31.3574 C.ar    1  UNL1        0.0158
     20 C         -28.5552    0.9769   30.9393 C.ar    1  UNL1        0.0628
     21 N         -28.8605    0.3639   31.7438 N.pl3   1  UNL1       -0.3097
     22 C         -29.1008    0.2393   33.0984 C.3     1  UNL1        0.0729
     23 C         -28.6102   -2.1778   31.9484 C.3     1  UNL1        0.0278
     24 C         -29.9713   -0.0967   32.1046 C.3     1  UNL1        0.0732
     25 C         -30.0814   -1.4654   32.4237 C.3     1  UNL1        0.0244
     26 C         -31.2680    0.4667   32.4778 C.3     1  UNL1        0.0214
     27 C         -29.0323   -0.4847   34.3046 C.3     1  UNL1        0.0214
     28 C         -29.0475    1.7666   33.6527 C.3     1  UNL1        0.0214
@<TRIPOS>BOND
     1     4     7    1
     2     2    13    1
     3    13    14    1
     4    14    15    1
     5    20    21    1
     6    21    22    1
     7     5    23    1
     8    21    24    1
     9    23    25    1
    10    24    25    1
    11    24    26    1
    12    22    27    1
    13    22    28    1
    14    15    16   ar
    15    16    17   ar
    16    17    18   ar
    17    18    19   ar
    18    19    20   ar
    19    20    15   ar
    20     1     2   ar
    21     2     5   ar
    22     5     6   ar
    23     6     4   ar
    24     4     3   ar
    25     3     1   ar
    26     7     8   ar
    27     8     9   ar
    28     9    12   ar
    29    12    11   ar
    30    11    10   ar
    31    10     7   ar
