@<TRIPOS>MOLECULE
No_1863-gen_results/8p0m/2024-11-26-14-13-15/
 22 24 0 0 0
SMALL
GASTEIGER

@<TRIPOS>ATOM
      1 C         -28.0162   -0.8135   28.8779 C.ar    1  UNL1        0.0359
      2 C         -28.4690   -0.7850   29.8287 C.ar    1  UNL1        0.1646
      3 C         -28.1816    0.4277   28.1134 C.ar    1  UNL1        0.0030
      4 C         -27.4498    0.6435   26.8500 C.ar    1  UNL1        0.0001
      5 C         -26.1815    0.0357   26.7145 C.ar    1  UNL1        0.0000
      6 C         -25.7800   -0.9326   27.6938 C.ar    1  UNL1        0.0001
      7 C         -26.5568   -1.2134   28.7413 C.ar    1  UNL1        0.0045
      8 N         -28.3021   -1.9782   30.6613 N.ar    1  UNL1       -0.2250
      9 C         -27.1371   -2.6658   30.5759 C.ar    1  UNL1        0.1006
     10 C         -26.1686   -2.3577   29.5920 C.ar    1  UNL1        0.0216
     11 C         -25.0334   -3.1481   29.3764 C.2     1  UNL1        0.0335
     12 C         -24.7881   -4.0900   28.6411 C.2     1  UNL1        0.1674
     13 F         -23.4585   -4.4772   28.5925 F       1  UNL1       -0.2018
     14 N         -29.8155   -0.3717   30.0913 N.2     1  UNL1       -0.1989
     15 C         -30.0804    0.8114   30.1670 C.2     1  UNL1        0.2235
     16 F         -31.3395    1.0302   30.7638 F       1  UNL1       -0.1832
     17 C         -29.1089    1.7285   30.8384 C.ar    1  UNL1        0.0460
     18 C         -28.8043    1.5260   32.0806 C.ar    1  UNL1        0.0038
     19 C         -27.7783    2.3221   32.7169 C.ar    1  UNL1        0.0001
     20 C         -27.1711    3.3884   32.0425 C.ar    1  UNL1        0.0000
     21 C         -28.4694    2.8507   30.1345 C.ar    1  UNL1        0.0038
     22 C         -27.5223    3.6396   30.7623 C.ar    1  UNL1        0.0001
@<TRIPOS>BOND
     1    10    11    1
     2    11    12    2
     3    12    13    1
     4     2    14    1
     5    14    15    2
     6    15    16    1
     7    15    17    1
     8     1     2   ar
     9     2     8   ar
    10     8     9   ar
    11     9    10   ar
    12    10     7   ar
    13    17    18   ar
    14    18    19   ar
    15    19    20   ar
    16    20    22   ar
    17    22    21   ar
    18    21    17   ar
    19     1     3   ar
    20     3     4   ar
    21     4     5   ar
    22     5     6   ar
    23     6     7   ar
    24     7     1   ar
