@<TRIPOS>MOLECULE
No_1864-gen_results/8p0m/2024-11-26-14-13-15/
 20 21 0 0 0
SMALL
GASTEIGER

@<TRIPOS>ATOM
      1 C         -28.0162   -0.8135   28.8779 C.ar    1  UNL1        0.0671
      2 C         -27.0636   -0.1189   28.6079 C.ar    1  UNL1        0.0525
      3 C         -25.7647   -0.3897   29.0360 C.ar    1  UNL1        0.1798
      4 C         -25.5296   -1.5302   29.9014 C.ar    1  UNL1        0.1735
      5 C         -26.6888   -2.2893   30.1810 C.ar    1  UNL1        0.0476
      6 C         -27.8727   -1.9508   29.7373 C.ar    1  UNL1        0.0483
      7 BR        -29.4358   -2.8236   30.2003 Br      1  UNL1       -0.0480
      8 O         -24.6298    0.3707   28.7582 O.3     1  UNL1       -0.4502
      9 C         -24.6023    1.3507   27.8882 C.ar    1  UNL1        0.1517
     10 C         -23.2742    1.7955   27.6377 C.ar    1  UNL1        0.1142
     11 C         -25.6125    1.9207   27.2469 C.ar    1  UNL1        0.0377
     12 C         -22.0860    1.3777   28.3502 C.2     1  UNL1        0.3907
     13 C         -25.3183    2.9191   26.2636 C.ar    1  UNL1        0.0031
     14 C         -24.0793    3.4438   26.0229 C.ar    1  UNL1        0.0004
     15 C         -23.0853    2.8998   26.6830 C.ar    1  UNL1        0.0097
     16 O         -22.1792    0.8130   29.4361 O.co2   1  UNL1       -0.2404
     17 O         -20.9443    1.2784   27.6742 O.co2   1  UNL1       -0.2404
     18 CL        -29.6187   -0.4089   28.3302 Cl      1  UNL1       -0.0816
     19 O         -24.3593   -1.8003   30.3279 O.3     1  UNL1       -0.4683
     20 C         -23.5303   -2.6608   29.6810 C.3     1  UNL1        0.2526
@<TRIPOS>BOND
     1     6     7    1
     2     3     8    1
     3     8     9    1
     4    10    12    1
     5    12    16   ar
     6    12    17   ar
     7     1    18    1
     8     4    19    1
     9    19    20    1
    10     1     2   ar
    11     2     3   ar
    12     3     4   ar
    13     4     5   ar
    14     5     6   ar
    15     6     1   ar
    16     9    10   ar
    17    10    15   ar
    18    15    14   ar
    19    14    13   ar
    20    13    11   ar
    21    11     9   ar
