@<TRIPOS>MOLECULE
No_1865-gen_results/8p0m/2024-11-26-14-13-15/
 10 10 0 0 0
SMALL
GASTEIGER

@<TRIPOS>ATOM
      1 C         -28.0162   -0.8135   28.8779 C.ar    1  UNL1        0.0369
      2 C         -27.0636   -0.1189   28.6079 C.ar    1  UNL1        0.1384
      3 C         -26.9287    1.1713   29.0083 C.ar    1  UNL1        0.0369
      4 C         -27.9560    1.7411   29.7840 C.ar    1  UNL1        0.0031
      5 C         -29.0569   -0.3271   29.7466 C.ar    1  UNL1        0.0031
      6 C         -28.9828    0.9722   30.1516 C.ar    1  UNL1        0.0002
      7 O         -25.9339   -0.3797   27.8301 O.3     1  UNL1       -0.4792
      8 C         -24.7745    0.3309   27.9459 C.3     1  UNL1        0.1661
      9 C         -23.5531   -0.2342   27.8306 C.3     1  UNL1        0.0472
     10 C         -24.9423    1.7474   28.1191 C.3     1  UNL1        0.0472
@<TRIPOS>BOND
     1     2     7    1
     2     7     8    1
     3     8     9    1
     4     8    10    1
     5     1     2   ar
     6     2     3   ar
     7     3     4   ar
     8     4     6   ar
     9     6     5   ar
    10     5     1   ar
