@<TRIPOS>MOLECULE
No_1866-gen_results/8p0m/2024-11-26-14-13-15/
 21 21 0 0 0
SMALL
GASTEIGER

@<TRIPOS>ATOM
      1 O         -28.1229   -1.3353   28.4874 O.2     1  UNL1       -0.2684
      2 C         -28.5208   -0.4363   29.0779 C.2     1  UNL1        0.2652
      3 C         -28.5894    0.5916   28.9464 C.ar    1  UNL1        0.0553
      4 N         -28.7865   -0.8872   30.4874 N.am    1  UNL1       -0.1917
      5 C         -29.3324    1.6324   29.5095 C.ar    1  UNL1        0.0111
      6 C         -27.9025    1.1652   27.6321 C.ar    1  UNL1        0.0046
      7 C         -28.6194   -2.1837   31.0375 C.3     1  UNL1        0.2017
      8 C         -28.2542    2.1169   26.9225 C.ar    1  UNL1        0.0004
      9 C         -29.6361    2.8843   28.8147 C.ar    1  UNL1        0.0799
     10 C         -29.0260    3.1919   27.5985 C.ar    1  UNL1        0.0066
     11 C         -29.6476   -3.0211   30.6816 C.2     1  UNL1        0.2638
     12 O         -30.3583   -2.9727   29.9078 O.2     1  UNL1       -0.2714
     13 N         -29.4694   -4.3245   31.4360 N.am    1  UNL1       -0.1948
     14 C         -30.3975   -5.4278   31.1720 C.3     1  UNL1        0.2179
     15 C         -31.5144   -5.3735   32.0084 C.3     1  UNL1        0.4174
     16 F         -31.8128   -4.8303   32.9914 F       1  UNL1       -0.1681
     17 F         -31.8262   -6.7722   32.2582 F       1  UNL1       -0.1681
     18 F         -32.5951   -5.0730   31.0666 F       1  UNL1       -0.1681
     19 C         -30.5040    3.8536   29.5093 C.2     1  UNL1        0.3878
     20 O         -29.9948    4.7310   30.0227 O.co2   1  UNL1       -0.2406
     21 O         -31.7461    3.5615   29.4155 O.co2   1  UNL1       -0.2406
@<TRIPOS>BOND
     1     1     2    2
     2     2     3    1
     3     2     4   am
     4     4     7    1
     5     7    11    1
     6    11    12    2
     7    11    13   am
     8    13    14    1
     9    14    15    1
    10    15    16    1
    11    15    17    1
    12    15    18    1
    13     9    19    1
    14    19    20   ar
    15    19    21   ar
    16     3     5   ar
    17     5     9   ar
    18     9    10   ar
    19    10     8   ar
    20     8     6   ar
    21     6     3   ar
