@<TRIPOS>MOLECULE
No_1867-gen_results/8p0m/2024-11-26-14-13-15/
 23 25 0 0 0
SMALL
GASTEIGER

@<TRIPOS>ATOM
      1 C         -28.0162   -0.8135   28.8779 C.ar    1  UNL1       -0.0036
      2 C         -28.4690   -0.7850   29.8287 C.ar    1  UNL1       -0.0003
      3 C         -27.0871    0.2903   28.6377 C.ar    1  UNL1       -0.0130
      4 C         -26.2516    0.4114   27.4223 C.3     1  UNL1        0.0833
      5 C         -28.3913    0.1041   30.9805 C.ar    1  UNL1       -0.0000
      6 C         -27.5332    1.1666   30.7866 C.ar    1  UNL1       -0.0003
      7 C         -26.8281    1.2557   29.6454 C.ar    1  UNL1       -0.0036
      8 C         -24.9667    0.4106   27.5253 C.ar    1  UNL1       -0.0130
      9 C         -24.1553   -0.0215   28.5814 C.ar    1  UNL1       -0.0036
     10 C         -22.7568    0.1661   28.5744 C.ar    1  UNL1       -0.0003
     11 C         -22.1664    1.1279   27.7234 C.ar    1  UNL1       -0.0000
     12 C         -22.9588    1.7437   26.7303 C.ar    1  UNL1       -0.0003
     13 C         -24.3581    1.4338   26.6335 C.ar    1  UNL1       -0.0036
     14 C         -26.9178    0.1980   26.1874 C.2     1  UNL1        0.0709
     15 N         -27.5875    1.2822   25.7987 N.am    1  UNL1       -0.1782
     16 C         -28.3826    1.2547   24.7073 C.2     1  UNL1        0.2687
     17 C         -29.7707    1.1950   24.9285 C.ar    1  UNL1        0.0554
     18 C         -30.6060    1.1398   23.9138 C.ar    1  UNL1        0.0046
     19 C         -31.9881    1.0312   24.0607 C.ar    1  UNL1        0.0001
     20 C         -32.5353    0.9878   25.3381 C.ar    1  UNL1        0.0000
     21 C         -31.7059    0.9811   26.4241 C.ar    1  UNL1        0.0001
     22 C         -30.3244    1.0884   26.2550 C.ar    1  UNL1        0.0046
     23 O         -27.8704    1.2280   23.6350 O.2     1  UNL1       -0.2680
@<TRIPOS>BOND
     1     3     4    1
     2     4     8    1
     3     4    14    1
     4    14    15    2
     5    15    16    1
     6    16    17    1
     7    16    23    2
     8    17    18   ar
     9    18    19   ar
    10    19    20   ar
    11    20    21   ar
    12    21    22   ar
    13    22    17   ar
    14     8     9   ar
    15     9    10   ar
    16    10    11   ar
    17    11    12   ar
    18    12    13   ar
    19    13     8   ar
    20     1     2   ar
    21     2     5   ar
    22     5     6   ar
    23     6     7   ar
    24     7     3   ar
    25     3     1   ar
