@<TRIPOS>MOLECULE
No_1869-gen_results/8p0m/2024-11-26-14-13-15/
 23 25 0 0 0
SMALL
GASTEIGER

@<TRIPOS>ATOM
      1 C         -28.0162   -0.8135   28.8779 C.ar    1  UNL1       -0.0039
      2 C         -28.4690   -0.7850   29.8287 C.ar    1  UNL1       -0.0003
      3 C         -26.5455   -0.8762   28.8500 C.ar    1  UNL1       -0.0178
      4 C         -25.6825   -0.7773   27.6829 C.3     1  UNL1        0.0523
      5 C         -27.9181   -1.0034   31.1877 C.ar    1  UNL1       -0.0000
      6 C         -26.5308   -1.0794   31.2463 C.ar    1  UNL1       -0.0003
      7 C         -25.7798   -1.0462   30.0905 C.ar    1  UNL1       -0.0039
      8 C         -25.8976    0.2387   26.7449 C.2     1  UNL1       -0.0217
      9 C         -24.9256    0.7629   26.0322 C.2     1  UNL1       -0.0253
     10 C         -24.2472    1.7995   26.1605 C.3     1  UNL1        0.0520
     11 C         -24.4507    2.7005   27.2727 C.ar    1  UNL1       -0.0170
     12 C         -25.2305    3.8652   27.1028 C.ar    1  UNL1       -0.0039
     13 C         -25.8693    4.3921   27.8277 C.ar    1  UNL1        0.0006
     14 C         -25.8590    4.0012   29.2563 C.ar    1  UNL1        0.0114
     15 C         -25.1048    2.8521   29.5320 C.ar    1  UNL1        0.0574
     16 C         -24.4398    2.1287   28.5498 C.ar    1  UNL1        0.0075
     17 CL        -25.2559    2.3283   31.2177 Cl      1  UNL1       -0.0823
     18 C         -27.2357    0.7364   26.4597 C.ar    1  UNL1       -0.0039
     19 C         -27.9170    0.2558   25.3107 C.ar    1  UNL1       -0.0003
     20 C         -29.2428    0.5851   25.0654 C.ar    1  UNL1       -0.0000
     21 C         -29.9753    1.2657   25.9757 C.ar    1  UNL1       -0.0000
     22 C         -29.3361    1.8284   27.1182 C.ar    1  UNL1       -0.0000
     23 C         -28.0513    1.6062   27.3943 C.ar    1  UNL1       -0.0003
@<TRIPOS>BOND
     1     3     4    1
     2     4     8    1
     3     8     9    2
     4     9    10    1
     5    10    11    1
     6    15    17    1
     7     8    18    1
     8    18    19   ar
     9    19    20   ar
    10    20    21   ar
    11    21    22   ar
    12    22    23   ar
    13    23    18   ar
    14    11    12   ar
    15    12    13   ar
    16    13    14   ar
    17    14    15   ar
    18    15    16   ar
    19    16    11   ar
    20     1     2   ar
    21     2     5   ar
    22     5     6   ar
    23     6     7   ar
    24     7     3   ar
    25     3     1   ar
