@<TRIPOS>MOLECULE
No_187-gen_results/8p0m/2024-11-26-14-13-15/
 20 21 0 0 0
SMALL
GASTEIGER

@<TRIPOS>ATOM
      1 C         -28.0162   -0.8135   28.8779 C.ar    1  UNL1        0.0293
      2 C         -28.4690   -0.7850   29.8287 C.ar    1  UNL1        0.1401
      3 C         -26.5455   -0.8762   28.8500 C.ar    1  UNL1       -0.0017
      4 C         -25.8041   -1.0324   30.0571 C.ar    1  UNL1       -0.0189
      5 C         -27.9437   -0.9869   31.2075 C.ar    1  UNL1        0.0293
      6 C         -26.5825   -1.0386   31.2231 C.ar    1  UNL1       -0.0017
      7 F         -29.9086   -0.7397   29.8642 F       1  UNL1       -0.2042
      8 C         -24.3767   -1.0979   30.0689 C.3     1  UNL1        0.0377
      9 C         -23.5963   -0.5404   29.1043 C.ar    1  UNL1       -0.0191
     10 C         -22.1621   -0.5679   29.2463 C.ar    1  UNL1       -0.0040
     11 C         -21.3799    0.0763   28.2686 C.ar    1  UNL1       -0.0004
     12 C         -21.9461    1.0928   27.4633 C.ar    1  UNL1        0.0038
     13 C         -23.3164    1.3275   27.4918 C.ar    1  UNL1        0.0711
     14 C         -24.1273    0.5991   28.3740 C.ar    1  UNL1       -0.0001
     15 C         -23.8411    2.3959   26.6342 C.3     1  UNL1        0.4186
     16 F         -23.4021    2.5133   25.6187 F       1  UNL1       -0.1659
     17 F         -23.7592    3.6435   27.3770 F       1  UNL1       -0.1659
     18 F         -25.2481    2.2097   26.5170 F       1  UNL1       -0.1659
     19 C         -24.0410   -2.6182   30.1355 C.3     1  UNL1        0.0088
     20 C         -23.9879   -0.5681   31.5725 C.3     1  UNL1        0.0088
@<TRIPOS>BOND
     1     2     7    1
     2     4     8    1
     3     8     9    1
     4    13    15    1
     5    15    16    1
     6    15    17    1
     7    15    18    1
     8     8    19    1
     9     8    20    1
    10     9    10   ar
    11    10    11   ar
    12    11    12   ar
    13    12    13   ar
    14    13    14   ar
    15    14     9   ar
    16     1     2   ar
    17     2     5   ar
    18     5     6   ar
    19     6     4   ar
    20     4     3   ar
    21     3     1   ar
