@<TRIPOS>MOLECULE
No_1871-gen_results/8p0m/2024-11-26-14-13-15/
 23 25 0 0 0
SMALL
GASTEIGER

@<TRIPOS>ATOM
      1 O         -28.1229   -1.3353   28.4874 O.2     1  UNL1       -0.2749
      2 C         -28.5208   -0.4363   29.0779 C.2     1  UNL1        0.2257
      3 C         -28.5894    0.5916   28.9464 C.3     1  UNL1        0.0811
      4 N         -29.1246   -0.9399   30.4266 N.am    1  UNL1       -0.2771
      5 C         -29.2955    1.6366   29.4337 C.3     1  UNL1        0.0111
      6 C         -29.7997    0.0136   31.1592 C.3     1  UNL1        0.0759
      7 C         -29.8824    1.2875   30.7463 C.3     1  UNL1        0.0203
      8 C         -27.7572    0.8739   27.6342 C.3     1  UNL1        0.0354
      9 C         -26.7270    1.9246   27.7519 C.ar    1  UNL1       -0.0215
     10 C         -25.8451    2.1676   26.7394 C.ar    1  UNL1       -0.0042
     11 C         -24.7340    3.1488   26.8760 C.ar    1  UNL1       -0.0001
     12 C         -24.7874    3.8917   28.0108 C.ar    1  UNL1        0.0066
     13 C         -25.7020    3.7171   28.9783 C.ar    1  UNL1        0.0795
     14 C         -26.6653    2.7185   28.9021 C.ar    1  UNL1        0.0023
     15 C         -25.5969    4.5829   30.2205 C.2     1  UNL1        0.3877
     16 O         -25.5341    4.0621   31.2820 O.co2   1  UNL1       -0.2406
     17 O         -25.5242    5.8687   30.0292 O.co2   1  UNL1       -0.2406
     18 C         -29.0101   -2.3249   30.8098 C.3     1  UNL1        0.1195
     19 C         -29.8064   -2.8244   31.7239 C.2     1  UNL1       -0.0093
     20 C         -29.8735   -2.3959   32.7642 C.2     1  UNL1       -0.0289
     21 C         -30.2963   -0.9831   33.1745 C.3     1  UNL1        0.0274
     22 C         -30.2783   -0.0593   32.5258 C.3     1  UNL1        0.0226
     23 C         -30.7705    1.1311   32.9860 C.3     1  UNL1        0.0020
@<TRIPOS>BOND
     1     1     2    2
     2     2     3    1
     3     2     4   am
     4     4     6    1
     5     5     7    1
     6     3     8    1
     7     8     9    1
     8    13    15    1
     9    15    16   ar
    10    15    17   ar
    11     4    18    1
    12    18    19    1
    13    19    20    2
    14    20    21    1
    15     6    22    1
    16    21    22    1
    17    22    23    1
    18     3     5    1
    19     7     6    1
    20     9    10   ar
    21    10    11   ar
    22    11    12   ar
    23    12    13   ar
    24    13    14   ar
    25    14     9   ar
