@<TRIPOS>MOLECULE
No_1872-gen_results/8p0m/2024-11-26-14-13-15/
 35 38 0 0 0
SMALL
GASTEIGER

@<TRIPOS>ATOM
      1 O         -28.1229   -1.3353   28.4874 O.2     1  UNL1       -0.2723
      2 C         -27.4806   -0.4044   28.7094 C.2     1  UNL1        0.2575
      3 C         -27.1904    0.2460   29.5268 C.3     1  UNL1        0.1818
      4 N         -26.6021   -0.1576   27.5515 N.am    1  UNL1       -0.1602
      5 C         -25.6821    0.8355   27.5846 C.ar    1  UNL1        0.1520
      6 C         -25.5035    1.5913   28.7199 C.ar    1  UNL1        0.0124
      7 C         -26.0207    1.3662   29.6140 C.3     1  UNL1        0.0497
      8 N         -24.9378    1.0572   26.4094 N.ar    1  UNL1       -0.2112
      9 C         -23.9106    2.0186   26.5090 C.ar    1  UNL1        0.1711
     10 C         -23.6106    2.7174   27.5947 C.ar    1  UNL1        0.0374
     11 C         -24.3393    2.5739   28.5943 C.ar    1  UNL1        0.0015
     12 C         -27.9662    0.0492   30.9136 C.2     1  UNL1        0.3302
     13 O         -27.5337    0.0853   31.9119 O.2     1  UNL1       -0.2492
     14 O         -29.2121   -0.2285   30.6319 O.3     1  UNL1       -0.4238
     15 N         -23.1651    2.1780   25.3348 N.pl3   1  UNL1       -0.1072
     16 C         -30.0601    0.4132   30.3891 C.ar    1  UNL1        0.1485
     17 C         -30.1217    1.5199   30.3027 C.ar    1  UNL1        0.0381
     18 C         -31.3025    2.4194   29.9043 C.ar    1  UNL1        0.0098
     19 C         -32.4366    1.6495   29.6160 C.ar    1  UNL1        0.0347
     20 C         -32.4338    0.2944   29.6360 C.ar    1  UNL1        0.0093
     21 C         -31.3297   -0.3584   29.9945 C.ar    1  UNL1        0.0381
     22 BR        -34.0369    2.6124   29.1802 Br      1  UNL1       -0.0490
     23 C         -33.6679   -0.4489   29.2836 C.2     1  UNL1        0.0006
     24 C         -33.7105   -1.2820   28.3622 C.2     1  UNL1        0.0000
     25 C         -32.4586   -1.6180   27.6244 C.ar    1  UNL1        0.0002
     26 C         -32.5097   -2.6244   26.5406 C.ar    1  UNL1        0.0000
     27 C         -31.3657   -2.7613   25.6804 C.ar    1  UNL1        0.0002
     28 C         -30.6137   -1.5904   25.4133 C.ar    1  UNL1        0.0065
     29 C         -30.7397   -0.4884   26.3784 C.ar    1  UNL1        0.0760
     30 C         -31.6338   -0.4687   27.3152 C.ar    1  UNL1        0.0065
     31 C         -29.7300    0.5792   26.0823 C.2     1  UNL1        0.3458
     32 O         -28.8826    0.5093   25.2120 O.2     1  UNL1       -0.2445
     33 O         -29.9619    1.8085   26.7844 O.3     1  UNL1       -0.4179
     34 C         -29.5890    2.9849   26.2017 C.2     1  UNL1        0.1832
     35 C         -28.3482    3.3688   26.6526 C.2     1  UNL1        0.0440
@<TRIPOS>BOND
     1     1     2    2
     2     2     3    1
     3     2     4   am
     4     4     5    1
     5     3    12    1
     6    12    13    2
     7    12    14    1
     8     9    15    1
     9    14    16    1
    10    19    22    1
    11    20    23    1
    12    23    24    2
    13    24    25    1
    14    29    31    1
    15    31    32    2
    16    31    33    1
    17    33    34    1
    18    34    35    2
    19     3     7    1
    20     7     6    1
    21     5     6   ar
    22     6    11   ar
    23    11    10   ar
    24    10     9   ar
    25     9     8   ar
    26     8     5   ar
    27    25    26   ar
    28    26    27   ar
    29    27    28   ar
    30    28    29   ar
    31    29    30   ar
    32    30    25   ar
    33    16    17   ar
    34    17    18   ar
    35    18    19   ar
    36    19    20   ar
    37    20    21   ar
    38    21    16   ar
