@<TRIPOS>MOLECULE
No_1874-gen_results/8p0m/2024-11-26-14-13-15/
 34 37 0 0 0
SMALL
GASTEIGER

@<TRIPOS>ATOM
      1 C         -28.0162   -0.8135   28.8779 C.ar    1  UNL1        0.0026
      2 C         -28.4690   -0.7850   29.8287 C.ar    1  UNL1        0.0795
      3 C         -28.1960    0.3478   28.0550 C.ar    1  UNL1       -0.0175
      4 C         -29.0191    1.3501   28.3782 C.ar    1  UNL1       -0.0039
      5 C         -29.4107    0.1803   30.3782 C.ar    1  UNL1        0.0066
      6 C         -29.6059    1.2495   29.6193 C.ar    1  UNL1       -0.0001
      7 C         -27.5426    0.5225   26.6829 C.3     1  UNL1        0.0539
      8 C         -26.1273    0.4463   26.7062 C.ar    1  UNL1       -0.0180
      9 C         -25.3758    0.9284   25.6757 C.ar    1  UNL1       -0.0040
     10 C         -23.9823    0.9392   25.7555 C.ar    1  UNL1       -0.0006
     11 C         -23.3195    0.7725   26.9821 C.ar    1  UNL1       -0.0040
     12 C         -24.1219    0.4278   28.0985 C.ar    1  UNL1       -0.0186
     13 C         -25.4742    0.3066   27.9922 C.ar    1  UNL1       -0.0079
     14 C         -28.1081   -0.4777   25.6783 C.3     1  UNL1        0.0095
     15 C         -27.9777    1.9346   26.1695 C.3     1  UNL1        0.0992
     16 C         -28.7587    0.0746   24.5092 C.3     1  UNL1        0.0007
     17 C         -29.2323    1.1532   24.6037 C.3     1  UNL1        0.0015
     18 C         -28.7606    2.2356   25.1749 C.3     1  UNL1        0.0197
     19 C         -23.4004    0.2121   29.3964 C.3     1  UNL1        0.0477
     20 C         -24.0094    0.5170   30.4919 C.ar    1  UNL1        0.0207
     21 C         -24.2544    1.8612   30.8989 C.ar    1  UNL1        0.0058
     22 C         -24.9708    2.1960   32.1013 C.ar    1  UNL1        0.0797
     23 C         -25.4407    1.1421   32.8858 C.ar    1  UNL1        0.0098
     24 C         -24.6361   -0.4487   31.3694 C.ar    1  UNL1        0.1920
     25 C         -25.2852   -0.1615   32.5264 C.ar    1  UNL1        0.0419
     26 C         -22.0774   -0.3110   29.4062 C.3     1  UNL1        0.0095
     27 C         -25.1196    3.6233   32.5149 C.2     1  UNL1        0.3877
     28 O         -24.4077    4.4616   32.0217 O.co2   1  UNL1       -0.2406
     29 O         -25.7909    3.8829   33.5747 O.co2   1  UNL1       -0.2406
     30 C         -28.2907   -2.0422   30.8330 C.2     1  UNL1        0.3877
     31 O         -28.7021   -2.0376   31.8960 O.co2   1  UNL1       -0.2406
     32 O         -27.6057   -3.0056   30.2865 O.co2   1  UNL1       -0.2406
     33 O         -24.4769   -1.7299   30.9653 O.3     1  UNL1       -0.2869
     34 N         -27.7553    2.9635   27.1711 N.3     1  UNL1       -0.1322
@<TRIPOS>BOND
     1     3     7    1
     2     7     8    1
     3     7    14    1
     4     7    15    1
     5    16    17    1
     6    12    19    1
     7    19    20    1
     8    19    26    1
     9    22    27    1
    10    27    28   ar
    11    27    29   ar
    12     2    30    1
    13    30    31   ar
    14    30    32   ar
    15    24    33    1
    16    15    34    1
    17    14    16    1
    18    17    18    1
    19    18    15    1
    20    20    21   ar
    21    21    22   ar
    22    22    23   ar
    23    23    25   ar
    24    25    24   ar
    25    24    20   ar
    26     8     9   ar
    27     9    10   ar
    28    10    11   ar
    29    11    12   ar
    30    12    13   ar
    31    13     8   ar
    32     1     2   ar
    33     2     5   ar
    34     5     6   ar
    35     6     4   ar
    36     4     3   ar
    37     3     1   ar
