@<TRIPOS>MOLECULE
No_1875-gen_results/8p0m/2024-11-26-14-13-15/
 21 23 0 0 0
SMALL
GASTEIGER

@<TRIPOS>ATOM
      1 C         -28.0162   -0.8135   28.8779 C.ar    1  UNL1       -0.0000
      2 C         -27.0636   -0.1190   28.6079 C.ar    1  UNL1       -0.0003
      3 C         -25.7923   -0.4302   29.0761 C.ar    1  UNL1       -0.0000
      4 C         -25.5756   -1.5654   29.9363 C.ar    1  UNL1       -0.0000
      5 C         -26.7354   -2.3004   30.2173 C.ar    1  UNL1       -0.0000
      6 C         -27.9184   -1.9537   29.7629 C.ar    1  UNL1       -0.0000
      7 C         -27.3243    1.0850   27.8190 C.2     1  UNL1       -0.0039
      8 C         -27.7568    2.0125   28.0222 C.2     1  UNL1       -0.0214
      9 C         -26.9385    0.7753   26.3548 C.ar    1  UNL1       -0.0003
     10 C         -26.2109   -0.3278   25.9220 C.ar    1  UNL1       -0.0000
     11 C         -27.9471    2.5283   29.3363 C.3     1  UNL1        0.0523
     12 C         -27.0859    2.1022   30.3485 C.ar    1  UNL1       -0.0178
     13 C         -27.4043    2.6201   31.7033 C.ar    1  UNL1       -0.0039
     14 C         -25.8632   -0.4450   24.5717 C.ar    1  UNL1       -0.0000
     15 C         -27.1930    1.6628   25.3311 C.ar    1  UNL1       -0.0000
     16 C         -27.1005    1.3930   24.0038 C.ar    1  UNL1       -0.0000
     17 C         -26.2849    0.3604   23.6842 C.ar    1  UNL1       -0.0000
     18 C         -26.5432    2.2655   32.7836 C.ar    1  UNL1       -0.0003
     19 C         -25.3574    1.5118   32.5387 C.ar    1  UNL1       -0.0000
     20 C         -24.9433    1.3561   31.2506 C.ar    1  UNL1       -0.0003
     21 C         -25.8278    1.6193   30.1887 C.ar    1  UNL1       -0.0039
@<TRIPOS>BOND
     1     2     7    1
     2     7     8    2
     3     7     9    1
     4     8    11    1
     5    11    12    1
     6     1     2   ar
     7     2     3   ar
     8     3     4   ar
     9     4     5   ar
    10     5     6   ar
    11     6     1   ar
    12    12    13   ar
    13    13    18   ar
    14    18    19   ar
    15    19    20   ar
    16    20    21   ar
    17    21    12   ar
    18     9    10   ar
    19    10    14   ar
    20    14    17   ar
    21    17    16   ar
    22    16    15   ar
    23    15     9   ar
