@<TRIPOS>MOLECULE
No_1876-gen_results/8p0m/2024-11-26-14-13-15/
 9 9 0 0 0
SMALL
GASTEIGER

@<TRIPOS>ATOM
      1 C         -28.0162   -0.8135   28.8779 C.3     1  UNL1        0.0468
      2 C         -28.4690   -0.7850   29.8287 C.3     1  UNL1        0.1140
      3 C         -27.0871    0.2903   28.6377 C.ar    1  UNL1       -0.0207
      4 C         -26.9102    0.8486   27.4199 C.ar    1  UNL1       -0.0042
      5 N         -29.5034   -1.6160   30.1085 N.3     1  UNL1       -0.1310
      6 C         -25.7253    1.4269   27.0763 C.ar    1  UNL1       -0.0003
      7 C         -24.6870    1.6885   28.0208 C.ar    1  UNL1       -0.0000
      8 C         -24.8274    1.1268   29.2618 C.ar    1  UNL1       -0.0003
      9 C         -25.9732    0.3710   29.5202 C.ar    1  UNL1       -0.0042
@<TRIPOS>BOND
     1     1     2    1
     2     1     3    1
     3     2     5    1
     4     3     4   ar
     5     4     6   ar
     6     6     7   ar
     7     7     8   ar
     8     8     9   ar
     9     9     3   ar
