@<TRIPOS>MOLECULE
No_1877-gen_results/8p0m/2024-11-26-14-13-15/
 13 13 0 0 0
SMALL
GASTEIGER

@<TRIPOS>ATOM
      1 C         -28.0162   -0.8135   28.8779 C.2     1  UNL1        0.0669
      2 C         -27.0636   -0.1189   28.6079 C.2     1  UNL1       -0.0404
      3 C         -26.9716    0.7139   27.5060 C.3     1  UNL1        0.0224
      4 C         -25.8205    1.4909   27.1160 C.3     1  UNL1        0.0121
      5 C         -24.6562    1.4242   27.9180 C.3     1  UNL1        0.0655
      6 C         -24.6847    0.5901   29.0659 C.3     1  UNL1        0.0121
      7 C         -25.8099   -0.1265   29.3338 C.3     1  UNL1        0.0224
      8 C         -28.7093   -0.4588   30.1754 C.3     1  UNL1        0.4179
      9 F         -29.3416   -1.4758   30.6369 F       1  UNL1       -0.1659
     10 F         -27.8439   -0.1493   31.1155 F       1  UNL1       -0.1659
     11 F         -29.5342    0.5201   29.9298 F       1  UNL1       -0.1659
     12 C         -23.4840    2.2454   27.6542 C.2     1  UNL1        0.2070
     13 O         -23.4891    3.1333   26.8518 O.2     1  UNL1       -0.2883
@<TRIPOS>BOND
     1     1     2    2
     2     2     3    1
     3     3     4    1
     4     4     5    1
     5     5     6    1
     6     2     7    1
     7     6     7    1
     8     1     8    1
     9     8     9    1
    10     8    10    1
    11     8    11    1
    12     5    12    1
    13    12    13    2
