@<TRIPOS>MOLECULE
No_1878-gen_results/8p0m/2024-11-26-14-13-15/
 30 32 0 0 0
SMALL
GASTEIGER

@<TRIPOS>ATOM
      1 C         -28.0162   -0.8135   28.8779 C.ar    1  UNL1        0.0371
      2 C         -27.0636   -0.1189   28.6079 C.ar    1  UNL1        0.0094
      3 C         -27.0010    0.6913   27.4910 C.ar    1  UNL1        0.0798
      4 C         -25.8548    1.4825   27.0830 C.ar    1  UNL1        0.0104
      5 C         -24.6901    1.4526   27.8807 C.ar    1  UNL1        0.0716
      6 C         -24.7379    0.6010   29.0416 C.ar    1  UNL1        0.0039
      7 C         -25.8234   -0.1688   29.3887 C.ar    1  UNL1        0.0004
      8 C         -28.0376   -1.5350   30.2052 C.ar    1  UNL1        0.1388
      9 C         -26.8472   -1.6620   30.9516 C.ar    1  UNL1        0.0369
     10 C         -25.7454   -0.9236   30.5911 C.ar    1  UNL1        0.0031
     11 C         -23.5005    2.2219   27.5437 C.3     1  UNL1        0.4186
     12 F         -22.9587    2.7128   28.5274 F       1  UNL1       -0.1659
     13 F         -23.7930    3.2812   26.6943 F       1  UNL1       -0.1659
     14 F         -22.5763    1.4737   26.9186 F       1  UNL1       -0.1659
     15 C         -28.1273    0.7592   26.5408 C.2     1  UNL1        0.3877
     16 O         -29.2160    1.0253   26.9270 O.co2   1  UNL1       -0.2406
     17 O         -27.8942    0.7401   25.2690 O.co2   1  UNL1       -0.2406
     18 O         -29.1050   -2.3206   30.5096 O.3     1  UNL1       -0.4690
     19 C         -28.9690   -3.6327   30.7163 C.3     1  UNL1        0.2792
     20 C         -30.1360   -4.3368   30.2782 C.3     1  UNL1        0.3568
     21 C         -30.7652   -4.0302   29.1907 C.2     1  UNL1        0.2369
     22 C         -31.6495   -3.1181   29.1892 C.ar    1  UNL1        0.0403
     23 C         -32.8296   -3.3180   28.7367 C.ar    1  UNL1        0.0030
     24 C         -33.8564   -2.2631   28.8180 C.ar    1  UNL1        0.0001
     25 C         -33.4620   -0.9758   29.2108 C.ar    1  UNL1        0.0000
     26 C         -32.1091   -0.7535   29.5670 C.ar    1  UNL1        0.0001
     27 C         -31.2708   -1.7176   29.5563 C.ar    1  UNL1        0.0030
     28 O         -30.5801   -4.8566   28.1105 O.2     1  UNL1       -0.2855
     29 F         -31.0996   -4.4077   31.3574 F       1  UNL1       -0.1920
     30 F         -29.6512   -5.6587   30.2227 F       1  UNL1       -0.1920
@<TRIPOS>BOND
     1     5    11    1
     2    11    12    1
     3    11    13    1
     4    11    14    1
     5     3    15    1
     6    15    16   ar
     7    15    17   ar
     8     8    18    1
     9    18    19    1
    10    19    20    1
    11    20    21    1
    12    21    22    1
    13    21    28    2
    14    20    29    1
    15    20    30    1
    16     2     3   ar
    17     3     4   ar
    18     4     5   ar
    19     5     6   ar
    20     6     7   ar
    21    22    23   ar
    22    23    24   ar
    23    24    25   ar
    24    25    26   ar
    25    26    27   ar
    26    27    22   ar
    27     1     2   ar
    28     2     7   ar
    29     7    10   ar
    30    10     9   ar
    31     9     8   ar
    32     8     1   ar
