@<TRIPOS>MOLECULE
No_1879-gen_results/8p0m/2024-11-26-14-13-15/
 26 29 0 0 0
SMALL
GASTEIGER

@<TRIPOS>ATOM
      1 C         -28.0162   -0.8135   28.8779 C.ar    1  UNL1        0.0031
      2 C         -27.0636   -0.1189   28.6079 C.ar    1  UNL1        0.0353
      3 C         -26.9716    0.7139   27.5060 C.ar    1  UNL1       -0.0151
      4 C         -28.1053    0.7744   26.6421 C.ar    1  UNL1        0.0026
      5 C         -29.2041    0.1179   27.0477 C.ar    1  UNL1        0.0753
      6 C         -29.2127   -0.6088   28.1281 C.ar    1  UNL1        0.0065
      7 C         -25.7106    1.4518   27.1380 C.3     1  UNL1        0.0448
      8 C         -24.6052    0.9253   27.6902 C.ar    1  UNL1       -0.0153
      9 C         -23.3087    1.6018   27.4923 C.ar    1  UNL1       -0.0039
     10 C         -22.1769    1.1971   28.2745 C.ar    1  UNL1       -0.0003
     11 C         -22.2182    0.0930   29.0618 C.ar    1  UNL1        0.0001
     12 C         -23.4005   -0.6727   29.1615 C.ar    1  UNL1        0.0029
     13 C         -24.5560   -0.2221   28.5396 C.ar    1  UNL1        0.0353
     14 C         -25.7306   -0.6018   29.1335 C.2     1  UNL1        0.1950
     15 O         -25.7678   -1.5463   30.0092 O.2     1  UNL1       -0.2866
     16 C         -30.4487    0.3454   26.2697 C.2     1  UNL1        0.3410
     17 O         -30.5053    0.1694   25.0558 O.2     1  UNL1       -0.2449
     18 O         -31.6140    0.2816   26.9371 O.3     1  UNL1       -0.4527
     19 C         -25.7556    2.4905   26.1582 C.3     1  UNL1        0.0094
     20 C         -32.6385    0.8730   26.5179 C.3     1  UNL1        0.1363
     21 C         -33.6637    0.0564   26.0618 C.3     1  UNL1        0.0401
     22 C         -34.4140    0.3536   25.1421 C.3     1  UNL1        0.0036
     23 C         -34.2860    1.2164   24.5492 C.3     1  UNL1        0.0002
     24 C         -33.3561    2.3345   24.7876 C.3     1  UNL1        0.0036
     25 C         -32.1318    1.7368   25.4365 C.3     1  UNL1        0.0401
     26 C         -33.1044    1.8001   27.7164 C.3     1  UNL1        0.0437
@<TRIPOS>BOND
     1     3     7    1
     2     2    14    1
     3    13    14    1
     4    14    15    2
     5     5    16    1
     6    16    17    2
     7    16    18    1
     8     7    19    1
     9    18    20    1
    10    20    21    1
    11    22    23    1
    12    20    25    1
    13    24    25    1
    14    20    26    1
    15    21    22    1
    16    23    24    1
    17     7     8    1
    18     1     2   ar
    19     2     3   ar
    20     3     4   ar
    21     4     5   ar
    22     5     6   ar
    23     6     1   ar
    24     8     9   ar
    25     9    10   ar
    26    10    11   ar
    27    11    12   ar
    28    12    13   ar
    29    13     8   ar
