@<TRIPOS>MOLECULE
No_188-gen_results/8p0m/2024-11-26-14-13-15/
 16 17 0 0 0
SMALL
GASTEIGER

@<TRIPOS>ATOM
      1 C         -28.0162   -0.8135   28.8779 C.ar    1  UNL1        0.0032
      2 C         -28.4690   -0.7850   29.8287 C.ar    1  UNL1        0.0002
      3 C         -28.1960    0.3478   28.0550 C.ar    1  UNL1        0.0390
      4 C         -29.0191    1.3501   28.3782 C.ar    1  UNL1        0.1956
      5 C         -29.6249    1.2683   29.6012 C.ar    1  UNL1        0.0420
      6 C         -29.3821    0.1816   30.4004 C.ar    1  UNL1        0.0033
      7 C         -27.4497    0.3750   26.7070 C.2     1  UNL1        0.0032
      8 C         -27.8820    0.6874   25.6698 C.2     1  UNL1       -0.0002
      9 C         -29.2610    1.0487   25.5860 C.ar    1  UNL1       -0.0040
     10 C         -29.9394    0.9763   24.6462 C.ar    1  UNL1       -0.0003
     11 C         -31.2958    1.4810   24.4739 C.ar    1  UNL1       -0.0000
     12 C         -31.7429    2.2529   25.5240 C.ar    1  UNL1       -0.0003
     13 C         -30.9831    2.5247   26.5942 C.ar    1  UNL1       -0.0043
     14 C         -29.6620    2.0246   26.6359 C.ar    1  UNL1       -0.0218
     15 O         -28.1970    2.4594   28.7033 O.3     1  UNL1       -0.2866
     16 C         -28.8063    3.3371   26.3864 C.3     1  UNL1        0.0310
@<TRIPOS>BOND
     1     3     7    1
     2     7     8    2
     3     8     9    1
     4     4    15    1
     5    14    16    1
     6     1     2   ar
     7     2     6   ar
     8     6     5   ar
     9     5     4   ar
    10     4     3   ar
    11     3     1   ar
    12     9    10   ar
    13    10    11   ar
    14    11    12   ar
    15    12    13   ar
    16    13    14   ar
    17    14     9   ar
