@<TRIPOS>MOLECULE
No_1881-gen_results/8p0m/2024-11-26-14-13-15/
 35 35 0 0 0
SMALL
GASTEIGER

@<TRIPOS>ATOM
      1 C         -28.0162   -0.8135   28.8779 C.ar    1  UNL1        0.0483
      2 C         -27.0636   -0.1189   28.6079 C.ar    1  UNL1        0.0991
      3 C         -26.9716    0.7139   27.5060 C.ar    1  UNL1        0.1669
      4 C         -28.1053    0.7744   26.6421 C.ar    1  UNL1        0.0973
      5 C         -29.2008    0.1044   27.0527 C.ar    1  UNL1        0.0677
      6 C         -29.2096   -0.6029   28.1853 C.ar    1  UNL1        0.0131
      7 C         -30.3702    0.2264   26.1604 C.2     1  UNL1        0.2501
      8 N         -30.9928    1.1454   26.0580 N.am    1  UNL1       -0.2725
      9 O         -30.7351   -0.8643   25.5339 O.2     1  UNL1       -0.2699
     10 C         -32.1949    1.3553   25.1703 C.3     1  UNL1        0.1152
     11 BR        -28.0372   -1.8891   30.4666 Br      1  UNL1       -0.0480
     12 CL        -25.5209   -0.1956   29.5870 Cl      1  UNL1       -0.0785
     13 CL        -27.9166    1.7499   25.2580 Cl      1  UNL1       -0.0789
     14 O         -25.7961    1.3867   27.1849 O.3     1  UNL1       -0.4487
     15 C         -25.2159    2.2694   28.0191 C.2     1  UNL1        0.1795
     16 C         -24.6133    3.1505   27.7727 C.2     1  UNL1        0.0437
     17 C         -24.1904    3.2249   26.3953 C.2     1  UNL1        0.0688
     18 C         -24.7291    3.9501   25.5283 C.2     1  UNL1        0.1681
     19 C         -23.0471    2.3502   26.0370 C.3     1  UNL1        0.2831
     20 O         -22.5148    1.6632   26.9537 O.2     1  UNL1       -0.4541
     21 N         -22.3857    2.5385   24.9388 N.3     1  UNL1       -0.0817
     22 F         -25.8740    4.5365   25.8807 F       1  UNL1       -0.2020
     23 C         -21.1977    1.8126   27.2980 C.2     1  UNL1        0.1724
     24 C         -20.9078    0.8617   28.4298 C.2     1  UNL1        0.0458
     25 C         -22.0234    0.2693   29.0247 C.3     1  UNL1        0.1720
     26 O         -21.8644   -0.8742   29.4385 O.3     1  UNL1       -0.3442
     27 C         -23.1420   -1.5900   29.7513 C.3     1  UNL1        0.1685
     28 C         -23.7273   -1.5740   28.4932 C.2     1  UNL1        0.0014
     29 C         -24.7703   -2.5928   28.4755 C.2     1  UNL1       -0.0195
     30 C         -24.8987   -3.5627   29.4672 C.3     1  UNL1        0.1291
     31 C         -25.9761   -4.5139   29.2933 C.3     1  UNL1        0.4017
     32 F         -26.6941   -4.2167   28.6410 F       1  UNL1       -0.1697
     33 F         -26.4588   -4.7561   30.6885 F       1  UNL1       -0.1697
     34 F         -25.2086   -5.5763   28.9442 F       1  UNL1       -0.1697
     35 C         -30.7580    2.5106   26.8312 C.3     1  UNL1        0.1152
@<TRIPOS>BOND
     1     5     7    1
     2     7     8   am
     3     7     9    2
     4     8    10    1
     5     1    11    1
     6     2    12    1
     7     4    13    1
     8     3    14    1
     9    14    15    1
    10    15    16    2
    11    16    17    1
    12    17    18    2
    13    17    19    1
    14    19    20    1
    15    19    21    1
    16    18    22    1
    17    20    23    1
    18    23    24    2
    19    24    25    1
    20    25    26    1
    21    26    27    1
    22    27    28    1
    23    28    29    2
    24    29    30    1
    25    30    31    1
    26    31    32    1
    27    31    33    1
    28    31    34    1
    29     8    35    1
    30     1     2   ar
    31     2     3   ar
    32     3     4   ar
    33     4     5   ar
    34     5     6   ar
    35     6     1   ar
