@<TRIPOS>MOLECULE
No_1882-gen_results/8p0m/2024-11-26-14-13-15/
 27 30 0 0 0
SMALL
GASTEIGER

@<TRIPOS>ATOM
      1 C         -28.0162   -0.8135   28.8779 C.ar    1  UNL1        0.0305
      2 C         -28.4690   -0.7850   29.8287 C.ar    1  UNL1        0.1402
      3 C         -27.1356    0.2359   28.5352 C.ar    1  UNL1        0.0125
      4 C         -26.8745    1.2825   29.3982 C.ar    1  UNL1        0.0010
      5 C         -28.3613    0.1987   30.9244 C.ar    1  UNL1        0.0296
      6 C         -27.5277    1.2234   30.6356 C.ar    1  UNL1        0.0023
      7 C         -26.3987    0.2949   27.2279 C.2     1  UNL1        0.0537
      8 C         -26.9022    0.7280   26.2134 C.2     1  UNL1       -0.0113
      9 C         -28.2290    1.2592   26.1972 C.ar    1  UNL1       -0.0031
     10 C         -28.8634    1.6436   27.2292 C.ar    1  UNL1       -0.0003
     11 C         -29.9721    2.3747   27.1573 C.ar    1  UNL1       -0.0000
     12 C         -30.5415    2.6163   25.8350 C.ar    1  UNL1       -0.0000
     13 C         -29.8312    2.2855   24.6878 C.ar    1  UNL1       -0.0000
     14 C         -28.6318    1.7328   24.8246 C.ar    1  UNL1       -0.0003
     15 C         -26.1475    0.5060   24.9324 C.3     1  UNL1        0.0319
     16 CL        -24.8628   -0.4789   27.4679 Cl      1  UNL1       -0.0826
     17 F         -29.3234   -1.8822   30.2576 F       1  UNL1       -0.2042
     18 C         -30.9133    2.7110   28.3130 C.ar    1  UNL1       -0.0000
     19 C         -30.4992    3.6366   29.1315 C.ar    1  UNL1       -0.0000
     20 C         -31.2672    3.9457   30.3425 C.ar    1  UNL1        0.0000
     21 C         -32.4450    3.2022   30.5294 C.ar    1  UNL1        0.0000
     22 C         -32.0409    2.0027   28.5785 C.ar    1  UNL1       -0.0000
     23 C         -32.7976    2.2171   29.6804 C.ar    1  UNL1        0.0000
     24 C         -29.2992    4.5118   29.0110 C.ar    1  UNL1        0.0000
     25 C         -28.8207    5.1468   30.0367 C.ar    1  UNL1        0.0000
     26 C         -29.7071    5.3748   31.1820 C.ar    1  UNL1        0.0000
     27 C         -30.8241    4.7790   31.3991 C.ar    1  UNL1        0.0000
@<TRIPOS>BOND
     1     3     7    1
     2     7     8    2
     3     8     9    1
     4     8    15    1
     5     7    16    1
     6     2    17    1
     7    11    18    1
     8     9    10   ar
     9    10    11   ar
    10    11    12   ar
    11    12    13   ar
    12    13    14   ar
    13    14     9   ar
    14    18    19   ar
    15    20    21   ar
    16    21    23   ar
    17    23    22   ar
    18    22    18   ar
    19    19    20   ar
    20    20    27   ar
    21    27    26   ar
    22    26    25   ar
    23    25    24   ar
    24    24    19   ar
    25     1     2   ar
    26     2     5   ar
    27     5     6   ar
    28     6     4   ar
    29     4     3   ar
    30     3     1   ar
