@<TRIPOS>MOLECULE
No_1883-gen_results/8p0m/2024-11-26-14-13-15/
 30 33 0 0 0
SMALL
GASTEIGER

@<TRIPOS>ATOM
      1 C         -28.0162   -0.8135   28.8779 C.ar    1  UNL1       -0.0003
      2 C         -27.0636   -0.1190   28.6079 C.ar    1  UNL1       -0.0196
      3 C         -25.7923   -0.4302   29.0761 C.ar    1  UNL1       -0.0042
      4 C         -24.5456    0.3494   28.8225 C.ar    1  UNL1       -0.0043
      5 C         -23.2409    0.0217   29.3323 C.ar    1  UNL1       -0.0003
      6 C         -27.8820   -1.8995   29.8633 C.ar    1  UNL1        0.0711
      7 C         -26.6526   -2.3142   30.3138 C.ar    1  UNL1        0.0038
      8 C         -25.5153   -1.5607   29.9787 C.ar    1  UNL1       -0.0004
      9 C         -22.1645    0.7936   28.9524 C.ar    1  UNL1       -0.0000
     10 C         -22.1241    1.7484   27.9889 C.ar    1  UNL1       -0.0003
     11 C         -24.5235    1.3782   27.7946 C.ar    1  UNL1       -0.0218
     12 C         -25.7193    1.6870   27.1452 C.3     1  UNL1        0.0334
     13 C         -23.3418    2.0550   27.3740 C.ar    1  UNL1       -0.0043
     14 C         -26.9521    0.9050   27.5233 C.3     1  UNL1        0.0555
     15 C         -28.2178    1.2164   26.8257 C.3     1  UNL1        0.1156
     16 C         -28.1642    1.2977   25.5262 C.3     1  UNL1        0.0319
     17 C         -28.8200    2.4510   27.4486 C.2     1  UNL1        0.0005
     18 C         -29.0995   -2.6621   30.2809 C.3     1  UNL1        0.4186
     19 F         -30.0652   -2.3130   29.8575 F       1  UNL1       -0.1659
     20 F         -28.8899   -3.9925   30.0267 F       1  UNL1       -0.1659
     21 F         -29.0837   -2.6013   31.6660 F       1  UNL1       -0.1659
     22 O         -29.2254    0.2270   27.1172 O.3     1  UNL1       -0.3488
     23 C         -30.4036    0.5021   26.3939 C.3     1  UNL1        0.1796
     24 C         -30.2314    0.1089   25.1083 C.3     1  UNL1        0.0378
     25 C         -29.1942    1.1308   24.5499 C.3     1  UNL1        0.0057
     26 C         -31.5463   -0.3199   27.1736 C.2     1  UNL1        0.2366
     27 O         -31.8429   -1.3744   26.7924 O.2     1  UNL1       -0.2856
     28 C         -28.1366    3.2422   28.3401 C.2     1  UNL1       -0.0023
     29 C         -28.7334    4.4215   28.8528 C.2     1  UNL1       -0.0003
     30 C         -30.0249    4.6875   28.5337 C.2     1  UNL1       -0.0000
@<TRIPOS>BOND
     1     3     4    1
     2    11    12    1
     3     2    14    1
     4    12    14    1
     5    14    15    1
     6    15    16    1
     7    15    17    1
     8     6    18    1
     9    18    19    1
    10    18    20    1
    11    18    21    1
    12    15    22    1
    13    22    23    1
    14    23    24    1
    15    16    25    1
    16    24    25    1
    17    23    26    1
    18    26    27    2
    19    17    28    2
    20    28    29    1
    21    29    30    2
    22     4     5   ar
    23     5     9   ar
    24     9    10   ar
    25    10    13   ar
    26    13    11   ar
    27    11     4   ar
    28     1     2   ar
    29     2     3   ar
    30     3     8   ar
    31     8     7   ar
    32     7     6   ar
    33     6     1   ar
