@<TRIPOS>MOLECULE
No_1884-gen_results/8p0m/2024-11-26-14-13-15/
 25 27 0 0 0
SMALL
GASTEIGER

@<TRIPOS>ATOM
      1 C         -28.0162   -0.8135   28.8779 C.3     1  UNL1        0.1178
      2 C         -27.0636   -0.1189   28.6079 C.ar    1  UNL1       -0.0024
      3 C         -26.8756    1.1325   28.9134 C.ar    1  UNL1       -0.0024
      4 C         -25.6883    1.9515   28.5672 C.ar    1  UNL1        0.0063
      5 C         -24.6394    1.2834   27.8753 C.ar    1  UNL1        0.0798
      6 C         -24.8068   -0.0513   27.6040 C.ar    1  UNL1        0.0063
      7 C         -25.9019   -0.7670   27.9511 C.ar    1  UNL1       -0.0024
      8 N         -27.9985   -1.5833   30.1015 N.pl3   1  UNL1       -0.3018
      9 C         -23.4538    1.9850   27.4766 C.2     1  UNL1        0.3878
     10 O         -23.4305    2.6571   26.5360 O.co2   1  UNL1       -0.2406
     11 O         -22.2804    1.6844   28.1097 O.co2   1  UNL1       -0.2406
     12 C         -26.9054   -1.9999   30.5155 C.3     1  UNL1        0.1125
     13 C         -28.9877   -1.3872   31.0312 C.ar    1  UNL1        0.0481
     14 C         -29.9565   -1.9088   31.1688 C.ar    1  UNL1        0.0133
     15 C         -30.2275   -3.0356   30.2702 C.ar    1  UNL1        0.0013
     16 C         -29.6938   -4.2067   30.5897 C.ar    1  UNL1        0.0023
     17 C         -29.8151   -5.3557   29.6878 C.ar    1  UNL1        0.0296
     18 C         -30.7535   -5.2463   28.6457 C.ar    1  UNL1        0.1401
     19 C         -31.5051   -4.0861   28.5320 C.ar    1  UNL1        0.0296
     20 C         -31.2465   -2.9970   29.3131 C.ar    1  UNL1        0.0023
     21 C         -28.6186   -0.2905   32.0846 C.ar    1  UNL1        0.0145
     22 C         -31.1083   -1.6515   32.0629 C.ar    1  UNL1        0.0012
     23 C         -29.5405    0.1566   32.9157 C.ar    1  UNL1        0.0013
     24 C         -30.7593   -0.6193   33.0542 C.ar    1  UNL1        0.0001
     25 F         -30.9246   -6.2977   27.9167 F       1  UNL1       -0.2042
@<TRIPOS>BOND
     1     1     8    1
     2     5     9    1
     3     9    10   ar
     4     9    11   ar
     5     8    12    1
     6     8    13    1
     7    14    15    1
     8    18    25    1
     9     1     2    1
    10    15    16   ar
    11    16    17   ar
    12    17    18   ar
    13    18    19   ar
    14    19    20   ar
    15    20    15   ar
    16     2     3   ar
    17     3     4   ar
    18     4     5   ar
    19     5     6   ar
    20     6     7   ar
    21     7     2   ar
    22    13    14   ar
    23    14    22   ar
    24    22    24   ar
    25    24    23   ar
    26    23    21   ar
    27    21    13   ar
