@<TRIPOS>MOLECULE
No_1885-gen_results/8p0m/2024-11-26-14-13-15/
 12 12 0 0 0
SMALL
GASTEIGER

@<TRIPOS>ATOM
      1 O         -28.1229   -1.3353   28.4874 O.2     1  UNL1       -0.2733
      2 C         -27.4806   -0.4044   28.7094 C.2     1  UNL1        0.2411
      3 N         -26.4599   -0.1104   28.0051 N.am    1  UNL1       -0.2027
      4 C         -25.4297    0.8788   28.3572 C.3     1  UNL1        0.1169
      5 C         -24.3600    1.0559   27.5650 C.2     1  UNL1       -0.0095
      6 C         -27.7374    0.5007   29.9644 C.3     1  UNL1        0.0782
      7 C         -23.1480    1.5644   28.0709 C.2     1  UNL1       -0.0287
      8 C         -21.9944    1.6823   27.3190 C.3     1  UNL1        0.0304
      9 C         -28.8298    0.2131   30.7087 C.3     1  UNL1        0.0096
     10 C         -25.5658    1.5717   29.5715 C.3     1  UNL1        0.0262
     11 C         -26.2821    1.7710   30.4305 C.3     1  UNL1        0.0026
     12 C         -27.3045    1.5571   30.0018 C.3     1  UNL1        0.0092
@<TRIPOS>BOND
     1     1     2    2
     2     2     3   am
     3     3     4    1
     4     4     5    1
     5     2     6    1
     6     5     7    2
     7     7     8    1
     8     6     9    1
     9     4    10    1
    10    10    11    1
    11     6    12    1
    12    11    12    1
