@<TRIPOS>MOLECULE
No_1886-gen_results/8p0m/2024-11-26-14-13-15/
 31 34 0 0 0
SMALL
GASTEIGER

@<TRIPOS>ATOM
      1 C         -28.0162   -0.8135   28.8779 C.ar    1  UNL1        0.0166
      2 C         -28.4690   -0.7850   29.8287 C.ar    1  UNL1        0.0737
      3 C         -26.5042   -0.7777   28.8766 C.ar    1  UNL1        0.0013
      4 C         -25.8103   -0.8531   30.1028 C.ar    1  UNL1        0.0001
      5 C         -27.9906   -0.8916   31.2257 C.ar    1  UNL1        0.0166
      6 C         -26.6042   -0.8676   31.2652 C.ar    1  UNL1        0.0013
      7 N         -29.9765   -0.8288   29.8497 N.am    1  UNL1       -0.1754
      8 C         -30.5795   -0.1232   28.9820 C.2     1  UNL1        0.2690
      9 O         -30.0432    0.5770   28.2959 O.2     1  UNL1       -0.2680
     10 C         -32.0822   -0.3796   28.9957 C.ar    1  UNL1        0.0554
     11 C         -32.7929    0.5185   29.1819 C.ar    1  UNL1        0.0046
     12 C         -34.2459    0.3910   29.2364 C.ar    1  UNL1        0.0001
     13 C         -32.5302   -1.6654   28.6419 C.ar    1  UNL1        0.0046
     14 C         -33.8937   -1.8950   28.6218 C.ar    1  UNL1        0.0001
     15 C         -34.7374   -0.8546   28.9133 C.ar    1  UNL1        0.0000
     16 C         -36.1827   -1.1130   28.8772 C.ar    1  UNL1        0.0001
     17 C         -36.7480   -1.9511   28.4039 C.ar    1  UNL1        0.0000
     18 C         -37.8709   -2.3236   28.2611 C.ar    1  UNL1        0.0001
     19 C         -38.8509   -1.3786   28.8732 C.ar    1  UNL1        0.0045
     20 C         -38.3768   -0.3001   29.4850 C.ar    1  UNL1        0.0539
     21 C         -37.0018   -0.0448   29.5507 C.ar    1  UNL1        0.0045
     22 C         -39.2993    0.6853   30.1287 C.2     1  UNL1        0.2528
     23 O         -39.3139    0.8712   31.2642 O.2     1  UNL1       -0.2696
     24 N         -39.7931    1.6061   29.2442 N.am    1  UNL1       -0.2534
     25 C         -40.6631    2.6502   29.7297 C.3     1  UNL1        0.1203
     26 C         -39.2948    1.7972   27.9667 C.ar    1  UNL1        0.0542
     27 C         -39.7222    1.7600   26.9579 C.ar    1  UNL1        0.0149
     28 C         -39.0580    1.8537   25.6744 C.ar    1  UNL1        0.0013
     29 C         -37.6774    2.0447   25.7358 C.ar    1  UNL1        0.0001
     30 C         -37.0196    2.1533   26.9303 C.ar    1  UNL1        0.0013
     31 C         -37.7426    2.0712   28.0396 C.ar    1  UNL1        0.0149
@<TRIPOS>BOND
     1     2     7    1
     2     7     8   am
     3     8     9    2
     4     8    10    1
     5    15    16    1
     6    20    22    1
     7    22    23    2
     8    22    24   am
     9    24    25    1
    10    24    26    1
    11    26    27   ar
    12    27    28   ar
    13    28    29   ar
    14    29    30   ar
    15    30    31   ar
    16    31    26   ar
    17    16    17   ar
    18    17    18   ar
    19    18    19   ar
    20    19    20   ar
    21    20    21   ar
    22    21    16   ar
    23     1     2   ar
    24     2     5   ar
    25     5     6   ar
    26     6     4   ar
    27     4     3   ar
    28     3     1   ar
    29    10    11   ar
    30    11    12   ar
    31    12    15   ar
    32    15    14   ar
    33    14    13   ar
    34    13    10   ar
