@<TRIPOS>MOLECULE
No_1887-gen_results/8p0m/2024-11-26-14-13-15/
 13 15 0 0 0
SMALL
GASTEIGER

@<TRIPOS>ATOM
      1 C         -28.0162   -0.8135   28.8779 C.3     1  UNL1        0.0533
      2 C         -27.0636   -0.1189   28.6079 C.ar    1  UNL1       -0.0048
      3 C         -26.9716    0.7139   27.5060 C.ar    1  UNL1        0.0403
      4 C         -25.8205    1.4909   27.1160 C.ar    1  UNL1       -0.0074
      5 C         -24.6562    1.4242   27.9180 C.ar    1  UNL1       -0.0030
      6 C         -24.6847    0.5901   29.0659 C.ar    1  UNL1       -0.0006
      7 C         -25.8099   -0.1265   29.3338 C.ar    1  UNL1       -0.0027
      8 C         -29.2444   -0.0768   29.2011 C.2     1  UNL1       -0.0242
      9 C         -29.6215    0.8331   28.5664 C.2     1  UNL1       -0.0090
     10 C         -29.1742    1.5153   27.4003 C.3     1  UNL1        0.1171
     11 N         -27.8992    1.8567   27.2811 N.pl3   1  UNL1       -0.3037
     12 C         -27.4252    2.7048   26.1619 C.3     1  UNL1        0.0958
     13 C         -26.1410    2.8776   26.5855 C.3     1  UNL1        0.0490
@<TRIPOS>BOND
     1     1     8    1
     2     8     9    2
     3     9    10    1
     4     3    11    1
     5    10    11    1
     6    11    12    1
     7     4    13    1
     8    12    13    1
     9     1     2    1
    10     2     3   ar
    11     3     4   ar
    12     4     5   ar
    13     5     6   ar
    14     6     7   ar
    15     7     2   ar
