@<TRIPOS>MOLECULE
No_1888-gen_results/8p0m/2024-11-26-14-13-15/
 24 26 0 0 0
SMALL
GASTEIGER

@<TRIPOS>ATOM
      1 C         -28.0162   -0.8135   28.8779 C.ar    1  UNL1        0.0000
      2 C         -27.0636   -0.1189   28.6079 C.ar    1  UNL1        0.0000
      3 C         -26.8756    1.1325   28.9134 C.ar    1  UNL1        0.0002
      4 C         -25.6883    1.9515   28.5672 C.ar    1  UNL1        0.0065
      5 C         -24.6394    1.2834   27.8753 C.ar    1  UNL1        0.0798
      6 C         -24.8068   -0.0513   27.6040 C.ar    1  UNL1        0.0066
      7 C         -25.9019   -0.7670   27.9511 C.ar    1  UNL1        0.0002
      8 C         -29.2125   -0.1153   29.1222 C.ar    1  UNL1        0.0000
      9 C         -29.1930    1.2206   29.4151 C.ar    1  UNL1        0.0000
     10 C         -28.0327    1.9256   29.1788 C.ar    1  UNL1        0.0000
     11 C         -23.3540    1.8898   27.5892 C.2     1  UNL1        0.3878
     12 O         -23.1789    2.6305   26.7506 O.co2   1  UNL1       -0.2406
     13 O         -22.2101    1.4155   28.3583 O.co2   1  UNL1       -0.2406
     14 C         -25.4777    3.3728   28.9092 C.2     1  UNL1        0.0049
     15 C         -25.4641    3.9850   30.0210 C.2     1  UNL1        0.0598
     16 C         -25.5320    5.3763   30.2244 C.2     1  UNL1        0.2691
     17 N         -25.5330    5.9511   31.4528 N.am    1  UNL1       -0.1754
     18 O         -25.4915    6.2158   29.2323 O.2     1  UNL1       -0.2680
     19 C         -25.4489    7.3869   31.7420 C.ar    1  UNL1        0.0737
     20 C         -25.7927    8.2231   31.2157 C.ar    1  UNL1        0.0166
     21 C         -25.6281    9.6339   31.5653 C.ar    1  UNL1        0.0013
     22 C         -25.1020    7.6203   33.1809 C.ar    1  UNL1        0.0166
     23 C         -24.9633    8.9205   33.6687 C.ar    1  UNL1        0.0013
     24 C         -25.2730    9.9528   32.8333 C.ar    1  UNL1        0.0001
@<TRIPOS>BOND
     1     5    11    1
     2    11    12   ar
     3    11    13   ar
     4     4    14    1
     5    14    15    2
     6    15    16    1
     7    16    17   am
     8    16    18    2
     9    17    19    1
    10     3     4   ar
    11     4     5   ar
    12     5     6   ar
    13     6     7   ar
    14     7     2   ar
    15    19    20   ar
    16    20    21   ar
    17    21    24   ar
    18    24    23   ar
    19    23    22   ar
    20    22    19   ar
    21     1     2   ar
    22     2     3   ar
    23     3    10   ar
    24    10     9   ar
    25     9     8   ar
    26     8     1   ar
