@<TRIPOS>MOLECULE
No_1889-gen_results/8p0m/2024-11-26-14-13-15/
 28 29 0 0 0
SMALL
GASTEIGER

@<TRIPOS>ATOM
      1 C         -28.0162   -0.8135   28.8779 C.ar    1  UNL1        0.0028
      2 C         -28.4690   -0.7850   29.8287 C.ar    1  UNL1        0.0795
      3 C         -26.5455   -0.8762   28.8500 C.ar    1  UNL1       -0.0112
      4 C         -25.6825   -0.7773   27.6829 C.3     1  UNL1        0.0529
      5 C         -27.9181   -1.0034   31.1877 C.ar    1  UNL1        0.0068
      6 C         -26.5308   -1.0794   31.2463 C.ar    1  UNL1        0.0065
      7 C         -25.7798   -1.0462   30.0905 C.ar    1  UNL1        0.0761
      8 C         -25.8976    0.2387   26.7449 C.ar    1  UNL1       -0.0166
      9 C         -24.9256    0.7629   26.0322 C.ar    1  UNL1       -0.0042
     10 C         -24.2472    1.7995   26.1605 C.ar    1  UNL1       -0.0033
     11 C         -24.4507    2.7005   27.2727 C.ar    1  UNL1       -0.0081
     12 C         -23.6013    3.7384   27.6399 C.3     1  UNL1        0.0323
     13 C         -26.0383    1.5376   27.6750 C.ar    1  UNL1        0.0107
     14 C         -25.3523    2.5175   28.0285 C.ar    1  UNL1        0.0505
     15 C         -24.3858   -1.1830   30.1504 C.2     1  UNL1        0.3875
     16 O         -23.6541   -0.4629   30.8081 O.co2   1  UNL1       -0.2406
     17 O         -23.7640   -1.9258   29.1465 O.co2   1  UNL1       -0.2406
     18 C         -30.0754   -0.7376   29.8982 C.2     1  UNL1        0.3877
     19 O         -30.7042   -0.0505   30.7786 O.co2   1  UNL1       -0.2406
     20 O         -30.6665   -1.0452   28.8056 O.co2   1  UNL1       -0.2406
     21 N         -25.7693    3.2728   29.0913 N.am    1  UNL1       -0.2427
     22 C         -26.0085    4.5585   29.0760 C.2     1  UNL1        0.3073
     23 C         -25.9799    2.6906   30.4505 C.3     1  UNL1        0.1853
     24 C         -25.0723    3.1451   31.5490 C.2     1  UNL1        0.2621
     25 O         -24.1944    2.6334   31.9639 O.2     1  UNL1       -0.2715
     26 N         -25.6775    4.2433   32.2393 N.am    1  UNL1       -0.2021
     27 C         -24.9628    4.8705   33.3675 C.3     1  UNL1        0.1386
     28 O         -26.7807    5.0861   28.4755 O.2     1  UNL1       -0.2646
@<TRIPOS>BOND
     1     3     4    1
     2     4     8    1
     3    11    12    1
     4     7    15    1
     5    15    16   ar
     6    15    17   ar
     7     2    18    1
     8    18    19   ar
     9    18    20   ar
    10    14    21    1
    11    21    22   am
    12    21    23    1
    13    23    24    1
    14    24    25    2
    15    24    26   am
    16    26    27    1
    17    22    28    2
    18     8     9   ar
    19     9    10   ar
    20    10    11   ar
    21    11    14   ar
    22    14    13   ar
    23    13     8   ar
    24     1     2   ar
    25     2     5   ar
    26     5     6   ar
    27     6     7   ar
    28     7     3   ar
    29     3     1   ar
