@<TRIPOS>MOLECULE
No_1891-gen_results/8p0m/2024-11-26-14-13-15/
 18 19 0 0 0
SMALL
GASTEIGER

@<TRIPOS>ATOM
      1 O         -28.1229   -1.3353   28.4874 O.co2   1  UNL1       -0.2443
      2 C         -28.5208   -0.4363   29.0779 C.2     1  UNL1        0.3797
      3 O         -27.9150    0.0780   30.0386 O.co2   1  UNL1       -0.2443
      4 C         -29.8074    0.1885   28.6630 C.3     1  UNL1        0.1868
      5 C         -29.7096    1.3760   28.1635 C.3     1  UNL1        0.0541
      6 C         -30.6214    1.8870   27.5825 C.ar    1  UNL1       -0.0204
      7 CL        -30.8859   -0.0166   29.9921 Cl      1  UNL1       -0.1025
      8 C         -30.5352    3.2828   27.0777 C.ar    1  UNL1       -0.0039
      9 C         -31.5798    4.0830   26.4608 C.ar    1  UNL1       -0.0003
     10 C         -32.7185    3.3834   26.1484 C.ar    1  UNL1       -0.0000
     11 C         -32.8218    2.0659   26.5233 C.ar    1  UNL1       -0.0003
     12 C         -31.8725    1.3479   27.1718 C.ar    1  UNL1       -0.0042
     13 C         -29.2746    4.0842   27.3477 C.ar    1  UNL1       -0.0003
     14 C         -29.0963    4.5860   28.6193 C.ar    1  UNL1       -0.0000
     15 C         -27.8533    5.0996   28.9662 C.ar    1  UNL1       -0.0000
     16 C         -26.7734    5.0506   28.0549 C.ar    1  UNL1       -0.0000
     17 C         -26.9341    4.4743   26.8170 C.ar    1  UNL1       -0.0000
     18 C         -28.1856    3.9218   26.4764 C.ar    1  UNL1       -0.0000
@<TRIPOS>BOND
     1     1     2   ar
     2     2     3   ar
     3     2     4    1
     4     4     5    1
     5     4     7    1
     6     8    13    1
     7     5     6    1
     8    13    14   ar
     9    14    15   ar
    10    15    16   ar
    11    16    17   ar
    12    17    18   ar
    13    18    13   ar
    14     6     8   ar
    15     8     9   ar
    16     9    10   ar
    17    10    11   ar
    18    11    12   ar
    19    12     6   ar
