@<TRIPOS>MOLECULE
No_1892-gen_results/8p0m/2024-11-26-14-13-15/
 20 21 0 0 0
SMALL
GASTEIGER

@<TRIPOS>ATOM
      1 C         -28.0162   -0.8135   28.8779 C.ar    1  UNL1        0.0079
      2 C         -28.4690   -0.7850   29.8287 C.ar    1  UNL1        0.0716
      3 C         -26.5042   -0.7777   28.8766 C.ar    1  UNL1        0.0495
      4 C         -25.8103   -0.8531   30.1028 C.ar    1  UNL1        0.0607
      5 C         -27.9906   -0.8916   31.2257 C.ar    1  UNL1        0.0047
      6 C         -26.6042   -0.8676   31.2652 C.ar    1  UNL1        0.0114
      7 C         -30.0739   -0.8360   29.8615 C.3     1  UNL1        0.4186
      8 F         -30.5916   -1.8281   30.0957 F       1  UNL1       -0.1659
      9 F         -30.4130   -0.3874   28.6120 F       1  UNL1       -0.1659
     10 F         -30.5351    0.1554   30.6423 F       1  UNL1       -0.1659
     11 C         -25.6286   -0.7158   27.6753 C.2     1  UNL1        0.1985
     12 C         -25.2380    0.6549   27.3319 C.ar    1  UNL1        0.0664
     13 C         -25.5444    1.1810   26.1306 C.ar    1  UNL1        0.1432
     14 C         -25.0413    2.4491   25.7611 C.ar    1  UNL1        0.0297
     15 C         -24.2260    3.1639   26.7300 C.ar    1  UNL1        0.0023
     16 C         -24.3968    1.4413   28.1467 C.ar    1  UNL1        0.0054
     17 C         -23.8561    2.5955   27.8206 C.ar    1  UNL1        0.0002
     18 F         -26.2697    0.6090   25.2612 F       1  UNL1       -0.2041
     19 O         -25.6175   -1.6197   26.9101 O.2     1  UNL1       -0.2865
     20 CL        -24.1759   -0.9042   30.2404 Cl      1  UNL1       -0.0821
@<TRIPOS>BOND
     1     2     7    1
     2     7     8    1
     3     7     9    1
     4     7    10    1
     5     3    11    1
     6    11    12    1
     7    13    18    1
     8    11    19    2
     9     4    20    1
    10    12    13   ar
    11    13    14   ar
    12    14    15   ar
    13    15    17   ar
    14    17    16   ar
    15    16    12   ar
    16     1     2   ar
    17     2     5   ar
    18     5     6   ar
    19     6     4   ar
    20     4     3   ar
    21     3     1   ar
