@<TRIPOS>MOLECULE
No_1893-gen_results/8p0m/2024-11-26-14-13-15/
 20 22 0 0 0
SMALL
GASTEIGER

@<TRIPOS>ATOM
      1 C         -28.0162   -0.8135   28.8779 C.ar    1  UNL1       -0.0003
      2 C         -28.4690   -0.7850   29.8287 C.ar    1  UNL1       -0.0000
      3 C         -27.0871    0.2903   28.6377 C.ar    1  UNL1       -0.0040
      4 C         -26.8317    1.2487   29.5869 C.ar    1  UNL1       -0.0218
      5 C         -28.3914    0.0801   31.0065 C.ar    1  UNL1       -0.0003
      6 C         -27.4940    1.1521   30.7841 C.ar    1  UNL1       -0.0043
      7 C         -26.3172    0.3994   27.3653 C.ar    1  UNL1       -0.0003
      8 C         -24.9405    0.2550   27.5028 C.ar    1  UNL1       -0.0003
      9 C         -26.9129    0.5860   26.1397 C.ar    1  UNL1       -0.0000
     10 C         -26.1769    0.4192   24.9937 C.ar    1  UNL1       -0.0000
     11 C         -24.1284    0.4169   26.3366 C.ar    1  UNL1       -0.0000
     12 C         -24.7912    0.4642   25.1030 C.ar    1  UNL1       -0.0000
     13 C         -24.2095    0.2065   28.7355 C.ar    1  UNL1       -0.0040
     14 C         -23.4076   -0.3827   29.2225 C.ar    1  UNL1       -0.0003
     15 C         -22.6832   -0.2799   30.4802 C.ar    1  UNL1       -0.0000
     16 C         -23.3768    0.5351   31.3916 C.ar    1  UNL1       -0.0003
     17 C         -24.3478    1.4066   30.9985 C.ar    1  UNL1       -0.0043
     18 C         -24.8573    1.3152   29.6819 C.ar    1  UNL1       -0.0218
     19 C         -24.7169    2.8030   29.0550 C.3     1  UNL1        0.0310
     20 C         -27.2227    2.7163   29.0402 C.3     1  UNL1        0.0310
@<TRIPOS>BOND
     1     3     7    1
     2     8    13    1
     3    18    19    1
     4     4    20    1
     5    13    14   ar
     6    14    15   ar
     7    15    16   ar
     8    16    17   ar
     9    17    18   ar
    10    18    13   ar
    11     7     8   ar
    12     8    11   ar
    13    11    12   ar
    14    12    10   ar
    15    10     9   ar
    16     9     7   ar
    17     1     2   ar
    18     2     5   ar
    19     5     6   ar
    20     6     4   ar
    21     4     3   ar
    22     3     1   ar
