@<TRIPOS>MOLECULE
No_1894-gen_results/8p0m/2024-11-26-14-13-15/
 16 17 0 0 0
SMALL
GASTEIGER

@<TRIPOS>ATOM
      1 C         -28.0162   -0.8135   28.8779 C.ar    1  UNL1        0.0026
      2 C         -28.4690   -0.7850   29.8287 C.ar    1  UNL1        0.0795
      3 C         -26.5042   -0.7777   28.8766 C.ar    1  UNL1       -0.0176
      4 C         -25.8103   -0.8531   30.1028 C.ar    1  UNL1       -0.0039
      5 C         -30.0136   -0.8410   29.8508 C.2     1  UNL1        0.3877
      6 C         -26.5670   -0.8850   31.2517 C.ar    1  UNL1       -0.0001
      7 C         -27.9411   -0.9069   31.1850 C.ar    1  UNL1        0.0066
      8 O         -30.6493   -0.0573   30.6757 O.co2   1  UNL1       -0.2406
      9 O         -30.6033   -1.6021   29.0402 O.co2   1  UNL1       -0.2406
     10 C         -25.6386   -0.7164   27.6713 C.3     1  UNL1        0.0526
     11 C         -25.2994    0.6613   27.3031 C.ar    1  UNL1       -0.0178
     12 C         -25.5131    1.1000   26.0400 C.ar    1  UNL1       -0.0039
     13 C         -25.1185    2.4119   25.6408 C.ar    1  UNL1       -0.0003
     14 C         -24.4362    3.2337   26.6390 C.ar    1  UNL1       -0.0000
     15 C         -24.5998    1.5808   28.0948 C.ar    1  UNL1       -0.0039
     16 C         -24.1771    2.7828   27.8059 C.ar    1  UNL1       -0.0003
@<TRIPOS>BOND
     1     2     5    1
     2     5     8   ar
     3     5     9   ar
     4     3    10    1
     5    10    11    1
     6    11    12   ar
     7    12    13   ar
     8    13    14   ar
     9    14    16   ar
    10    16    15   ar
    11    15    11   ar
    12     1     2   ar
    13     2     7   ar
    14     7     6   ar
    15     6     4   ar
    16     4     3   ar
    17     3     1   ar
