@<TRIPOS>MOLECULE
No_1895-gen_results/8p0m/2024-11-26-14-13-15/
 35 38 0 0 0
SMALL
GASTEIGER

@<TRIPOS>ATOM
      1 C         -28.0162   -0.8135   28.8779 C.2     1  UNL1       -0.0003
      2 C         -27.0636   -0.1189   28.6079 C.2     1  UNL1        0.0268
      3 C         -25.7647   -0.3897   29.0360 C.2     1  UNL1        0.1676
      4 C         -24.5516    0.4058   28.7646 C.3     1  UNL1        0.0819
      5 C         -24.6957    1.4480   27.7988 C.3     1  UNL1        0.1042
      6 C         -25.9755    1.7250   27.3077 C.3     1  UNL1        0.0246
      7 C         -27.0718    1.0134   27.6535 C.3     1  UNL1        0.1252
      8 C         -28.6043   -0.4743   30.2323 C.ar    1  UNL1        0.0028
      9 C         -29.6322   -0.5049   30.6010 C.ar    1  UNL1        0.0002
     10 C         -30.1085   -0.1742   31.9668 C.ar    1  UNL1        0.0031
     11 C         -29.1617    0.1610   32.9068 C.ar    1  UNL1        0.0375
     12 C         -27.8097    0.1269   32.5283 C.ar    1  UNL1        0.1454
     13 C         -27.4239   -0.1536   31.3381 C.ar    1  UNL1        0.0375
     14 C         -23.4984    2.2057   27.4435 C.3     1  UNL1        0.3980
     15 F         -23.7262    3.1276   26.6695 F       1  UNL1       -0.1700
     16 F         -22.5304    1.4178   26.7928 F       1  UNL1       -0.1700
     17 F         -22.8792    2.7261   28.5095 F       1  UNL1       -0.1700
     18 C         -28.3718    1.4152   27.0728 C.2     1  UNL1        0.3252
     19 O         -28.6818    1.3967   26.0066 O.2     1  UNL1       -0.2493
     20 O         -29.3824    1.4560   28.0392 O.3     1  UNL1       -0.4239
     21 O         -26.8540    0.4423   33.4498 O.3     1  UNL1       -0.4504
     22 C         -25.6179    0.2057   33.1239 C.2     1  UNL1        0.1795
     23 C         -25.2529   -0.7534   32.9578 C.2     1  UNL1        0.0403
     24 C         -23.9240   -0.9802   32.3104 C.2     1  UNL1       -0.0007
     25 C         -23.4035   -2.1483   31.9048 C.2     1  UNL1       -0.0129
     26 C         -23.7329   -2.0737   30.5960 C.3     1  UNL1        0.1546
     27 N         -25.5103   -1.4146   29.9311 N.2     1  UNL1       -0.0392
     28 C         -24.3147   -1.7874   29.9074 C.2     1  UNL1        0.4074
     29 N         -24.1432   -2.2266   28.5857 N.2     1  UNL1        0.1949
     30 C         -29.7865    2.7013   28.2615 C.ar    1  UNL1        0.1485
     31 C         -29.2694    3.3014   29.0636 C.ar    1  UNL1        0.0376
     32 C         -29.6796    4.6745   29.4803 C.ar    1  UNL1        0.0031
     33 C         -30.8328    5.1448   28.8989 C.ar    1  UNL1        0.0002
     34 C         -30.9720    3.0502   27.5639 C.ar    1  UNL1        0.0376
     35 C         -31.4972    4.3460   27.9189 C.ar    1  UNL1        0.0031
@<TRIPOS>BOND
     1     1     2    2
     2     2     3    1
     3     3     4    1
     4     4     5    1
     5     5     6    1
     6     2     7    1
     7     6     7    1
     8     1     8    1
     9     5    14    1
    10    14    15    1
    11    14    16    1
    12    14    17    1
    13     7    18    1
    14    18    19    2
    15    18    20    1
    16    12    21    1
    17    21    22    1
    18    22    23    2
    19    23    24    1
    20    24    25    2
    21    25    26    1
    22     3    27    2
    23    26    28    1
    24    27    28    1
    25    28    29    2
    26    20    30    1
    27    30    31   ar
    28    31    32   ar
    29    32    33   ar
    30    33    35   ar
    31    35    34   ar
    32    34    30   ar
    33     8     9   ar
    34     9    10   ar
    35    10    11   ar
    36    11    12   ar
    37    12    13   ar
    38    13     8   ar
