@<TRIPOS>MOLECULE
No_1896-gen_results/8p0m/2024-11-26-14-13-15/
 15 16 0 0 0
SMALL
GASTEIGER

@<TRIPOS>ATOM
      1 C         -28.0162   -0.8135   28.8779 C.ar    1  UNL1        0.0159
      2 C         -28.4690   -0.7850   29.8287 C.ar    1  UNL1        0.0544
      3 C         -26.5042   -0.7777   28.8766 C.ar    1  UNL1        0.0578
      4 C         -25.8103   -0.8531   30.1028 C.ar    1  UNL1        0.0114
      5 C         -27.9906   -0.8916   31.2257 C.ar    1  UNL1        0.0046
      6 C         -26.6042   -0.8676   31.2652 C.ar    1  UNL1        0.0010
      7 C         -30.0739   -0.8360   29.8615 C.2     1  UNL1        0.2490
      8 O         -30.6891   -1.6554   30.2229 O.2     1  UNL1       -0.2699
      9 N         -30.6139    0.2846   29.2227 N.am    1  UNL1       -0.2761
     10 C         -32.0200    0.3381   29.0215 C.3     1  UNL1        0.0937
     11 C         -29.9058    0.7909   28.0761 C.3     1  UNL1        0.0937
     12 C         -30.4184    1.4539   27.2936 C.3     1  UNL1        0.0216
     13 C         -32.5737    1.3174   28.2140 C.3     1  UNL1        0.0216
     14 C         -31.7554    1.8680   27.2816 C.3     1  UNL1        0.0035
     15 CL        -25.5644   -0.6791   27.4542 Cl      1  UNL1       -0.0822
@<TRIPOS>BOND
     1     2     7    1
     2     7     8    2
     3     7     9   am
     4     9    10    1
     5     9    11    1
     6    12    14    1
     7    13    14    1
     8     3    15    1
     9    10    13    1
    10    12    11    1
    11     1     2   ar
    12     2     5   ar
    13     5     6   ar
    14     6     4   ar
    15     4     3   ar
    16     3     1   ar
