@<TRIPOS>MOLECULE
No_1897-gen_results/8p0m/2024-11-26-14-13-15/
 15 16 0 0 0
SMALL
GASTEIGER

@<TRIPOS>ATOM
      1 C         -28.0162   -0.8135   28.8779 C.ar    1  UNL1        0.0296
      2 C         -28.4690   -0.7850   29.8287 C.ar    1  UNL1        0.1401
      3 C         -26.5042   -0.7777   28.8766 C.ar    1  UNL1        0.0023
      4 C         -25.8103   -0.8531   30.1028 C.ar    1  UNL1        0.0001
      5 C         -27.9906   -0.8916   31.2257 C.ar    1  UNL1        0.0296
      6 C         -26.6042   -0.8676   31.2652 C.ar    1  UNL1        0.0023
      7 F         -29.9203   -0.8331   29.8239 F       1  UNL1       -0.2042
      8 C         -24.3796   -0.8022   30.1424 C.ar    1  UNL1        0.0001
      9 C         -23.6617   -1.3645   30.7155 C.ar    1  UNL1        0.0000
     10 C         -23.7616    0.2278   29.2222 C.ar    1  UNL1        0.0016
     11 C         -22.3781    0.3257   29.1338 C.ar    1  UNL1        0.0210
     12 C         -22.2140   -1.3186   30.8402 C.ar    1  UNL1        0.0000
     13 C         -21.6206   -0.4670   29.8806 C.ar    1  UNL1        0.0016
     14 C         -21.8041    1.2450   28.1115 C.2     1  UNL1        0.1221
     15 N         -22.0708    2.0604   27.4156 N.2     1  UNL1       -0.1464
@<TRIPOS>BOND
     1     2     7    1
     2     4     8    1
     3    11    14    1
     4    14    15    2
     5     8     9   ar
     6     9    12   ar
     7    12    13   ar
     8    13    11   ar
     9    11    10   ar
    10    10     8   ar
    11     1     2   ar
    12     2     5   ar
    13     5     6   ar
    14     6     4   ar
    15     4     3   ar
    16     3     1   ar
