@<TRIPOS>MOLECULE
No_1898-gen_results/8p0m/2024-11-26-14-13-15/
 23 24 0 0 0
SMALL
GASTEIGER

@<TRIPOS>ATOM
      1 C         -28.0162   -0.8135   28.8779 C.ar    1  UNL1        0.0046
      2 C         -28.4690   -0.7850   29.8287 C.ar    1  UNL1        0.0010
      3 C         -28.1816    0.4277   28.1134 C.ar    1  UNL1        0.0544
      4 C         -28.9841    1.4155   28.5154 C.ar    1  UNL1        0.0159
      5 C         -29.3802    0.1384   30.4612 C.ar    1  UNL1        0.0114
      6 C         -29.5415    1.2736   29.7242 C.ar    1  UNL1        0.0578
      7 C         -27.4452    0.4872   26.7726 C.2     1  UNL1        0.2491
      8 N         -27.8546    0.6986   25.7753 N.am    1  UNL1       -0.2743
      9 O         -26.0936    0.2403   26.8551 O.2     1  UNL1       -0.2699
     10 C         -29.2817    0.9744   25.5258 C.3     1  UNL1        0.0940
     11 C         -27.0698    0.6623   24.5032 C.3     1  UNL1        0.1152
     12 CL        -30.5910    2.5245   30.3012 Cl      1  UNL1       -0.0822
     13 C         -29.9449    0.0377   24.6300 C.3     1  UNL1        0.0273
     14 C         -30.6436   -0.9108   25.3182 C.3     1  UNL1        0.0705
     15 C         -32.0541   -0.8446   25.1272 C.3     1  UNL1        0.2756
     16 C         -32.8301   -1.6311   26.0151 C.ar    1  UNL1        0.0357
     17 C         -32.7184   -1.7158   27.0161 C.ar    1  UNL1        0.0007
     18 C         -33.4192   -2.6255   27.9594 C.ar    1  UNL1       -0.0002
     19 C         -34.4446   -3.3054   27.4467 C.ar    1  UNL1       -0.0000
     20 C         -34.7374   -3.2553   26.0831 C.ar    1  UNL1       -0.0002
     21 C         -33.9499   -2.4355   25.3524 C.ar    1  UNL1        0.0007
     22 F         -32.4240    0.4584   25.2334 F       1  UNL1       -0.2020
     23 O         -32.3066   -1.1722   23.7035 O.3     1  UNL1       -0.1852
@<TRIPOS>BOND
     1     3     7    1
     2     7     8   am
     3     7     9    2
     4     8    10    1
     5     8    11    1
     6     6    12    1
     7    10    13    1
     8    13    14    1
     9    14    15    1
    10    15    16    1
    11    15    22    1
    12    15    23    1
    13     1     2   ar
    14     2     5   ar
    15     5     6   ar
    16     6     4   ar
    17     4     3   ar
    18     3     1   ar
    19    16    17   ar
    20    17    18   ar
    21    18    19   ar
    22    19    20   ar
    23    20    21   ar
    24    21    16   ar
