@<TRIPOS>MOLECULE
No_19-gen_results/8p0m/2024-11-26-14-13-15/
 10 10 0 0 0
SMALL
GASTEIGER

@<TRIPOS>ATOM
      1 C         -28.0162   -0.8135   28.8779 C.ar    1  UNL1       -0.0003
      2 C         -28.4690   -0.7850   29.8287 C.ar    1  UNL1       -0.0000
      3 C         -26.5455   -0.8762   28.8500 C.ar    1  UNL1       -0.0039
      4 C         -25.8041   -1.0324   30.0571 C.ar    1  UNL1       -0.0178
      5 C         -26.4108   -0.9067   31.0401 C.ar    1  UNL1       -0.0039
      6 C         -27.7982   -0.8545   31.1786 C.ar    1  UNL1       -0.0003
      7 C         -24.3260   -1.1017   29.9247 C.3     1  UNL1        0.0520
      8 C         -23.5838    0.0581   29.6526 C.2     1  UNL1       -0.0260
      9 C         -22.3481    0.0154   29.0525 C.2     1  UNL1       -0.0300
     10 C         -21.7085    1.1999   28.6705 C.3     1  UNL1        0.0304
@<TRIPOS>BOND
     1     4     7    1
     2     7     8    1
     3     8     9    2
     4     9    10    1
     5     1     2   ar
     6     2     6   ar
     7     6     5   ar
     8     5     4   ar
     9     4     3   ar
    10     3     1   ar
