@<TRIPOS>MOLECULE
No_190-gen_results/8p0m/2024-11-26-14-13-15/
 23 23 0 0 0
SMALL
GASTEIGER

@<TRIPOS>ATOM
      1 O         -28.1229   -1.3353   28.4874 O.co2   1  UNL1       -0.2406
      2 C         -27.0637   -0.8242   28.8687 C.2     1  UNL1        0.3878
      3 C         -26.9592    0.0926   29.7582 C.ar    1  UNL1        0.0798
      4 O         -25.8802   -1.1117   28.1591 O.co2   1  UNL1       -0.2406
      5 C         -25.8830    0.2196   30.4790 C.ar    1  UNL1        0.0067
      6 C         -25.5914    0.9707   31.5628 C.ar    1  UNL1        0.0047
      7 C         -26.7021    1.7328   32.0757 C.ar    1  UNL1        0.0539
      8 C         -27.9077    1.5844   31.3828 C.ar    1  UNL1        0.0047
      9 C         -28.0727    0.7486   30.3435 C.ar    1  UNL1        0.0067
     10 C         -26.4576    2.6633   33.1979 C.2     1  UNL1        0.2530
     11 N         -26.7811    2.3923   34.3532 N.am    1  UNL1       -0.2460
     12 O         -25.8289    3.7947   32.9011 O.2     1  UNL1       -0.2696
     13 C         -26.6515    3.4213   35.4964 C.3     1  UNL1        0.2019
     14 C         -27.3159    1.1080   34.7477 C.2     1  UNL1        0.0638
     15 C         -26.9960    4.6536   35.2245 C.3     1  UNL1        0.4160
     16 F         -27.3771    4.9503   34.1840 F       1  UNL1       -0.1682
     17 F         -25.9369    5.5144   35.6049 F       1  UNL1       -0.1682
     18 F         -27.8373    5.0670   36.2949 F       1  UNL1       -0.1682
     19 C         -26.9731    0.6724   35.9096 C.2     1  UNL1       -0.0053
     20 C         -27.0846   -0.3822   36.4441 C.3     1  UNL1        0.0530
     21 C         -26.5955   -0.8972   37.7344 C.2     1  UNL1       -0.0259
     22 C         -25.8985   -0.0196   38.5960 C.2     1  UNL1       -0.0300
     23 C         -25.8135    1.3148   38.1021 C.3     1  UNL1        0.0304
@<TRIPOS>BOND
     1     1     2   ar
     2     2     3    1
     3     2     4   ar
     4     7    10    1
     5    10    11   am
     6    10    12    2
     7    11    13    1
     8    11    14    1
     9    13    15    1
    10    15    16    1
    11    15    17    1
    12    15    18    1
    13    14    19    2
    14    19    20    1
    15    20    21    1
    16    21    22    2
    17    22    23    1
    18     3     5   ar
    19     5     6   ar
    20     6     7   ar
    21     7     8   ar
    22     8     9   ar
    23     9     3   ar
