@<TRIPOS>MOLECULE
No_1900-gen_results/8p0m/2024-11-26-14-13-15/
 25 28 0 0 0
SMALL
GASTEIGER

@<TRIPOS>ATOM
      1 O         -28.1229   -1.3353   28.4874 O.2     1  UNL1       -0.2741
      2 C         -28.5208   -0.4363   29.0779 C.2     1  UNL1        0.2352
      3 C         -29.6977    0.0507   28.9764 C.3     1  UNL1        0.0998
      4 N         -27.7059   -0.0219   30.1625 N.am    1  UNL1       -0.2253
      5 C         -28.0553    1.0912   30.9931 C.2     1  UNL1        0.2316
      6 C         -30.5432   -0.2738   28.0099 C.ar    1  UNL1       -0.0138
      7 C         -29.3067    1.5611   30.7436 C.3     1  UNL1        0.0865
      8 C         -30.1155    1.1689   29.8195 C.3     1  UNL1        0.0231
      9 C         -31.6317   -1.1878   28.2391 C.ar    1  UNL1       -0.0038
     10 C         -32.4337   -1.6855   27.1664 C.ar    1  UNL1       -0.0003
     11 C         -32.1472   -1.2744   25.8383 C.ar    1  UNL1       -0.0000
     12 C         -31.0389   -0.4283   25.5707 C.ar    1  UNL1       -0.0003
     13 C         -30.1567    0.1100   26.6514 C.ar    1  UNL1       -0.0035
     14 C         -26.3402   -0.6321   30.3452 C.3     1  UNL1        0.1274
     15 C         -25.3949   -0.0829   30.1509 C.ar    1  UNL1       -0.0019
     16 C         -24.7370    0.0597   29.0057 C.ar    1  UNL1       -0.0026
     17 C         -23.6940    0.8244   28.7702 C.ar    1  UNL1       -0.0003
     18 C         -22.9843    1.3518   29.8761 C.ar    1  UNL1       -0.0000
     19 C         -23.6279    1.2211   31.1595 C.ar    1  UNL1       -0.0003
     20 C         -24.7707    0.4793   31.3086 C.ar    1  UNL1       -0.0026
     21 O         -27.2913    1.4907   31.8838 O.2     1  UNL1       -0.2745
     22 C         -30.7078   -0.0548   24.2110 C.ar    1  UNL1       -0.0000
     23 C         -29.3355   -0.0577   24.0626 C.ar    1  UNL1       -0.0000
     24 C         -28.4348   -0.5190   24.9569 C.ar    1  UNL1       -0.0000
     25 C         -28.7201    0.0605   26.3639 C.ar    1  UNL1       -0.0003
@<TRIPOS>BOND
     1     1     2    2
     2     2     3    1
     3     2     4   am
     4     4     5   am
     5     5     7    1
     6     3     8    1
     7     4    14    1
     8    14    15    1
     9     5    21    2
    10     3     6    1
    11     8     7    1
    12    15    16   ar
    13    16    17   ar
    14    17    18   ar
    15    18    19   ar
    16    19    20   ar
    17    20    15   ar
    18     6     9   ar
    19     9    10   ar
    20    10    11   ar
    21    11    12   ar
    22    13     6   ar
    23    12    13   ar
    24    13    25   ar
    25    25    24   ar
    26    24    23   ar
    27    23    22   ar
    28    22    12   ar
