@<TRIPOS>MOLECULE
No_1901-gen_results/8p0m/2024-11-26-14-13-15/
 13 14 0 0 0
SMALL
GASTEIGER

@<TRIPOS>ATOM
      1 C         -28.0162   -0.8135   28.8779 C.ar    1  UNL1       -0.0039
      2 C         -28.4690   -0.7850   29.8287 C.ar    1  UNL1       -0.0003
      3 C         -28.1960    0.3478   28.0550 C.ar    1  UNL1       -0.0178
      4 C         -29.0191    1.3501   28.3782 C.ar    1  UNL1       -0.0039
      5 C         -29.4107    0.1803   30.3782 C.ar    1  UNL1       -0.0000
      6 C         -29.6059    1.2495   29.6193 C.ar    1  UNL1       -0.0003
      7 C         -27.4597    0.3802   26.7091 C.3     1  UNL1        0.0526
      8 C         -26.0094    0.3317   26.7236 C.ar    1  UNL1       -0.0178
      9 C         -25.3055    0.0239   27.8527 C.ar    1  UNL1       -0.0039
     10 C         -23.8827    0.0654   27.8432 C.ar    1  UNL1       -0.0003
     11 C         -23.2551    0.9185   26.9388 C.ar    1  UNL1       -0.0000
     12 C         -23.9924    1.4842   25.8900 C.ar    1  UNL1       -0.0003
     13 C         -25.3744    1.2423   25.7880 C.ar    1  UNL1       -0.0039
@<TRIPOS>BOND
     1     3     7    1
     2     7     8    1
     3     8     9   ar
     4     9    10   ar
     5    10    11   ar
     6    11    12   ar
     7    12    13   ar
     8    13     8   ar
     9     1     2   ar
    10     2     5   ar
    11     5     6   ar
    12     6     4   ar
    13     4     3   ar
    14     3     1   ar
