@<TRIPOS>MOLECULE
No_1902-gen_results/8p0m/2024-11-26-14-13-15/
 26 27 0 0 0
SMALL
GASTEIGER

@<TRIPOS>ATOM
      1 C         -28.0162   -0.8135   28.8779 C.ar    1  UNL1        0.0019
      2 C         -27.0636   -0.1190   28.6079 C.ar    1  UNL1        0.0063
      3 C         -25.7923   -0.4302   29.0761 C.ar    1  UNL1        0.0007
      4 C         -24.5456    0.3494   28.8225 C.ar    1  UNL1        0.0066
      5 C         -24.6586    1.4196   27.8878 C.ar    1  UNL1        0.0803
      6 C         -25.9471    1.6811   27.3792 C.ar    1  UNL1        0.0133
      7 C         -27.0439    0.9739   27.6871 C.ar    1  UNL1        0.0348
      8 C         -28.0241   -1.6475   30.1263 C.ar    1  UNL1        0.0195
      9 C         -26.7278   -2.0846   30.5807 C.ar    1  UNL1        0.0014
     10 C         -25.5915   -1.4064   30.1489 C.ar    1  UNL1        0.0001
     11 C         -23.4486    2.1675   27.5241 C.2     1  UNL1        0.3878
     12 O         -23.5841    3.2600   27.0815 O.co2   1  UNL1       -0.2406
     13 O         -22.2517    1.6981   27.7826 O.co2   1  UNL1       -0.2406
     14 C         -29.1596   -2.4692   30.5342 C.2     1  UNL1        0.1280
     15 N         -29.1443   -3.6259   30.8931 N.2     1  UNL1       -0.2661
     16 C         -30.4502   -1.7822   30.5523 C.3     1  UNL1        0.3685
     17 O         -30.5847   -0.5666   30.2849 O.2     1  UNL1       -0.4419
     18 F         -31.4926   -2.5196   30.5664 F       1  UNL1       -0.1815
     19 BR        -28.6563    1.4726   26.8632 Br      1  UNL1       -0.0490
     20 C         -31.6040    0.2074   30.9596 C.2     1  UNL1        0.1796
     21 C         -31.6741    0.4568   31.9630 C.2     1  UNL1        0.1154
     22 C         -30.4807    0.2860   32.9216 C.3     1  UNL1        0.4216
     23 F         -29.3865    0.5184   32.5342 F       1  UNL1       -0.1657
     24 F         -30.5399    1.0901   34.0953 F       1  UNL1       -0.1657
     25 F         -30.5471   -1.0358   33.4276 F       1  UNL1       -0.1657
     26 C         -28.4654   -4.6293   30.2259 C.3     1  UNL1        0.1515
@<TRIPOS>BOND
     1     5    11    1
     2    11    12   ar
     3    11    13   ar
     4     8    14    1
     5    14    15    2
     6    14    16    1
     7    16    17    1
     8    16    18    1
     9     7    19    1
    10    17    20    1
    11    20    21    2
    12    21    22    1
    13    22    23    1
    14    22    24    1
    15    22    25    1
    16    15    26    1
    17     3     4   ar
    18     4     5   ar
    19     5     6   ar
    20     6     7   ar
    21     7     2   ar
    22     1     2   ar
    23     2     3   ar
    24     3    10   ar
    25    10     9   ar
    26     9     8   ar
    27     8     1   ar
