@<TRIPOS>MOLECULE
No_1903-gen_results/8p0m/2024-11-26-14-13-15/
 17 18 0 0 0
SMALL
GASTEIGER

@<TRIPOS>ATOM
      1 O         -28.1229   -1.3353   28.4874 O.2     1  UNL1       -0.2749
      2 C         -27.4806   -0.4044   28.7094 C.2     1  UNL1        0.2259
      3 C         -26.3804   -0.0867   27.9394 C.3     1  UNL1        0.0853
      4 N         -27.4232    0.1749   30.0549 N.am    1  UNL1       -0.2739
      5 C         -25.8482    1.0048   27.9942 C.3     1  UNL1        0.0113
      6 C         -25.8111    1.7414   29.2835 C.3     1  UNL1        0.0220
      7 C         -26.7479    1.3152   30.2318 C.3     1  UNL1        0.0938
      8 C         -28.3986   -0.2714   30.9950 C.3     1  UNL1        0.1392
      9 C         -27.9204   -0.8022   32.0506 C.ar    1  UNL1        0.0791
     10 N         -28.1215   -0.1995   33.1906 N.ar    1  UNL1       -0.2464
     11 C         -27.1688   -0.1999   34.2198 C.ar    1  UNL1        0.0985
     12 C         -25.8618   -0.5020   33.8808 C.ar    1  UNL1        0.0206
     13 C         -25.4375   -0.2238   32.6905 C.ar    1  UNL1        0.0025
     14 C         -24.0343   -0.4082   32.2078 C.2     1  UNL1       -0.0045
     15 C         -23.7829   -0.3241   30.8858 C.2     1  UNL1       -0.0258
     16 C         -26.5032   -1.4161   31.9037 C.ar    1  UNL1        0.0165
     17 C         -22.4324   -0.5034   30.4281 C.3     1  UNL1        0.0307
@<TRIPOS>BOND
     1     1     2    2
     2     2     3    1
     3     2     4   am
     4     3     5    1
     5     4     7    1
     6     6     7    1
     7     4     8    1
     8     8     9    1
     9    13    14    1
    10    14    15    2
    11    15    17    1
    12     5     6    1
    13     9    10   ar
    14    10    11   ar
    15    11    12   ar
    16    12    13   ar
    17    13    16   ar
    18    16     9   ar
