@<TRIPOS>MOLECULE
No_1904-gen_results/8p0m/2024-11-26-14-13-15/
 14 15 0 0 0
SMALL
GASTEIGER

@<TRIPOS>ATOM
      1 C         -28.0162   -0.8135   28.8779 C.ar    1  UNL1       -0.0017
      2 C         -28.4690   -0.7850   29.8287 C.ar    1  UNL1       -0.0002
      3 C         -26.5455   -0.8762   28.8500 C.ar    1  UNL1        0.0097
      4 C         -25.6825   -0.7773   27.6829 C.3     1  UNL1        0.0549
      5 C         -27.9181   -1.0034   31.1877 C.ar    1  UNL1        0.0023
      6 C         -26.5308   -1.0794   31.2463 C.ar    1  UNL1        0.0293
      7 C         -25.7798   -1.0462   30.0905 C.ar    1  UNL1        0.1365
      8 C         -25.2322    0.5793   27.3292 C.ar    1  UNL1       -0.0177
      9 C         -25.9027    1.5335   27.4253 C.ar    1  UNL1       -0.0039
     10 C         -25.3348    2.8671   27.0802 C.ar    1  UNL1       -0.0003
     11 C         -24.0033    2.9885   26.6466 C.ar    1  UNL1       -0.0000
     12 C         -23.2328    1.8380   26.6116 C.ar    1  UNL1       -0.0003
     13 C         -23.8065    0.5810   26.9916 C.ar    1  UNL1       -0.0039
     14 F         -24.5437   -0.9014   30.0620 F       1  UNL1       -0.2045
@<TRIPOS>BOND
     1     3     4    1
     2     4     8    1
     3     7    14    1
     4     8     9   ar
     5     9    10   ar
     6    10    11   ar
     7    11    12   ar
     8    12    13   ar
     9    13     8   ar
    10     1     2   ar
    11     2     5   ar
    12     5     6   ar
    13     6     7   ar
    14     7     3   ar
    15     3     1   ar
