@<TRIPOS>MOLECULE
No_1905-gen_results/8p0m/2024-11-26-14-13-15/
 21 22 0 0 0
SMALL
GASTEIGER

@<TRIPOS>ATOM
      1 C         -28.0162   -0.8135   28.8779 C.ar    1  UNL1        0.0046
      2 C         -27.0636   -0.1189   28.6079 C.ar    1  UNL1        0.0001
      3 C         -25.7647   -0.3897   29.0360 C.ar    1  UNL1        0.0000
      4 C         -25.5296   -1.5302   29.9014 C.ar    1  UNL1        0.0001
      5 C         -26.6577   -2.2915   30.2035 C.ar    1  UNL1        0.0046
      6 C         -27.8548   -1.9555   29.7630 C.ar    1  UNL1        0.0554
      7 C         -24.5441    0.4126   28.7379 C.ar    1  UNL1        0.0000
      8 C         -24.0952    1.3785   29.5751 C.ar    1  UNL1        0.0000
      9 C         -22.9715    2.1448   29.2493 C.ar    1  UNL1        0.0000
     10 C         -22.2339    1.9126   28.0417 C.ar    1  UNL1        0.0000
     11 C         -23.7826    0.2867   27.5524 C.ar    1  UNL1        0.0000
     12 C         -22.6965    1.0118   27.2313 C.ar    1  UNL1        0.0000
     13 C         -29.0078   -2.8045   30.1871 C.2     1  UNL1        0.2690
     14 O         -28.9189   -4.0305   30.2619 O.2     1  UNL1       -0.2680
     15 N         -29.9667   -2.2135   30.9176 N.am    1  UNL1       -0.1741
     16 C         -30.1949   -0.8138   31.0838 C.2     1  UNL1        0.0889
     17 C         -31.3435   -0.5369   31.7424 C.2     1  UNL1        0.0179
     18 C         -31.6499    0.7373   32.0337 C.2     1  UNL1        0.0014
     19 C         -32.8279    1.1450   32.7440 C.2     1  UNL1        0.0000
     20 C         -33.6599    0.0520   33.0834 C.2     1  UNL1        0.0000
     21 C         -33.3765   -1.2161   32.7861 C.2     1  UNL1        0.0000
@<TRIPOS>BOND
     1     3     7    1
     2     6    13    1
     3    13    14    2
     4    13    15   am
     5    15    16    1
     6    16    17    2
     7    17    18    1
     8    18    19    2
     9    19    20    1
    10    20    21    2
    11     7     8   ar
    12     8     9   ar
    13     9    10   ar
    14    10    12   ar
    15    12    11   ar
    16    11     7   ar
    17     1     2   ar
    18     2     3   ar
    19     3     4   ar
    20     4     5   ar
    21     5     6   ar
    22     6     1   ar
