@<TRIPOS>MOLECULE
No_1907-gen_results/8p0m/2024-11-26-14-13-15/
 11 11 0 0 0
SMALL
GASTEIGER

@<TRIPOS>ATOM
      1 C         -28.0162   -0.8135   28.8779 C.3     1  UNL1        0.1649
      2 C         -27.0636   -0.1190   28.6079 C.ar    1  UNL1        0.0030
      3 C         -27.0010    0.6913   27.4910 C.ar    1  UNL1       -0.0014
      4 C         -25.8548    1.4825   27.0830 C.ar    1  UNL1        0.0111
      5 C         -24.6901    1.4526   27.8807 C.ar    1  UNL1        0.0577
      6 C         -24.7379    0.6010   29.0416 C.ar    1  UNL1        0.0111
      7 C         -25.8234   -0.1688   29.3887 C.ar    1  UNL1       -0.0014
      8 N         -27.9613   -1.6072   30.0877 N.2     1  UNL1       -0.1881
      9 CL        -23.3305    2.3485   27.5233 Cl      1  UNL1       -0.0822
     10 C         -29.0429   -2.2956   30.5655 C.1     1  UNL1        0.2356
     11 O         -28.8618   -3.1126   31.5150 O.2     1  UNL1       -0.2102
@<TRIPOS>BOND
     1     1     2    1
     2     1     8    1
     3     5     9    1
     4     8    10    2
     5    10    11    2
     6     2     3   ar
     7     3     4   ar
     8     4     5   ar
     9     5     6   ar
    10     6     7   ar
    11     7     2   ar
