@<TRIPOS>MOLECULE
No_1908-gen_results/8p0m/2024-11-26-14-13-15/
 15 16 0 0 0
SMALL
GASTEIGER

@<TRIPOS>ATOM
      1 C         -28.0162   -0.8135   28.8779 C.ar    1  UNL1       -0.0036
      2 C         -28.4690   -0.7850   29.8287 C.ar    1  UNL1       -0.0003
      3 C         -28.1816    0.4277   28.1134 C.ar    1  UNL1       -0.0127
      4 C         -28.9841    1.4155   28.5154 C.ar    1  UNL1       -0.0036
      5 C         -29.3802    0.1384   30.4612 C.ar    1  UNL1       -0.0000
      6 C         -29.5415    1.2736   29.7242 C.ar    1  UNL1       -0.0003
      7 C         -27.4586    0.4934   26.7701 C.3     1  UNL1        0.0877
      8 C         -26.0264    0.3840   26.7617 C.ar    1  UNL1       -0.0127
      9 C         -25.3680    0.5743   25.5142 C.ar    1  UNL1       -0.0036
     10 C         -25.2446    0.0154   27.8765 C.ar    1  UNL1       -0.0036
     11 C         -23.8432    0.1341   27.8106 C.ar    1  UNL1       -0.0003
     12 C         -23.9328    0.7455   25.4847 C.ar    1  UNL1       -0.0003
     13 C         -23.2198    0.5504   26.6201 C.ar    1  UNL1       -0.0000
     14 C         -28.2349    0.5856   25.6273 C.2     1  UNL1        0.1041
     15 N         -28.4426    1.8252   25.3408 N.2     1  UNL1       -0.1507
@<TRIPOS>BOND
     1     3     7    1
     2     7    14    1
     3    14    15    2
     4     7     8    1
     5     8     9   ar
     6     9    12   ar
     7    12    13   ar
     8    13    11   ar
     9    11    10   ar
    10    10     8   ar
    11     1     2   ar
    12     2     5   ar
    13     5     6   ar
    14     6     4   ar
    15     4     3   ar
    16     3     1   ar
