@<TRIPOS>MOLECULE
No_191-gen_results/8p0m/2024-11-26-14-13-15/
 22 24 0 0 0
SMALL
GASTEIGER

@<TRIPOS>ATOM
      1 C         -28.0162   -0.8135   28.8779 C.ar    1  UNL1        0.0372
      2 C         -28.4690   -0.7850   29.8287 C.ar    1  UNL1        0.0031
      3 C         -28.1960    0.3478   28.0550 C.ar    1  UNL1        0.1413
      4 C         -29.0191    1.3501   28.3782 C.ar    1  UNL1        0.0127
      5 C         -29.4595    1.3436   29.2945 C.ar    1  UNL1       -0.0012
      6 C         -29.3580    0.3029   30.2952 C.ar    1  UNL1       -0.0001
      7 O         -27.4523    0.2475   26.7992 O.3     1  UNL1       -0.4538
      8 C         -26.0922    0.3530   26.7874 C.ar    1  UNL1        0.1454
      9 C         -25.5071    1.2499   25.9071 C.ar    1  UNL1        0.0390
     10 C         -24.0733    1.4268   25.9982 C.ar    1  UNL1        0.0223
     11 C         -23.3253    0.9703   27.0873 C.ar    1  UNL1        0.0848
     12 C         -24.0056    0.1834   28.0304 C.ar    1  UNL1        0.0430
     13 C         -25.3495   -0.1153   27.9361 C.ar    1  UNL1        0.0406
     14 N         -22.0507    1.3494   27.3085 N.ar    1  UNL1       -0.2239
     15 C         -21.3335    0.8012   28.3627 C.ar    1  UNL1        0.1990
     16 N         -21.9061    0.0321   29.2795 N.ar    1  UNL1       -0.2193
     17 C         -23.2169   -0.2951   29.1901 C.ar    1  UNL1        0.1394
     18 C         -29.0967    2.4350   27.3044 C.3     1  UNL1        0.0342
     19 C         -23.7304   -1.2257   30.2019 C.2     1  UNL1        0.2827
     20 O         -23.8388   -2.4031   30.0101 O.2     1  UNL1       -0.2667
     21 N         -24.0120   -0.6707   31.4557 N.am    1  UNL1       -0.1985
     22 C         -24.8030   -1.3925   32.4481 C.3     1  UNL1        0.1389
@<TRIPOS>BOND
     1     3     7    1
     2     7     8    1
     3     4    18    1
     4    17    19    1
     5    19    20    2
     6    19    21   am
     7    21    22    1
     8     1     2   ar
     9     2     6   ar
    10     6     5   ar
    11     5     4   ar
    12     4     3   ar
    13     3     1   ar
    14     8     9   ar
    15     9    10   ar
    16    10    11   ar
    17    12    13   ar
    18    13     8   ar
    19    11    12   ar
    20    12    17   ar
    21    17    16   ar
    22    16    15   ar
    23    15    14   ar
    24    14    11   ar
