@<TRIPOS>MOLECULE
No_1911-gen_results/8p0m/2024-11-26-14-13-15/
 10 9 0 0 0
SMALL
GASTEIGER

@<TRIPOS>ATOM
      1 CL        -28.1493   -0.8198   28.9079 Cl      1  UNL1       -0.1086
      2 C         -27.8339    0.4961   29.0598 C.3     1  UNL1        0.1206
      3 C         -27.5135    1.2383   28.0485 C.2     1  UNL1       -0.0117
      4 C         -26.8806    2.5191   28.1751 C.2     1  UNL1       -0.0092
      5 C         -26.7030    3.0526   29.4791 C.3     1  UNL1        0.1235
      6 C         -26.0889    4.3116   29.7526 C.2     1  UNL1       -0.0059
      7 C         -25.6059    5.0033   28.6416 C.2     1  UNL1       -0.0030
      8 C         -25.7145    4.5213   27.3244 C.2     1  UNL1       -0.0003
      9 C         -26.3469    3.2861   27.1232 C.2     1  UNL1       -0.0000
     10 CL        -26.9524    2.7618   29.1541 Cl      1  UNL1       -0.1054
@<TRIPOS>BOND
     1     1     2    1
     2     2     3    1
     3     3     4    2
     4     4     5    1
     5     5     6    1
     6     6     7    2
     7     7     8    1
     8     8     9    2
     9     5    10    1
