@<TRIPOS>MOLECULE
No_1912-gen_results/8p0m/2024-11-26-14-13-15/
 16 17 0 0 0
SMALL
GASTEIGER

@<TRIPOS>ATOM
      1 C         -28.0162   -0.8135   28.8779 C.ar    1  UNL1        0.0002
      2 C         -27.0636   -0.1189   28.6079 C.ar    1  UNL1        0.0000
      3 C         -27.0010    0.6913   27.4910 C.ar    1  UNL1        0.0002
      4 C         -28.1373    0.7363   26.6350 C.ar    1  UNL1        0.0066
      5 C         -29.2360    0.0765   27.0690 C.ar    1  UNL1        0.0798
      6 C         -29.2177   -0.6429   28.1747 C.ar    1  UNL1        0.0066
      7 C         -30.4152    0.1590   26.1820 C.2     1  UNL1        0.3878
      8 O         -30.3887    0.0527   24.9904 O.co2   1  UNL1       -0.2406
      9 O         -31.6057    0.1379   26.7588 O.co2   1  UNL1       -0.2406
     10 C         -25.7070   -0.2005   29.4186 C.ar    1  UNL1        0.0008
     11 C         -25.4880   -0.8309   30.2090 C.ar    1  UNL1        0.0001
     12 C         -24.1918   -0.8980   30.9940 C.ar    1  UNL1        0.0009
     13 C         -23.1640   -0.0714   30.5458 C.ar    1  UNL1        0.0114
     14 C         -23.4261    0.7551   29.4447 C.ar    1  UNL1        0.0577
     15 C         -24.7034    0.7470   28.7921 C.ar    1  UNL1        0.0114
     16 CL        -22.0184    1.5378   28.8571 Cl      1  UNL1       -0.0822
@<TRIPOS>BOND
     1     5     7    1
     2     7     8   ar
     3     7     9   ar
     4     2    10    1
     5    14    16    1
     6     1     2   ar
     7     2     3   ar
     8     3     4   ar
     9     4     5   ar
    10     5     6   ar
    11     6     1   ar
    12    10    11   ar
    13    11    12   ar
    14    12    13   ar
    15    13    14   ar
    16    14    15   ar
    17    15    10   ar
