@<TRIPOS>MOLECULE
No_1913-gen_results/8p0m/2024-11-26-14-13-15/
 24 27 0 0 0
SMALL
GASTEIGER

@<TRIPOS>ATOM
      1 C         -28.0162   -0.8135   28.8779 C.ar    1  UNL1        0.0366
      2 C         -27.0636   -0.1189   28.6079 C.ar    1  UNL1       -0.0008
      3 C         -25.7647   -0.3897   29.0360 C.ar    1  UNL1       -0.0168
      4 C         -25.5296   -1.5302   29.9014 C.ar    1  UNL1       -0.0008
      5 C         -26.6577   -2.2915   30.2035 C.ar    1  UNL1        0.0366
      6 C         -27.8548   -1.9555   29.7630 C.ar    1  UNL1        0.1390
      7 C         -24.5349    0.4128   28.7431 C.3     1  UNL1        0.0631
      8 C         -24.4835    1.2431   27.7398 C.ar    1  UNL1       -0.0020
      9 C         -25.0977    1.6893   26.9916 C.ar    1  UNL1       -0.0011
     10 C         -24.7336    2.5972   25.9227 C.ar    1  UNL1        0.0203
     11 C         -23.3807    2.8917   25.8163 C.ar    1  UNL1        0.0985
     12 C         -22.9354    1.7161   27.6160 C.ar    1  UNL1        0.0729
     13 N         -22.5718    2.5014   26.6712 N.ar    1  UNL1       -0.2470
     14 C         -23.4482    0.2828   29.7656 C.3     1  UNL1        0.0979
     15 C         -21.9784    1.2750   28.6421 C.3     1  UNL1        0.1338
     16 N         -22.2181    0.5992   29.5759 N.3     1  UNL1       -0.2110
     17 O         -28.8076   -2.8486   30.1699 O.3     1  UNL1       -0.4706
     18 C         -30.0098   -2.4243   30.4804 C.3     1  UNL1        0.2320
     19 C         -30.9372   -3.4223   30.2515 C.ar    1  UNL1        0.0212
     20 C         -32.2827   -3.0435   30.0543 C.ar    1  UNL1       -0.0007
     21 C         -33.1562   -3.8667   29.5369 C.ar    1  UNL1       -0.0002
     22 C         -30.7799   -4.7991   30.0748 C.ar    1  UNL1       -0.0007
     23 C         -31.6430   -5.7057   29.6488 C.ar    1  UNL1       -0.0002
     24 C         -32.9076   -5.2553   29.3786 C.ar    1  UNL1       -0.0000
@<TRIPOS>BOND
     1     3     7    1
     2     7     8    1
     3     7    14    1
     4    12    15    1
     5    14    16    1
     6    15    16    1
     7     6    17    1
     8    17    18    1
     9    18    19    1
    10     1     2   ar
    11     2     3   ar
    12     3     4   ar
    13     4     5   ar
    14     5     6   ar
    15     6     1   ar
    16    19    20   ar
    17    20    21   ar
    18    21    24   ar
    19    24    23   ar
    20    23    22   ar
    21    22    19   ar
    22     8     9   ar
    23     9    10   ar
    24    10    11   ar
    25    11    13   ar
    26    13    12   ar
    27    12     8   ar
