@<TRIPOS>MOLECULE
No_1914-gen_results/8p0m/2024-11-26-14-13-15/
 21 22 0 0 0
SMALL
GASTEIGER

@<TRIPOS>ATOM
      1 C         -28.0162   -0.8135   28.8779 C.2     1  UNL1        0.2540
      2 C         -27.0636   -0.1189   28.6079 C.ar    1  UNL1        0.0504
      3 C         -25.7923   -0.4302   29.0761 C.ar    1  UNL1        0.0044
      4 C         -24.5456    0.3494   28.8225 C.ar    1  UNL1        0.0047
      5 C         -24.6586    1.4196   27.8878 C.ar    1  UNL1        0.0564
      6 C         -25.9471    1.6811   27.3792 C.ar    1  UNL1        0.0009
      7 C         -27.0439    0.9739   27.6871 C.ar    1  UNL1       -0.0119
      8 N         -29.1797   -0.1202   29.1288 N.am    1  UNL1       -0.2300
      9 C         -30.2095   -0.7652   29.7428 C.3     1  UNL1        0.2843
     10 C         -23.4456    2.1545   27.6087 C.2     1  UNL1        0.2842
     11 N         -23.4715    3.1325   26.8088 N.am    1  UNL1       -0.0837
     12 O         -22.2374    1.6285   27.7680 O.2     1  UNL1       -0.2667
     13 O         -27.9670   -1.9328   29.1700 O.2     1  UNL1       -0.2695
     14 C         -29.4217    1.2430   28.8038 C.2     1  UNL1        0.0382
     15 C         -30.1805    1.9776   29.1893 C.2     1  UNL1        0.0109
     16 C         -28.2433    1.7907   27.9446 C.3     1  UNL1        0.0679
     17 C         -30.1168    3.3818   29.1263 C.2     1  UNL1        0.0010
     18 C         -30.9925    4.2631   29.7096 C.2     1  UNL1        0.0000
     19 O         -31.3911   -0.4394   29.4401 O.3     1  UNL1       -0.1955
     20 C         -32.1240    3.6574   30.3048 C.2     1  UNL1        0.0000
     21 C         -32.2932    2.3343   30.4095 C.2     1  UNL1        0.0000
@<TRIPOS>BOND
     1     1     2    1
     2     1     8   am
     3     8     9    1
     4     5    10    1
     5    10    11   am
     6    10    12    2
     7     1    13    2
     8     8    14    1
     9    14    15    2
    10     7    16    1
    11    14    16    1
    12    15    17    1
    13    17    18    2
    14     9    19    1
    15    18    20    1
    16    20    21    2
    17     2     3   ar
    18     3     4   ar
    19     4     5   ar
    20     5     6   ar
    21     6     7   ar
    22     7     2   ar
