@<TRIPOS>MOLECULE
No_1915-gen_results/8p0m/2024-11-26-14-13-15/
 26 29 0 0 0
SMALL
GASTEIGER

@<TRIPOS>ATOM
      1 C         -28.0162   -0.8135   28.8779 C.ar    1  UNL1        0.0020
      2 C         -28.4690   -0.7850   29.8287 C.ar    1  UNL1        0.0794
      3 C         -26.5042   -0.7777   28.8766 C.ar    1  UNL1       -0.0253
      4 C         -25.8103   -0.8531   30.1028 C.ar    1  UNL1       -0.0217
      5 C         -27.9906   -0.8916   31.2257 C.ar    1  UNL1        0.0062
      6 C         -26.6042   -0.8676   31.2652 C.ar    1  UNL1       -0.0040
      7 C         -24.3894   -0.8049   30.1638 C.3     1  UNL1        0.0523
      8 C         -23.8172    0.4762   29.9118 C.ar    1  UNL1       -0.0177
      9 C         -23.2476    0.8215   28.7226 C.ar    1  UNL1       -0.0043
     10 C         -23.5684    2.0468   28.0656 C.ar    1  UNL1       -0.0044
     11 C         -24.4547    2.8934   28.7205 C.ar    1  UNL1       -0.0162
     12 C         -24.9593    2.6594   29.9813 C.ar    1  UNL1        0.0494
     13 C         -24.6687    1.4789   30.6634 C.ar    1  UNL1        0.0003
     14 C         -25.8573   -0.6170   27.6067 C.3     1  UNL1        0.0307
     15 C         -25.8400    3.6410   30.6164 C.2     1  UNL1        0.2487
     16 N         -26.0672    4.6085   30.3732 N.am    1  UNL1       -0.2774
     17 O         -26.5107    3.0776   31.6292 O.2     1  UNL1       -0.2699
     18 C         -27.0294    5.6195   31.0332 C.3     1  UNL1        0.0937
     19 C         -30.1000   -0.8234   29.8368 C.2     1  UNL1        0.3877
     20 O         -30.5612   -0.3952   28.8809 O.co2   1  UNL1       -0.2406
     21 O         -30.7526   -1.2870   30.8218 O.co2   1  UNL1       -0.2406
     22 C         -27.6977    6.2933   30.2630 C.3     1  UNL1        0.0216
     23 C         -27.2210    6.6371   29.1267 C.3     1  UNL1        0.0035
     24 C         -26.1400    5.9356   28.4538 C.3     1  UNL1        0.0202
     25 C         -25.6946    4.9973   29.0537 C.3     1  UNL1        0.0800
     26 C         -24.8228    4.0083   28.3689 C.3     1  UNL1        0.0463
@<TRIPOS>BOND
     1     4     7    1
     2     7     8    1
     3     3    14    1
     4    12    15    1
     5    15    16   am
     6    15    17    2
     7    16    18    1
     8     2    19    1
     9    19    20   ar
    10    19    21   ar
    11    18    22    1
    12    23    24    1
    13    16    25    1
    14    24    25    1
    15    11    26    1
    16    25    26    1
    17    22    23    1
    18     8     9   ar
    19     9    10   ar
    20    10    11   ar
    21    11    12   ar
    22    12    13   ar
    23    13     8   ar
    24     1     2   ar
    25     2     5   ar
    26     5     6   ar
    27     6     4   ar
    28     4     3   ar
    29     3     1   ar
