@<TRIPOS>MOLECULE
No_1916-gen_results/8p0m/2024-11-26-14-13-15/
 12 12 0 0 0
SMALL
GASTEIGER

@<TRIPOS>ATOM
      1 C         -28.0162   -0.8135   28.8779 C.ar    1  UNL1       -0.0040
      2 C         -28.4690   -0.7850   29.8287 C.ar    1  UNL1       -0.0003
      3 C         -28.1960    0.3478   28.0550 C.ar    1  UNL1       -0.0184
      4 C         -27.4421    0.5100   26.7946 C.3     1  UNL1        0.0443
      5 C         -27.8427    1.3330   25.8056 C.3     1  UNL1        0.0094
      6 C         -29.4956    0.1092   30.3452 C.ar    1  UNL1       -0.0000
      7 C         -29.7284    1.1870   29.5687 C.ar    1  UNL1       -0.0003
      8 C         -29.0420    1.3665   28.3718 C.ar    1  UNL1       -0.0040
      9 C         -26.1281   -0.0671   26.6257 C.2     1  UNL1       -0.0221
     10 C         -25.0056    0.6927   27.1660 C.2     1  UNL1       -0.0043
     11 C         -24.5478    1.7736   26.5186 C.2     1  UNL1       -0.0003
     12 C         -23.3205    2.4512   26.9380 C.2     1  UNL1       -0.0000
@<TRIPOS>BOND
     1     3     4    1
     2     4     5    1
     3     4     9    1
     4     9    10    2
     5    10    11    1
     6    11    12    2
     7     1     2   ar
     8     2     6   ar
     9     6     7   ar
    10     7     8   ar
    11     8     3   ar
    12     3     1   ar
