@<TRIPOS>MOLECULE
No_1917-gen_results/8p0m/2024-11-26-14-13-15/
 14 15 0 0 0
SMALL
GASTEIGER

@<TRIPOS>ATOM
      1 C         -28.0162   -0.8135   28.8779 C.ar    1  UNL1       -0.0039
      2 C         -27.0636   -0.1190   28.6079 C.ar    1  UNL1       -0.0181
      3 C         -26.9287    1.1713   29.0083 C.ar    1  UNL1       -0.0039
      4 C         -27.9560    1.7411   29.7840 C.ar    1  UNL1       -0.0003
      5 C         -29.0569   -0.3271   29.7466 C.ar    1  UNL1       -0.0003
      6 C         -28.9828    0.9722   30.1516 C.ar    1  UNL1       -0.0000
      7 C         -25.8907   -0.6263   27.7857 C.3     1  UNL1        0.0487
      8 C         -24.7183   -1.0610   28.6129 C.2     1  UNL1       -0.0334
      9 C         -24.6426   -2.2493   29.0885 C.2     1  UNL1       -0.0081
     10 C         -23.5080   -2.6349   29.8098 C.2     1  UNL1       -0.0048
     11 C         -22.5950   -1.6326   30.0734 C.2     1  UNL1       -0.0196
     12 C         -23.6005   -0.2616   29.0496 C.3     1  UNL1        0.0760
     13 C         -22.4447   -0.2883   29.6805 C.3     1  UNL1        0.2015
     14 F         -21.5844    0.4408   29.8930 F       1  UNL1       -0.2336
@<TRIPOS>BOND
     1     2     7    1
     2     7     8    1
     3     8     9    2
     4     9    10    1
     5    10    11    2
     6     8    12    1
     7    11    12    1
     8    12    13    1
     9    13    14    1
    10     1     2   ar
    11     2     3   ar
    12     3     4   ar
    13     4     6   ar
    14     6     5   ar
    15     5     1   ar
