@<TRIPOS>MOLECULE
No_1918-gen_results/8p0m/2024-11-26-14-13-15/
 13 13 0 0 0
SMALL
GASTEIGER

@<TRIPOS>ATOM
      1 C         -28.0162   -0.8135   28.8779 C.2     1  UNL1       -0.0484
      2 C         -28.4690   -0.7850   29.8287 C.2     1  UNL1       -0.0319
      3 C         -28.1960    0.3478   28.0550 C.3     1  UNL1        0.0217
      4 C         -27.4421    0.5100   26.7946 C.3     1  UNL1        0.0040
      5 C         -26.1689   -0.0794   26.6787 C.3     1  UNL1        0.0007
      6 C         -25.7312   -0.9607   27.6875 C.3     1  UNL1        0.0043
      7 C         -26.5043   -1.2222   28.7582 C.3     1  UNL1        0.0217
      8 C         -28.4210   -2.0451   30.7337 C.3     1  UNL1        0.0609
      9 C         -28.6416   -3.0482   30.3342 C.3     1  UNL1        0.1867
     10 O         -29.6598   -3.6706   30.7091 O.3     1  UNL1       -0.2200
     11 C         -27.8246    1.4222   25.7258 C.3     1  UNL1        0.0003
     12 C         -27.5730    2.6839   25.9747 C.3     1  UNL1        0.0000
     13 C         -29.2971    1.3171   25.4045 C.3     1  UNL1        0.0000
@<TRIPOS>BOND
     1     1     2    2
     2     1     3    1
     3     3     4    1
     4     4     5    1
     5     5     6    1
     6     1     7    1
     7     6     7    1
     8     2     8    1
     9     8     9    1
    10     9    10    1
    11     4    11    1
    12    11    12    1
    13    11    13    1
