@<TRIPOS>MOLECULE
No_192-gen_results/8p0m/2024-11-26-14-13-15/
 17 19 0 0 0
SMALL
GASTEIGER

@<TRIPOS>ATOM
      1 C         -28.0162   -0.8135   28.8779 C.ar    1  UNL1       -0.0003
      2 C         -28.4690   -0.7850   29.8287 C.ar    1  UNL1       -0.0000
      3 C         -28.1960    0.3478   28.0550 C.ar    1  UNL1       -0.0036
      4 C         -27.4421    0.5100   26.7946 C.ar    1  UNL1       -0.0178
      5 C         -27.8427    1.3330   25.8056 C.ar    1  UNL1       -0.0039
      6 C         -29.4956    0.1092   30.3452 C.ar    1  UNL1       -0.0000
      7 C         -29.7284    1.1870   29.5687 C.ar    1  UNL1       -0.0000
      8 C         -29.0420    1.3665   28.3718 C.ar    1  UNL1       -0.0003
      9 C         -26.1281   -0.0671   26.6257 C.3     1  UNL1        0.0526
     10 C         -25.0055    0.6927   27.1660 C.ar    1  UNL1       -0.0178
     11 C         -24.7233    1.0525   28.3282 C.ar    1  UNL1       -0.0039
     12 C         -23.8451    1.1524   28.8863 C.ar    1  UNL1       -0.0003
     13 C         -22.5397    1.4201   28.1339 C.ar    1  UNL1       -0.0000
     14 C         -22.6674    1.4635   26.7676 C.ar    1  UNL1       -0.0003
     15 C         -23.8969    0.9080   26.2169 C.ar    1  UNL1       -0.0039
     16 C         -29.2817    2.4158   27.5084 C.ar    1  UNL1       -0.0000
     17 C         -28.6500    2.4727   26.2306 C.ar    1  UNL1       -0.0003
@<TRIPOS>BOND
     1     4     9    1
     2     9    10    1
     3     3     4   ar
     4     4     5   ar
     5     5    17   ar
     6    17    16   ar
     7    16     8   ar
     8    10    11   ar
     9    11    12   ar
    10    12    13   ar
    11    13    14   ar
    12    14    15   ar
    13    15    10   ar
    14     1     2   ar
    15     2     6   ar
    16     6     7   ar
    17     7     8   ar
    18     8     3   ar
    19     3     1   ar
