@<TRIPOS>MOLECULE
No_1920-gen_results/8p0m/2024-11-26-14-13-15/
 35 38 0 0 0
SMALL
GASTEIGER

@<TRIPOS>ATOM
      1 C         -28.0162   -0.8135   28.8779 C.ar    1  UNL1        0.1463
      2 C         -27.0636   -0.1189   28.6079 C.ar    1  UNL1        0.0299
      3 C         -25.7923   -0.4302   29.0761 C.ar    1  UNL1        0.0038
      4 C         -24.5456    0.3494   28.8225 C.ar    1  UNL1        0.0215
      5 C         -23.2409    0.0217   29.3323 C.ar    1  UNL1        0.0017
      6 C         -27.8820   -1.8995   29.8633 C.ar    1  UNL1        0.1030
      7 C         -26.6526   -2.3142   30.3138 C.ar    1  UNL1        0.0087
      8 C         -25.5153   -1.5607   29.9787 C.ar    1  UNL1        0.0004
      9 C         -22.1645    0.7936   28.9524 C.ar    1  UNL1        0.0032
     10 C         -22.1241    1.7484   27.9889 C.ar    1  UNL1        0.0391
     11 C         -24.5235    1.3782   27.7946 C.ar    1  UNL1        0.1248
     12 C         -23.3387    2.0417   27.4305 C.ar    1  UNL1        0.1646
     13 C         -29.0437   -2.7312   30.2971 C.2     1  UNL1        0.3439
     14 O         -29.3725   -2.6293   31.3928 O.2     1  UNL1       -0.2448
     15 O         -29.6553   -3.3908   29.5014 O.3     1  UNL1       -0.4330
     16 O         -23.4438    2.9927   26.4699 O.3     1  UNL1       -0.4391
     17 C         -24.2582    2.5479   25.4005 C.2     1  UNL1        0.2407
     18 C         -25.3202    1.6729   25.7215 C.1     1  UNL1        0.0389
     19 N         -25.2402    1.0588   26.5955 N.2     1  UNL1       -0.1971
     20 F         -29.2398   -0.5562   28.5166 F       1  UNL1       -0.2040
     21 C         -30.2864   -4.5858   29.9103 C.3     1  UNL1        0.3171
     22 C         -31.6911   -4.6072   29.6927 C.2     1  UNL1        0.3637
     23 O         -32.2913   -5.5660   29.7504 O.2     1  UNL1       -0.2459
     24 O         -32.2840   -3.5098   29.3786 O.3     1  UNL1       -0.4214
     25 C         -33.3769   -3.3446   28.5810 C.3     1  UNL1        0.3435
     26 C         -33.3936   -1.9561   28.0283 C.3     1  UNL1        0.4540
     27 F         -33.6601   -1.9291   26.8667 F       1  UNL1       -0.1650
     28 F         -32.1651   -1.3323   28.1574 F       1  UNL1       -0.1650
     29 F         -34.2636   -1.2065   28.7089 F       1  UNL1       -0.1650
     30 N         -33.3429   -4.2658   27.5460 N.pl3   1  UNL1       -0.2648
     31 C         -33.9913   -4.9422   27.0394 C.2     1  UNL1        0.0621
     32 C         -33.5980   -5.7676   25.8999 C.2     1  UNL1        0.0237
     33 C         -31.9343   -4.3354   26.8576 C.3     1  UNL1        0.1317
     34 C         -32.1886   -5.3441   25.8739 C.3     1  UNL1        0.1950
     35 O         -31.3974   -6.4985   26.2549 O.3     1  UNL1       -0.2164
@<TRIPOS>BOND
     1     3     4    1
     2     6    13    1
     3    13    14    2
     4    13    15    1
     5    12    16    1
     6    16    17    1
     7    17    18    2
     8    11    19    1
     9    18    19    2
    10     1    20    1
    11    15    21    1
    12    21    22    1
    13    22    23    2
    14    22    24    1
    15    24    25    1
    16    25    26    1
    17    26    27    1
    18    26    28    1
    19    26    29    1
    20    25    30    1
    21    30    31    1
    22    31    32    2
    23    30    33    1
    24    32    34    1
    25    33    34    1
    26    34    35    1
    27     1     2   ar
    28     2     3   ar
    29     3     8   ar
    30     8     7   ar
    31     7     6   ar
    32     6     1   ar
    33     4     5   ar
    34     5     9   ar
    35     9    10   ar
    36    10    12   ar
    37    12    11   ar
    38    11     4   ar
