@<TRIPOS>MOLECULE
No_1921-gen_results/8p0m/2024-11-26-14-13-15/
 17 18 0 0 0
SMALL
GASTEIGER

@<TRIPOS>ATOM
      1 C         -28.0162   -0.8135   28.8779 C.ar    1  UNL1       -0.0063
      2 C         -28.4690   -0.7850   29.8287 C.ar    1  UNL1        0.0017
      3 C         -26.5042   -0.7777   28.8766 C.ar    1  UNL1       -0.0180
      4 C         -25.6540   -0.6597   27.7191 C.3     1  UNL1        0.0526
      5 C         -27.9180   -0.9374   31.1824 C.ar    1  UNL1       -0.0024
      6 C         -26.5423   -0.9399   31.2606 C.ar    1  UNL1       -0.0006
      7 C         -25.7832   -0.8935   30.1201 C.ar    1  UNL1       -0.0040
      8 C         -25.2204    0.6866   27.3939 C.ar    1  UNL1       -0.0178
      9 C         -24.5771    0.9243   26.1770 C.ar    1  UNL1       -0.0039
     10 C         -23.9849    2.2487   25.9655 C.ar    1  UNL1       -0.0003
     11 C         -24.0070    3.1788   26.9561 C.ar    1  UNL1       -0.0000
     12 C         -25.2651    1.6845   28.3860 C.ar    1  UNL1       -0.0039
     13 C         -24.5892    2.9513   28.1038 C.ar    1  UNL1       -0.0003
     14 C         -30.0578   -0.8220   29.8582 C.3     1  UNL1        0.1515
     15 N         -30.5781   -0.0636   28.9624 N.2     1  UNL1       -0.2687
     16 C         -31.5101    0.5742   28.9462 C.2     1  UNL1        0.0675
     17 C         -31.9780    1.3367   27.7367 C.3     1  UNL1        0.0529
@<TRIPOS>BOND
     1     3     4    1
     2     2    14    1
     3    14    15    1
     4    15    16    2
     5    16    17    1
     6     4     8    1
     7     1     2   ar
     8     2     5   ar
     9     5     6   ar
    10     6     7   ar
    11     7     3   ar
    12     3     1   ar
    13     8     9   ar
    14     9    10   ar
    15    10    11   ar
    16    11    13   ar
    17    13    12   ar
    18    12     8   ar
