@<TRIPOS>MOLECULE
No_1922-gen_results/8p0m/2024-11-26-14-13-15/
 32 34 0 0 0
SMALL
GASTEIGER

@<TRIPOS>ATOM
      1 C         -28.0162   -0.8135   28.8779 C.2     1  UNL1        0.2690
      2 C         -27.0636   -0.1189   28.6079 C.ar    1  UNL1        0.0551
      3 C         -27.0010    0.6913   27.4910 C.ar    1  UNL1        0.0047
      4 C         -25.8548    1.4825   27.0830 C.ar    1  UNL1        0.0045
      5 C         -24.6901    1.4526   27.8807 C.ar    1  UNL1        0.0530
      6 C         -24.7379    0.6010   29.0416 C.ar    1  UNL1       -0.0091
      7 C         -25.8234   -0.1688   29.3887 C.ar    1  UNL1        0.0007
      8 N         -27.9613   -1.6072   30.0877 N.am    1  UNL1       -0.1754
      9 C         -23.7061    2.3845   27.5445 C.2     1  UNL1        0.2839
     10 N         -22.7151    2.2273   27.2173 N.am    1  UNL1       -0.0837
     11 O         -24.1369    3.6773   27.4482 O.2     1  UNL1       -0.2667
     12 O         -29.1929   -0.6083   28.5088 O.2     1  UNL1       -0.2680
     13 C         -29.0643   -2.4642   30.5789 C.ar    1  UNL1        0.0738
     14 C         -29.8901   -2.9524   29.6440 C.ar    1  UNL1        0.0212
     15 C         -30.3405   -4.3335   30.1005 C.ar    1  UNL1        0.0567
     16 C         -29.9808   -4.8597   31.3200 C.ar    1  UNL1        0.0047
     17 C         -29.0605   -4.2731   32.1273 C.ar    1  UNL1        0.0015
     18 C         -28.5387   -3.1309   31.7348 C.ar    1  UNL1        0.0166
     19 C         -31.4122   -4.9817   29.2983 C.2     1  UNL1        0.2690
     20 O         -31.4349   -4.9264   28.2028 O.2     1  UNL1       -0.2680
     21 N         -32.4624   -5.4143   29.9575 N.am    1  UNL1       -0.1754
     22 C         -33.5599   -6.0744   29.2837 C.ar    1  UNL1        0.0737
     23 C         -23.4997    0.5972   29.8770 C.3     1  UNL1        0.1298
     24 C         -22.8163   -0.4872   30.1594 C.3     1  UNL1        0.4017
     25 F         -21.5811   -0.3603   30.0588 F       1  UNL1       -0.1697
     26 F         -23.2704   -1.5915   29.4747 F       1  UNL1       -0.1697
     27 F         -23.0360   -0.8070   31.5196 F       1  UNL1       -0.1697
     28 C         -34.5708   -6.4078   29.9948 C.ar    1  UNL1        0.0166
     29 C         -35.6674   -6.9250   29.4453 C.ar    1  UNL1        0.0013
     30 C         -35.7054   -7.1442   28.0194 C.ar    1  UNL1        0.0001
     31 C         -34.5931   -6.7664   27.2652 C.ar    1  UNL1        0.0013
     32 C         -33.5026   -6.1672   27.8635 C.ar    1  UNL1        0.0166
@<TRIPOS>BOND
     1     1     2    1
     2     1     8   am
     3     5     9    1
     4     9    10   am
     5     9    11    2
     6     1    12    2
     7     8    13    1
     8    15    19    1
     9    19    20    2
    10    19    21   am
    11    21    22    1
    12     6    23    1
    13    23    24    1
    14    24    25    1
    15    24    26    1
    16    24    27    1
    17     2     3   ar
    18     3     4   ar
    19     4     5   ar
    20     5     6   ar
    21     6     7   ar
    22     7     2   ar
    23    13    14   ar
    24    14    15   ar
    25    15    16   ar
    26    16    17   ar
    27    17    18   ar
    28    18    13   ar
    29    22    28   ar
    30    28    29   ar
    31    29    30   ar
    32    30    31   ar
    33    31    32   ar
    34    32    22   ar
