@<TRIPOS>MOLECULE
No_1923-gen_results/8p0m/2024-11-26-14-13-15/
 31 33 0 0 0
SMALL
GASTEIGER

@<TRIPOS>ATOM
      1 C         -28.0162   -0.8135   28.8779 C.ar    1  UNL1        0.0001
      2 C         -28.4690   -0.7850   29.8287 C.ar    1  UNL1        0.0000
      3 C         -28.1816    0.4277   28.1134 C.ar    1  UNL1        0.0019
      4 C         -27.4498    0.6435   26.8500 C.2     1  UNL1        0.0238
      5 C         -26.4529    0.9939   26.6681 C.2     1  UNL1        0.1397
      6 C         -25.1811    0.8624   26.8164 C.ar    1  UNL1        0.0276
      7 C         -24.5151    0.1164   27.8117 C.ar    1  UNL1        0.0068
      8 C         -23.1976    0.2649   28.2065 C.ar    1  UNL1        0.0551
      9 C         -29.4518    0.0736   30.4366 C.ar    1  UNL1        0.0000
     10 C         -29.6891    1.1851   29.7172 C.ar    1  UNL1        0.0000
     11 C         -29.0627    1.3964   28.5468 C.ar    1  UNL1        0.0001
     12 C         -22.4153    1.2588   27.6068 C.ar    1  UNL1        0.0046
     13 C         -22.9728    2.1026   26.6347 C.ar    1  UNL1        0.0002
     14 C         -24.3078    1.9821   26.3195 C.ar    1  UNL1        0.0022
     15 C         -28.4549    0.2581   25.9140 C.2     1  UNL1       -0.0157
     16 C         -29.3890   -0.0094   25.6330 C.2     1  UNL1       -0.0003
     17 C         -30.1301   -0.1314   24.4505 C.2     1  UNL1        0.0672
     18 C         -29.2706   -0.1529   23.3921 C.2     1  UNL1       -0.0176
     19 C         -27.8360    0.3438   24.3740 C.3     1  UNL1        0.0523
     20 F         -26.4288    2.1987   25.7790 F       1  UNL1       -0.2042
     21 C         -22.6163   -0.5841   29.2383 C.2     1  UNL1        0.2651
     22 N         -23.3065   -1.1469   30.1480 N.am    1  UNL1       -0.1972
     23 O         -21.3236   -0.7256   29.2055 O.2     1  UNL1       -0.2684
     24 C         -24.1347   -0.8440   30.9036 C.3     1  UNL1        0.1385
     25 C         -25.4838   -1.3765   30.9421 C.2     1  UNL1        0.1171
     26 C         -23.8553    0.0399   32.1010 C.3     1  UNL1        0.0301
     27 C         -31.4878   -0.6168   24.1987 C.3     1  UNL1        0.4183
     28 F         -31.7186   -1.8091   24.4580 F       1  UNL1       -0.1659
     29 F         -31.8672   -0.2782   22.9042 F       1  UNL1       -0.1659
     30 F         -32.3720    0.1171   24.9830 F       1  UNL1       -0.1659
     31 N         -26.3451   -1.0919   31.9070 N.2     1  UNL1       -0.1496
@<TRIPOS>BOND
     1     3     4    1
     2     4     5    2
     3     5     6    1
     4     4    15    1
     5    15    16    2
     6    16    17    1
     7    17    18    2
     8    15    19    1
     9    18    19    1
    10     5    20    1
    11     8    21    1
    12    21    22   am
    13    21    23    2
    14    22    24    1
    15    24    25    1
    16    24    26    1
    17    17    27    1
    18    27    28    1
    19    27    29    1
    20    27    30    1
    21    25    31    2
    22     6     7   ar
    23     7     8   ar
    24     8    12   ar
    25    12    13   ar
    26    13    14   ar
    27    14     6   ar
    28     1     2   ar
    29     2     9   ar
    30     9    10   ar
    31    10    11   ar
    32    11     3   ar
    33     3     1   ar
