@<TRIPOS>MOLECULE
No_1924-gen_results/8p0m/2024-11-26-14-13-15/
 19 20 0 0 0
SMALL
GASTEIGER

@<TRIPOS>ATOM
      1 C         -28.0162   -0.8135   28.8779 C.ar    1  UNL1       -0.0155
      2 C         -28.4690   -0.7850   29.8287 C.3     1  UNL1        0.0268
      3 C         -28.1960    0.3478   28.0550 C.ar    1  UNL1        0.0306
      4 C         -27.4421    0.5100   26.7946 C.ar    1  UNL1        0.0064
      5 C         -26.1689   -0.0794   26.6787 C.ar    1  UNL1        0.0714
      6 C         -25.7312   -0.9607   27.6875 C.ar    1  UNL1        0.0074
      7 C         -26.5043   -1.2222   28.7582 C.ar    1  UNL1        0.0675
      8 C         -29.6530   -0.2892   30.1660 C.3     1  UNL1        0.0128
      9 C         -30.0958    0.7019   29.2325 C.3     1  UNL1        0.0695
     10 C         -29.3946    1.0067   28.0841 C.2     1  UNL1        0.1727
     11 C         -25.9323   -2.2672   29.7020 C.3     1  UNL1        0.4183
     12 F         -26.8364   -2.8783   30.1975 F       1  UNL1       -0.1659
     13 F         -25.2596   -1.6206   30.6811 F       1  UNL1       -0.1659
     14 F         -24.9674   -2.9783   29.1237 F       1  UNL1       -0.1659
     15 O         -29.8181    1.8597   27.2485 O.2     1  UNL1       -0.2913
     16 C         -25.3019    0.1793   25.5512 C.3     1  UNL1        0.4186
     17 F         -25.3484    1.3105   25.2362 F       1  UNL1       -0.1659
     18 F         -23.9995    0.0043   25.9631 F       1  UNL1       -0.1659
     19 F         -25.5764   -0.6655   24.5696 F       1  UNL1       -0.1659
@<TRIPOS>BOND
     1     2     8    1
     2     3    10    1
     3     9    10    1
     4     7    11    1
     5    11    12    1
     6    11    13    1
     7    11    14    1
     8    10    15    2
     9     5    16    1
    10    16    17    1
    11    16    18    1
    12    16    19    1
    13     1     2    1
    14     8     9    1
    15     1     3   ar
    16     3     4   ar
    17     4     5   ar
    18     5     6   ar
    19     6     7   ar
    20     7     1   ar
