@<TRIPOS>MOLECULE
No_1925-gen_results/8p0m/2024-11-26-14-13-15/
 19 21 0 0 0
SMALL
GASTEIGER

@<TRIPOS>ATOM
      1 C         -28.0162   -0.8135   28.8779 C.ar    1  UNL1        0.0002
      2 C         -27.0636   -0.1189   28.6079 C.ar    1  UNL1        0.0061
      3 C         -27.0010    0.6913   27.4910 C.ar    1  UNL1        0.0798
      4 C         -25.8548    1.4825   27.0830 C.ar    1  UNL1        0.0080
      5 C         -24.6901    1.4526   27.8807 C.ar    1  UNL1        0.0219
      6 C         -23.4878    2.1451   27.6011 C.2     1  UNL1        0.1573
      7 C         -25.8122   -0.1656   29.4299 C.ar    1  UNL1       -0.0020
      8 C         -24.6457    0.5887   29.0806 C.ar    1  UNL1        0.0011
      9 C         -27.9820   -1.4624   30.2355 C.ar    1  UNL1        0.0000
     10 C         -26.8349   -1.6118   30.9888 C.ar    1  UNL1       -0.0000
     11 C         -25.7326   -0.9095   30.6150 C.ar    1  UNL1       -0.0003
     12 N         -23.5074    3.0465   26.6349 N.2     1  UNL1       -0.1432
     13 C         -22.2293    1.8722   28.1774 C.2     1  UNL1        0.2846
     14 O         -21.1378    2.2513   27.4853 O.2     1  UNL1       -0.2666
     15 N         -22.1350    1.3115   29.3734 N.am    1  UNL1       -0.1955
     16 C         -23.3607    0.5356   29.8059 C.3     1  UNL1        0.1419
     17 C         -28.1678    0.7851   26.5772 C.2     1  UNL1        0.3878
     18 O         -29.1966    1.1945   26.8977 O.co2   1  UNL1       -0.2406
     19 O         -27.9721    0.3444   25.3455 O.co2   1  UNL1       -0.2406
@<TRIPOS>BOND
     1     5     6    1
     2     6    12    2
     3     6    13    1
     4    13    14    2
     5    13    15   am
     6     8    16    1
     7    15    16    1
     8     3    17    1
     9    17    18   ar
    10    17    19   ar
    11     1     2   ar
    12     7    11   ar
    13    11    10   ar
    14    10     9   ar
    15     9     1   ar
    16     2     3   ar
    17     3     4   ar
    18     4     5   ar
    19     5     8   ar
    20     8     7   ar
    21     7     2   ar
