@<TRIPOS>MOLECULE
No_1927-gen_results/8p0m/2024-11-26-14-13-15/
 22 24 0 0 0
SMALL
GASTEIGER

@<TRIPOS>ATOM
      1 C         -28.0162   -0.8135   28.8779 C.ar    1  UNL1        0.0489
      2 C         -28.4690   -0.7850   29.8287 C.ar    1  UNL1        0.1463
      3 C         -26.5042   -0.7777   28.8766 C.ar    1  UNL1        0.0607
      4 C         -25.8103   -0.8531   30.1028 C.ar    1  UNL1        0.0108
      5 C         -27.9906   -0.8916   31.2257 C.ar    1  UNL1        0.0375
      6 C         -26.6042   -0.8676   31.2652 C.ar    1  UNL1        0.0040
      7 C         -24.3894   -0.8049   30.1638 C.ar    1  UNL1        0.0008
      8 C         -23.7660   -0.9500   31.0679 C.ar    1  UNL1        0.0000
      9 C         -22.6512   -0.6461   31.4344 C.ar    1  UNL1        0.0000
     10 C         -21.7485   -0.3305   30.3721 C.ar    1  UNL1        0.0000
     11 C         -22.3144   -0.1125   29.1112 C.ar    1  UNL1        0.0000
     12 C         -23.7531   -0.3708   28.9587 C.ar    1  UNL1        0.0000
     13 O         -29.9473   -0.7684   29.8291 O.3     1  UNL1       -0.4504
     14 C         -30.5760    0.4027   30.1117 C.2     1  UNL1        0.1795
     15 C         -31.5198    0.7496   29.5598 C.2     1  UNL1        0.0407
     16 C         -32.1904   -0.0755   28.6117 C.ar    1  UNL1        0.0031
     17 C         -32.1251   -1.2624   28.6555 C.ar    1  UNL1        0.0001
     18 C         -32.8773   -2.0287   27.5906 C.ar    1  UNL1        0.0000
     19 C         -33.4101   -1.3640   26.5422 C.ar    1  UNL1        0.0000
     20 C         -33.4031    0.0075   26.4984 C.ar    1  UNL1        0.0000
     21 C         -32.8419    0.6924   27.5115 C.ar    1  UNL1        0.0001
     22 CL        -25.6297   -0.6816   27.4097 Cl      1  UNL1       -0.0821
@<TRIPOS>BOND
     1     4     7    1
     2     2    13    1
     3    13    14    1
     4    14    15    2
     5    15    16    1
     6     3    22    1
     7     1     2   ar
     8     2     5   ar
     9     5     6   ar
    10     6     4   ar
    11     4     3   ar
    12     3     1   ar
    13     7     8   ar
    14     8     9   ar
    15     9    10   ar
    16    10    11   ar
    17    11    12   ar
    18    12     7   ar
    19    16    17   ar
    20    17    18   ar
    21    18    19   ar
    22    19    20   ar
    23    20    21   ar
    24    21    16   ar
