@<TRIPOS>MOLECULE
No_1929-gen_results/8p0m/2024-11-26-14-13-15/
 22 24 0 0 0
SMALL
GASTEIGER

@<TRIPOS>ATOM
      1 C         -28.0162   -0.8135   28.8779 C.2     1  UNL1        0.0014
      2 C         -27.0636   -0.1189   28.6079 C.2     1  UNL1       -0.0261
      3 C         -25.7647   -0.3897   29.0360 C.3     1  UNL1        0.0225
      4 C         -24.5516    0.4058   28.7646 C.3     1  UNL1        0.0172
      5 C         -24.6957    1.4480   27.7988 C.3     1  UNL1        0.1172
      6 C         -25.9755    1.7250   27.3077 C.2     1  UNL1       -0.0202
      7 C         -27.0718    1.0134   27.6535 C.2     1  UNL1       -0.0009
      8 C         -29.2261   -0.0677   29.3149 C.3     1  UNL1        0.1461
      9 C         -30.4902   -0.7298   29.1813 C.ar    1  UNL1        0.0872
     10 C         -23.4843    2.1875   27.4876 C.3     1  UNL1        0.4011
     11 F         -23.6757    3.1764   26.7482 F       1  UNL1       -0.1697
     12 F         -22.8006    2.6819   28.5402 F       1  UNL1       -0.1697
     13 F         -22.5404    1.4193   26.8548 F       1  UNL1       -0.1697
     14 O         -29.3497    1.1480   28.6402 O.3     1  UNL1       -0.3442
     15 C         -31.3122   -0.3174   28.1840 C.ar    1  UNL1        0.0174
     16 C         -32.6068   -0.8057   28.0613 C.ar    1  UNL1        0.0029
     17 C         -28.1742    1.9076   28.3480 C.3     1  UNL1        0.1687
     18 C         -29.0018    0.4128   30.7944 C.3     1  UNL1        0.0404
     19 N         -30.8457   -1.7735   29.9442 N.ar    1  UNL1       -0.2455
     20 C         -32.0166   -2.3680   29.8408 C.ar    1  UNL1        0.0985
     21 C         -32.8932   -1.9415   28.8627 C.ar    1  UNL1        0.0207
     22 C         -25.4129   -1.5211   29.9806 C.3     1  UNL1        0.0047
@<TRIPOS>BOND
     1     1     2    2
     2     2     3    1
     3     3     4    1
     4     4     5    1
     5     5     6    1
     6     2     7    1
     7     6     7    2
     8     1     8    1
     9     8     9    1
    10     5    10    1
    11    10    11    1
    12    10    12    1
    13    10    13    1
    14     8    14    1
    15     9    15   ar
    16    15    16   ar
    17     7    17    1
    18    14    17    1
    19     8    18    1
    20     9    19   ar
    21    19    20   ar
    22    16    21   ar
    23    20    21   ar
    24     3    22    1
