@<TRIPOS>MOLECULE
No_193-gen_results/8p0m/2024-11-26-14-13-15/
 32 35 0 0 0
SMALL
GASTEIGER

@<TRIPOS>ATOM
      1 C         -28.0162   -0.8135   28.8779 C.ar    1  UNL1       -0.0034
      2 C         -28.4690   -0.7850   29.8287 C.ar    1  UNL1       -0.0003
      3 C         -28.1960    0.3478   28.0550 C.ar    1  UNL1       -0.0084
      4 C         -29.0191    1.3501   28.3782 C.ar    1  UNL1        0.0503
      5 C         -29.4107    0.1803   30.3782 C.ar    1  UNL1        0.0001
      6 C         -29.6059    1.2495   29.6193 C.ar    1  UNL1        0.0042
      7 C         -27.4597    0.3802   26.7091 C.3     1  UNL1        0.0847
      8 C         -26.0094    0.3317   26.7236 C.ar    1  UNL1       -0.0128
      9 C         -25.2816    0.9146   25.7613 C.ar    1  UNL1       -0.0027
     10 C         -23.8913    0.9368   25.8455 C.ar    1  UNL1        0.0111
     11 C         -23.3864    1.4021   27.0425 C.ar    1  UNL1        0.0577
     12 C         -24.0974    0.8527   28.2256 C.ar    1  UNL1        0.0111
     13 C         -25.3973    0.4655   28.1028 C.ar    1  UNL1       -0.0027
     14 C         -28.1532    0.2596   25.5382 C.ar    1  UNL1        0.0668
     15 N         -28.4973    1.1134   24.7472 N.ar    1  UNL1       -0.2475
     16 C         -29.3545    1.0059   23.7316 C.ar    1  UNL1        0.0985
     17 C         -30.4507    0.2604   24.0612 C.ar    1  UNL1        0.0207
     18 C         -30.2075   -0.9165   24.8012 C.ar    1  UNL1        0.0028
     19 C         -29.1980   -0.8000   25.7970 C.ar    1  UNL1        0.0154
     20 CL        -21.7378    1.7123   27.2773 Cl      1  UNL1       -0.0822
     21 C         -29.2974    2.5322   27.5494 C.2     1  UNL1        0.2488
     22 O         -30.2255    2.5715   26.7200 O.2     1  UNL1       -0.2699
     23 N         -28.4386    3.6253   27.7044 N.am    1  UNL1       -0.2740
     24 C         -28.5488    4.8147   26.9090 C.3     1  UNL1        0.1152
     25 C         -27.3861    3.6706   28.7026 C.3     1  UNL1        0.0984
     26 C         -27.6051    4.5414   29.8096 C.3     1  UNL1        0.0478
     27 C         -26.8533    4.2286   30.8725 C.ar    1  UNL1       -0.0205
     28 C         -26.9979    4.9617   32.1641 C.ar    1  UNL1       -0.0042
     29 C         -26.2688    4.6102   33.3413 C.ar    1  UNL1       -0.0003
     30 C         -25.4473    3.4629   33.2414 C.ar    1  UNL1       -0.0000
     31 C         -25.2628    2.7921   32.0631 C.ar    1  UNL1       -0.0003
     32 C         -25.9753    3.1428   30.9590 C.ar    1  UNL1       -0.0042
@<TRIPOS>BOND
     1     3     7    1
     2     7     8    1
     3     7    14    1
     4    11    20    1
     5     4    21    1
     6    21    22    2
     7    21    23   am
     8    23    24    1
     9    23    25    1
    10    25    26    1
    11    26    27    1
    12    14    15   ar
    13    15    16   ar
    14    16    17   ar
    15    17    18   ar
    16    18    19   ar
    17    19    14   ar
    18    27    28   ar
    19    28    29   ar
    20    29    30   ar
    21    30    31   ar
    22    31    32   ar
    23    32    27   ar
    24     8     9   ar
    25     9    10   ar
    26    10    11   ar
    27    11    12   ar
    28    12    13   ar
    29    13     8   ar
    30     1     2   ar
    31     2     5   ar
    32     5     6   ar
    33     6     4   ar
    34     4     3   ar
    35     3     1   ar
