@<TRIPOS>MOLECULE
No_1930-gen_results/8p0m/2024-11-26-14-13-15/
 35 37 0 0 0
SMALL
GASTEIGER

@<TRIPOS>ATOM
      1 C         -28.0162   -0.8135   28.8779 C.ar    1  UNL1        0.0051
      2 C         -27.0636   -0.1189   28.6079 C.ar    1  UNL1        0.0145
      3 C         -25.7647   -0.3897   29.0360 C.ar    1  UNL1        0.0479
      4 C         -25.5296   -1.5302   29.9014 C.ar    1  UNL1        0.0145
      5 C         -26.6888   -2.2893   30.1810 C.ar    1  UNL1        0.0051
      6 C         -27.8727   -1.9508   29.7373 C.ar    1  UNL1        0.0715
      7 N         -24.7724    0.5231   28.6920 N.pl3   1  UNL1       -0.3065
      8 C         -23.5400    0.2571   29.0905 C.3     1  UNL1        0.1020
      9 C         -22.5577    1.1667   28.4950 C.3     1  UNL1        0.1235
     10 C         -25.0193    1.7893   28.3727 C.3     1  UNL1        0.0984
     11 C         -24.2576    2.3960   27.6133 C.3     1  UNL1        0.0822
     12 C         -21.0919    0.8554   28.6609 C.2     1  UNL1        0.3660
     13 C         -22.8777    2.2877   27.7274 C.3     1  UNL1        0.0224
     14 C         -28.9310   -2.8960   30.2586 C.3     1  UNL1        0.4186
     15 F         -28.6611   -4.1450   30.3049 F       1  UNL1       -0.1659
     16 F         -30.0030   -2.7231   29.4419 F       1  UNL1       -0.1659
     17 F         -29.2717   -2.5038   31.5134 F       1  UNL1       -0.1659
     18 C         -24.5799    3.7727   26.9632 C.2     1  UNL1        0.1743
     19 C         -25.2919    4.6787   27.6671 C.ar    1  UNL1        0.0346
     20 C         -25.4971    5.9510   27.1147 C.ar    1  UNL1        0.0067
     21 C         -26.1851    6.9722   27.8095 C.ar    1  UNL1        0.0715
     22 C         -26.8007    6.6665   29.0246 C.ar    1  UNL1        0.0077
     23 C         -26.6544    5.3825   29.5264 C.ar    1  UNL1        0.0715
     24 C         -25.8992    4.4319   28.9110 C.ar    1  UNL1        0.0067
     25 C         -27.3159    5.0524   30.8627 C.3     1  UNL1        0.4186
     26 F         -28.2347    5.2452   31.2719 F       1  UNL1       -0.1659
     27 F         -26.2677    5.4921   31.7690 F       1  UNL1       -0.1659
     28 F         -26.9583    3.6149   31.0023 F       1  UNL1       -0.1659
     29 O         -20.7863   -0.4134   28.8623 O.co2   1  UNL1       -0.2456
     30 O         -20.1844    1.5867   28.0040 O.co2   1  UNL1       -0.2456
     31 O         -24.5327    3.7379   25.6710 O.2     1  UNL1       -0.2913
     32 C         -26.2829    8.3331   27.2563 C.3     1  UNL1        0.4186
     33 F         -27.4671    8.7364   27.4695 F       1  UNL1       -0.1659
     34 F         -25.4203    9.1216   27.8600 F       1  UNL1       -0.1659
     35 F         -25.9695    8.2955   25.9700 F       1  UNL1       -0.1659
@<TRIPOS>BOND
     1     3     7    1
     2     7     8    1
     3     7    10    1
     4     9    12    1
     5     9    13    1
     6    11    13    1
     7     6    14    1
     8    14    15    1
     9    14    16    1
    10    14    17    1
    11    11    18    1
    12    18    19    1
    13    23    25    1
    14    25    26    1
    15    25    27    1
    16    25    28    1
    17    12    29   ar
    18    12    30   ar
    19    18    31    2
    20    21    32    1
    21    32    33    1
    22    32    34    1
    23    32    35    1
    24     8     9    1
    25    11    10    1
    26     1     2   ar
    27     2     3   ar
    28     3     4   ar
    29     4     5   ar
    30     5     6   ar
    31     6     1   ar
    32    19    20   ar
    33    20    21   ar
    34    21    22   ar
    35    22    23   ar
    36    23    24   ar
    37    24    19   ar
