@<TRIPOS>MOLECULE
No_1931-gen_results/8p0m/2024-11-26-14-13-15/
 14 15 0 0 0
SMALL
GASTEIGER

@<TRIPOS>ATOM
      1 C         -28.0162   -0.8135   28.8779 C.3     1  UNL1        0.0436
      2 C         -28.4690   -0.7850   29.8287 C.3     1  UNL1        0.0771
      3 C         -27.0871    0.2903   28.6377 C.ar    1  UNL1       -0.0171
      4 C         -26.9103    0.8486   27.4199 C.ar    1  UNL1        0.0756
      5 N         -27.8904   -0.5560   31.0200 N.3     1  UNL1       -0.2674
      6 C         -25.8256    1.5951   27.1696 C.ar    1  UNL1        0.0062
      7 C         -24.8456    1.9389   28.1846 C.ar    1  UNL1       -0.0001
      8 C         -25.0221    1.3337   29.4095 C.ar    1  UNL1       -0.0032
      9 C         -26.0684    0.4931   29.6090 C.ar    1  UNL1       -0.0098
     10 C         -26.7059    0.2777   30.9419 C.3     1  UNL1        0.0989
     11 C         -27.7153    0.5475   26.2463 C.2     1  UNL1        0.3874
     12 O         -27.4091    0.6919   25.0986 O.co2   1  UNL1       -0.2406
     13 O         -28.9874    0.4423   26.4501 O.co2   1  UNL1       -0.2406
     14 C         -28.3718   -0.9052   32.3625 C.3     1  UNL1        0.0899
@<TRIPOS>BOND
     1     1     2    1
     2     1     3    1
     3     2     5    1
     4     5    10    1
     5     9    10    1
     6     4    11    1
     7    11    12   ar
     8    11    13   ar
     9     5    14    1
    10     3     4   ar
    11     4     6   ar
    12     6     7   ar
    13     7     8   ar
    14     8     9   ar
    15     9     3   ar
