@<TRIPOS>MOLECULE
No_1932-gen_results/8p0m/2024-11-26-14-13-15/
 11 11 0 0 0
SMALL
GASTEIGER

@<TRIPOS>ATOM
      1 O         -28.1229   -1.3353   28.4874 O.2     1  UNL1       -0.2961
      2 C         -27.0637   -0.8242   28.8687 C.2     1  UNL1        0.1507
      3 C         -25.9464   -1.0396   28.8492 C.3     1  UNL1        0.0648
      4 C         -24.7602   -0.1562   29.1644 C.3     1  UNL1        0.0117
      5 C         -25.0917    1.0791   29.6491 C.3     1  UNL1        0.0012
      6 C         -26.4090    1.4383   29.7067 C.3     1  UNL1        0.0078
      7 C         -27.3694    0.6586   29.4148 C.3     1  UNL1        0.0645
      8 C         -23.3561   -0.5639   29.1206 C.3     1  UNL1        0.0279
      9 C         -22.4322    0.2418   28.4552 C.2     1  UNL1       -0.0067
     10 C         -21.0484    0.0852   28.5561 C.2     1  UNL1        0.1012
     11 N         -20.2682    1.0211   28.1039 N.pl3   1  UNL1       -0.1270
@<TRIPOS>BOND
     1     1     2    2
     2     2     3    1
     3     3     4    1
     4     4     5    1
     5     5     6    1
     6     2     7    1
     7     6     7    1
     8     4     8    1
     9     8     9    1
    10     9    10    2
    11    10    11    1
