@<TRIPOS>MOLECULE
No_1933-gen_results/8p0m/2024-11-26-14-13-15/
 35 38 0 0 0
SMALL
GASTEIGER

@<TRIPOS>ATOM
      1 O         -28.1229   -1.3353   28.4874 O.2     1  UNL1       -0.2741
      2 C         -27.4806   -0.4044   28.7094 C.2     1  UNL1        0.2351
      3 C         -26.3804   -0.0867   27.9394 C.3     1  UNL1        0.0871
      4 N         -27.4232    0.1749   30.0549 N.am    1  UNL1       -0.2077
      5 C         -25.4065    0.7421   28.2860 C.3     1  UNL1        0.0301
      6 C         -25.5698    1.4353   29.5751 C.3     1  UNL1        0.1807
      7 C         -24.5006    2.3964   30.0318 C.2     1  UNL1        0.3730
      8 C         -26.5649    1.0802   30.4853 C.2     1  UNL1        0.2456
      9 O         -23.4890    2.6193   29.3134 O.co2   1  UNL1       -0.2451
     10 O         -24.6527    3.0027   31.1699 O.co2   1  UNL1       -0.2451
     11 C         -28.5570   -0.2564   30.9047 C.ar    1  UNL1        0.0607
     12 C         -28.4683   -0.7124   31.9369 C.ar    1  UNL1        0.0153
     13 C         -29.5220   -1.0940   32.8860 C.ar    1  UNL1        0.0013
     14 C         -30.8076   -0.8918   32.4067 C.ar    1  UNL1        0.0001
     15 C         -30.9703   -0.3927   31.1190 C.ar    1  UNL1        0.0013
     16 C         -29.9051   -0.0056   30.3520 C.ar    1  UNL1        0.0153
     17 O         -26.7616    1.6476   31.6033 O.2     1  UNL1       -0.2735
     18 C         -32.3404   -0.1043   30.6050 C.ar    1  UNL1        0.0009
     19 C         -32.9126   -0.8079   29.8706 C.ar    1  UNL1        0.0000
     20 C         -34.2517   -0.5420   29.2879 C.ar    1  UNL1        0.0005
     21 C         -34.8409    0.6435   29.7324 C.ar    1  UNL1        0.0114
     22 C         -34.2098    1.4665   30.5873 C.ar    1  UNL1        0.0577
     23 C         -32.9138    1.1820   31.0828 C.ar    1  UNL1        0.0114
     24 CL        -34.9753    2.9170   31.1246 Cl      1  UNL1       -0.0822
     25 C         -34.8696   -1.4512   28.4001 C.2     1  UNL1       -0.0038
     26 C         -34.4332   -2.0832   27.5254 C.2     1  UNL1       -0.0143
     27 C         -32.9498   -1.9499   27.2706 C.3     1  UNL1        0.1090
     28 C         -32.5303   -1.5341   26.4230 C.ar    1  UNL1       -0.0110
     29 C         -33.0753   -1.1579   25.2591 C.ar    1  UNL1       -0.0035
     30 C         -32.3997   -0.6147   24.1379 C.ar    1  UNL1       -0.0003
     31 C         -31.0247   -0.3324   24.2867 C.ar    1  UNL1       -0.0000
     32 C         -30.3396   -0.6171   25.4378 C.ar    1  UNL1       -0.0003
     33 C         -30.9733   -1.1164   26.4570 C.ar    1  UNL1       -0.0035
     34 C         -32.2802   -3.3283   27.8449 C.2     1  UNL1        0.2157
     35 O         -31.5584   -3.8636   27.1939 O.2     1  UNL1       -0.2876
@<TRIPOS>BOND
     1     1     2    2
     2     2     3    1
     3     2     4   am
     4     5     6    1
     5     6     7    1
     6     4     8   am
     7     6     8    1
     8     7     9   ar
     9     7    10   ar
    10     4    11    1
    11     8    17    2
    12    15    18    1
    13    22    24    1
    14    20    25    1
    15    25    26    2
    16    26    27    1
    17    27    28    1
    18    27    34    1
    19    34    35    2
    20     3     5    1
    21    11    12   ar
    22    12    13   ar
    23    13    14   ar
    24    14    15   ar
    25    15    16   ar
    26    16    11   ar
    27    18    19   ar
    28    19    20   ar
    29    20    21   ar
    30    21    22   ar
    31    22    23   ar
    32    23    18   ar
    33    28    29   ar
    34    29    30   ar
    35    30    31   ar
    36    31    32   ar
    37    32    33   ar
    38    33    28   ar
