@<TRIPOS>MOLECULE
No_1934-gen_results/8p0m/2024-11-26-14-13-15/
 24 26 0 0 0
SMALL
GASTEIGER

@<TRIPOS>ATOM
      1 C         -28.0162   -0.8135   28.8779 C.ar    1  UNL1        0.0025
      2 C         -27.0636   -0.1190   28.6079 C.ar    1  UNL1        0.0032
      3 C         -26.9716    0.7139   27.5060 C.ar    1  UNL1        0.0392
      4 C         -28.1053    0.7744   26.6421 C.ar    1  UNL1        0.1660
      5 C         -29.2008    0.1044   27.0527 C.ar    1  UNL1        0.1738
      6 C         -29.2096   -0.6029   28.1853 C.ar    1  UNL1        0.0328
      7 F         -30.2808    0.2156   26.2913 F       1  UNL1       -0.2010
      8 C         -25.8768   -0.2993   29.5884 C.ar    1  UNL1        0.0001
      9 C         -25.0248    0.7156   29.8894 C.ar    1  UNL1        0.0000
     10 C         -25.2961    1.5796   30.5503 C.ar    1  UNL1        0.0000
     11 C         -26.5269    1.7897   31.2800 C.ar    1  UNL1        0.0002
     12 C         -26.7677    2.9810   32.0757 C.ar    1  UNL1        0.0066
     13 C         -25.8317    3.9905   32.0842 C.ar    1  UNL1        0.0798
     14 C         -24.6367    3.9017   31.4180 C.ar    1  UNL1        0.0066
     15 C         -24.3198    2.7628   30.7170 C.ar    1  UNL1        0.0002
     16 C         -23.6259    0.1653   29.9244 C.ar    1  UNL1        0.0000
     17 C         -25.7094   -1.6227   30.0439 C.ar    1  UNL1        0.0000
     18 C         -24.4396   -2.1932   29.6285 C.ar    1  UNL1        0.0000
     19 C         -23.3170   -1.2441   29.8984 C.ar    1  UNL1        0.0000
     20 C         -26.0632    5.1921   32.9969 C.2     1  UNL1        0.3878
     21 O         -26.1647    6.2729   32.6415 O.co2   1  UNL1       -0.2406
     22 O         -25.7526    4.9288   34.3237 O.co2   1  UNL1       -0.2406
     23 O         -28.0649    1.5884   25.5762 O.3     1  UNL1       -0.4692
     24 C         -27.4138    1.0300   24.6003 C.3     1  UNL1        0.2526
@<TRIPOS>BOND
     1     5     7    1
     2     2     8    1
     3    13    20    1
     4    20    21   ar
     5    20    22   ar
     6     4    23    1
     7    23    24    1
     8    10     9    1
     9     1     2   ar
    10     2     3   ar
    11     3     4   ar
    12     4     5   ar
    13     5     6   ar
    14     6     1   ar
    15     8     9   ar
    16     9    16   ar
    17    16    19   ar
    18    19    18   ar
    19    18    17   ar
    20    17     8   ar
    21    10    11   ar
    22    11    12   ar
    23    12    13   ar
    24    13    14   ar
    25    14    15   ar
    26    15    10   ar
