@<TRIPOS>MOLECULE
No_1935-gen_results/8p0m/2024-11-26-14-13-15/
 21 23 0 0 0
SMALL
GASTEIGER

@<TRIPOS>ATOM
      1 N         -28.0544   -1.0498   28.7246 N.ar    1  UNL1       -0.2276
      2 C         -28.6544   -0.5669   29.5076 C.ar    1  UNL1        0.1548
      3 C         -28.1376    0.1595   30.5233 C.ar    1  UNL1        0.0359
      4 C         -26.7189    0.4201   30.5561 C.ar    1  UNL1        0.0002
      5 C         -25.9589   -0.1825   29.5488 C.ar    1  UNL1       -0.0035
      6 C         -26.6536   -0.9391   28.6362 C.ar    1  UNL1        0.0960
      7 N         -30.0120   -0.8015   29.5534 N.am    1  UNL1       -0.1566
      8 C         -30.9873   -0.4943   29.1761 C.2     1  UNL1        0.2703
      9 O         -30.9738    0.5286   28.4977 O.2     1  UNL1       -0.2680
     10 C         -32.2738   -1.2352   29.3148 C.ar    1  UNL1        0.0554
     11 C         -33.1632   -1.2023   28.8062 C.ar    1  UNL1        0.0046
     12 C         -34.4014   -1.9968   28.9828 C.ar    1  UNL1        0.0001
     13 C         -34.3105   -2.9499   30.0046 C.ar    1  UNL1        0.0000
     14 C         -33.1467   -3.0933   30.6986 C.ar    1  UNL1        0.0001
     15 C         -32.0602   -2.2896   30.4326 C.ar    1  UNL1        0.0046
     16 C         -24.5241   -0.0197   29.4973 C.3     1  UNL1        0.0204
     17 C         -23.7201   -1.0122   30.1228 C.3     1  UNL1        0.0044
     18 C         -24.0371    1.2907   30.0732 C.3     1  UNL1        0.0041
     19 C         -24.0513    0.1329   27.9973 C.3     1  UNL1        0.0041
     20 C         -22.9094    0.9798   27.8135 C.3     1  UNL1        0.0003
     21 C         -22.6784    1.6145   29.1434 C.3     1  UNL1        0.0003
@<TRIPOS>BOND
     1     2     7    1
     2     7     8   am
     3     8     9    2
     4     8    10    1
     5     5    16    1
     6    16    17    1
     7    16    18    1
     8    16    19    1
     9    19    20    1
    10    18    21    1
    11    20    21    1
    12     1     2   ar
    13     2     3   ar
    14     3     4   ar
    15     4     5   ar
    16     5     6   ar
    17     6     1   ar
    18    10    11   ar
    19    11    12   ar
    20    12    13   ar
    21    13    14   ar
    22    14    15   ar
    23    15    10   ar
