@<TRIPOS>MOLECULE
No_1936-gen_results/8p0m/2024-11-26-14-13-15/
 13 14 0 0 0
SMALL
GASTEIGER

@<TRIPOS>ATOM
      1 C         -28.0162   -0.8135   28.8779 C.ar    1  UNL1       -0.0000
      2 C         -27.0636   -0.1190   28.6079 C.ar    1  UNL1       -0.0003
      3 C         -25.7923   -0.4302   29.0761 C.ar    1  UNL1       -0.0000
      4 C         -25.5756   -1.5654   29.9363 C.ar    1  UNL1       -0.0000
      5 C         -26.7354   -2.3004   30.2173 C.ar    1  UNL1       -0.0000
      6 C         -27.9184   -1.9537   29.7629 C.ar    1  UNL1       -0.0000
      7 C         -27.1057    1.1023   27.7593 C.ar    1  UNL1       -0.0040
      8 C         -27.8576    1.5309   27.2156 C.ar    1  UNL1       -0.0003
      9 C         -27.8299    2.6705   26.2936 C.ar    1  UNL1       -0.0000
     10 C         -26.5899    3.3104   26.0934 C.ar    1  UNL1       -0.0003
     11 C         -25.4689    2.7905   26.7306 C.ar    1  UNL1       -0.0043
     12 C         -25.6127    1.7390   27.5551 C.ar    1  UNL1       -0.0218
     13 C         -24.4415    1.2249   28.1662 C.3     1  UNL1        0.0310
@<TRIPOS>BOND
     1     2     7    1
     2    12    13    1
     3     1     2   ar
     4     2     3   ar
     5     3     4   ar
     6     4     5   ar
     7     5     6   ar
     8     6     1   ar
     9     7     8   ar
    10     8     9   ar
    11     9    10   ar
    12    10    11   ar
    13    11    12   ar
    14    12     7   ar
