@<TRIPOS>MOLECULE
No_1937-gen_results/8p0m/2024-11-26-14-13-15/
 30 33 0 0 0
SMALL
GASTEIGER

@<TRIPOS>ATOM
      1 C         -28.0162   -0.8135   28.8779 C.ar    1  UNL1        0.0063
      2 C         -28.4690   -0.7850   29.8287 C.ar    1  UNL1        0.0798
      3 C         -27.0871    0.2903   28.6377 C.ar    1  UNL1       -0.0038
      4 C         -26.0239    0.3644   29.2526 C.ar    1  UNL1       -0.0190
      5 C         -27.5370   -0.6187   31.0883 C.ar    1  UNL1        0.0063
      6 C         -26.3844    0.1834   30.8013 C.ar    1  UNL1       -0.0038
      7 C         -29.6227   -1.6698   30.2973 C.2     1  UNL1        0.3878
      8 O         -29.5721   -2.7556   30.5828 O.co2   1  UNL1       -0.2406
      9 O         -30.8059   -1.0509   30.2630 O.co2   1  UNL1       -0.2406
     10 C         -24.8652    1.3047   29.1015 C.3     1  UNL1        0.0377
     11 C         -24.0315    0.9773   28.0699 C.3     1  UNL1        0.0081
     12 C         -22.7806    1.6515   27.8773 C.3     1  UNL1        0.0007
     13 C         -24.0820    1.5932   30.3556 C.3     1  UNL1        0.0081
     14 C         -22.8161    2.2712   30.2037 C.3     1  UNL1        0.0007
     15 C         -22.1641    2.2585   28.9904 C.3     1  UNL1        0.0000
     16 C         -25.3980    2.6343   28.6909 C.ar    1  UNL1       -0.0189
     17 C         -25.9609    3.5220   29.6036 C.ar    1  UNL1        0.0006
     18 C         -26.5326    4.7571   29.1811 C.ar    1  UNL1        0.0551
     19 C         -25.4145    3.0964   27.3839 C.ar    1  UNL1       -0.0040
     20 C         -25.9894    4.3311   26.9714 C.ar    1  UNL1       -0.0002
     21 C         -27.1765    5.6594   30.1810 C.2     1  UNL1        0.2690
     22 C         -26.4776    5.1550   27.8860 C.ar    1  UNL1        0.0046
     23 O         -27.3125    5.3415   31.2950 O.2     1  UNL1       -0.2680
     24 N         -27.5630    6.8734   29.7653 N.am    1  UNL1       -0.1754
     25 C         -28.2272    7.7840   30.7005 C.ar    1  UNL1        0.0737
     26 C         -28.1917    8.8205   30.6802 C.ar    1  UNL1        0.0166
     27 C         -28.7743    9.7466   31.7028 C.ar    1  UNL1        0.0013
     28 C         -29.5352    9.0971   32.6999 C.ar    1  UNL1        0.0001
     29 C         -29.5392    7.7151   32.6749 C.ar    1  UNL1        0.0013
     30 C         -28.8561    6.9935   31.7378 C.ar    1  UNL1        0.0166
@<TRIPOS>BOND
     1     2     7    1
     2     7     8   ar
     3     7     9   ar
     4     4    10    1
     5    10    11    1
     6    10    13    1
     7    12    15    1
     8    14    15    1
     9    10    16    1
    10    18    21    1
    11    21    23    2
    12    21    24   am
    13    24    25    1
    14    11    12    1
    15    14    13    1
    16    16    17   ar
    17    17    18   ar
    18    18    22   ar
    19    22    20   ar
    20    20    19   ar
    21    19    16   ar
    22     1     2   ar
    23     2     5   ar
    24     5     6   ar
    25     6     4   ar
    26     4     3   ar
    27     3     1   ar
    28    25    26   ar
    29    26    27   ar
    30    27    28   ar
    31    28    29   ar
    32    29    30   ar
    33    30    25   ar
