@<TRIPOS>MOLECULE
No_1938-gen_results/8p0m/2024-11-26-14-13-15/
 22 22 0 0 0
SMALL
GASTEIGER

@<TRIPOS>ATOM
      1 C         -28.0162   -0.8135   28.8779 C.ar    1  UNL1        0.0039
      2 C         -27.0636   -0.1189   28.6079 C.ar    1  UNL1        0.0792
      3 C         -25.7647   -0.3897   29.0360 C.ar    1  UNL1        0.0036
      4 C         -25.5296   -1.5302   29.9014 C.ar    1  UNL1       -0.0062
      5 C         -24.3236   -1.9076   30.4324 C.3     1  UNL1        0.0992
      6 C         -27.9274   -1.9227   29.7902 C.ar    1  UNL1       -0.0025
      7 C         -26.6914   -2.2806   30.2948 C.ar    1  UNL1       -0.0055
      8 N         -23.6772   -1.1090   31.2486 N.3     1  UNL1       -0.2665
      9 C         -22.6394   -0.2271   30.9042 C.3     1  UNL1        0.0899
     10 C         -24.3297   -0.7819   32.5592 C.3     1  UNL1        0.0899
     11 C         -29.1266   -2.6863   30.2512 C.3     1  UNL1        0.1178
     12 N         -29.5274   -2.5095   31.5039 N.pl3   1  UNL1       -0.3009
     13 C         -29.3592   -1.3845   32.0716 C.2     1  UNL1        0.0616
     14 C         -30.0901   -3.6330   32.2672 C.3     1  UNL1        0.1125
     15 C         -27.1147    0.9900   27.5974 C.2     1  UNL1        0.3877
     16 O         -27.8972    1.8164   27.7107 O.co2   1  UNL1       -0.2406
     17 O         -26.2728    0.9524   26.6537 O.co2   1  UNL1       -0.2406
     18 C         -29.7830   -1.1737   33.4946 C.2     1  UNL1        0.0158
     19 C         -29.5197   -0.0178   34.1397 C.2     1  UNL1        0.0013
     20 C         -29.7414    0.2475   35.3414 C.2     1  UNL1        0.0000
     21 C         -30.4041   -0.7995   36.1024 C.2     1  UNL1        0.0000
     22 C         -30.6428   -2.0110   35.5408 C.2     1  UNL1        0.0000
@<TRIPOS>BOND
     1     4     5    1
     2     5     8    1
     3     8     9    1
     4     8    10    1
     5     6    11    1
     6    11    12    1
     7    12    13    1
     8    12    14    1
     9     2    15    1
    10    15    16   ar
    11    15    17   ar
    12    13    18    2
    13    18    19    1
    14    19    20    2
    15    20    21    1
    16    21    22    2
    17     1     2   ar
    18     2     3   ar
    19     3     4   ar
    20     4     7   ar
    21     7     6   ar
    22     6     1   ar
