@<TRIPOS>MOLECULE
No_1939-gen_results/8p0m/2024-11-26-14-13-15/
 23 25 0 0 0
SMALL
GASTEIGER

@<TRIPOS>ATOM
      1 C         -28.0162   -0.8135   28.8779 C.ar    1  UNL1        0.0372
      2 C         -28.4690   -0.7850   29.8287 C.ar    1  UNL1        0.1453
      3 C         -26.5455   -0.8762   28.8500 C.ar    1  UNL1       -0.0008
      4 C         -25.8041   -1.0324   30.0571 C.ar    1  UNL1       -0.0176
      5 C         -27.9437   -0.9869   31.2075 C.ar    1  UNL1        0.0372
      6 C         -26.5825   -1.0386   31.2231 C.ar    1  UNL1       -0.0008
      7 O         -29.9267   -0.7257   29.8772 O.3     1  UNL1       -0.4535
      8 C         -30.5050   -0.0237   28.9624 C.ar    1  UNL1        0.1453
      9 C         -31.3773   -0.3992   28.1172 C.ar    1  UNL1        0.0375
     10 C         -31.9394    0.3228   27.0412 C.ar    1  UNL1        0.0031
     11 C         -31.4912    1.6577   26.9464 C.ar    1  UNL1        0.0002
     12 C         -29.9322    1.2797   28.6976 C.ar    1  UNL1        0.0375
     13 C         -30.4949    2.1221   27.7800 C.ar    1  UNL1        0.0031
     14 C         -24.3769   -1.1246   30.0691 C.3     1  UNL1        0.0526
     15 C         -23.7104    0.0919   29.8780 C.ar    1  UNL1       -0.0181
     16 C         -23.8709    1.1689   30.5918 C.ar    1  UNL1       -0.0082
     17 C         -24.0187    2.3333   30.3229 C.ar    1  UNL1       -0.0210
     18 C         -24.8033    3.3106   31.0905 C.3     1  UNL1        0.0468
     19 C         -25.0741    4.6203   30.7319 C.3     1  UNL1        0.1140
     20 N         -25.4384    5.4940   31.7040 N.3     1  UNL1       -0.1310
     21 C         -22.7361    0.1340   28.7726 C.ar    1  UNL1       -0.0040
     22 C         -22.5013    1.3728   28.1541 C.ar    1  UNL1       -0.0006
     23 C         -23.1569    2.6165   28.8882 C.ar    1  UNL1       -0.0042
@<TRIPOS>BOND
     1     2     7    1
     2     7     8    1
     3     4    14    1
     4    14    15    1
     5    18    19    1
     6    19    20    1
     7    18    17    1
     8    15    16   ar
     9    16    17   ar
    10    17    23   ar
    11    23    22   ar
    12    22    21   ar
    13    21    15   ar
    14     1     2   ar
    15     2     5   ar
    16     5     6   ar
    17     6     4   ar
    18     4     3   ar
    19     3     1   ar
    20     8     9   ar
    21     9    10   ar
    22    10    11   ar
    23    11    13   ar
    24    13    12   ar
    25    12     8   ar
