@<TRIPOS>MOLECULE
No_194-gen_results/8p0m/2024-11-26-14-13-15/
 19 20 0 0 0
SMALL
GASTEIGER

@<TRIPOS>ATOM
      1 C         -28.0162   -0.8135   28.8779 C.2     1  UNL1        0.2528
      2 C         -27.0636   -0.1189   28.6079 C.ar    1  UNL1        0.0539
      3 C         -26.9287    1.1713   29.0083 C.ar    1  UNL1        0.0047
      4 C         -25.7702    2.0341   28.6884 C.ar    1  UNL1        0.0050
      5 C         -24.7141    1.4431   27.9188 C.ar    1  UNL1        0.0593
      6 C         -24.8590    0.0783   27.5836 C.ar    1  UNL1        0.0050
      7 C         -25.9647   -0.6606   27.9164 C.ar    1  UNL1        0.0047
      8 N         -27.9821   -1.6367   30.0748 N.am    1  UNL1       -0.2534
      9 O         -29.1950   -0.6035   28.4621 O.2     1  UNL1       -0.2696
     10 C         -29.0495   -2.5038   30.5225 C.ar    1  UNL1        0.0542
     11 C         -26.6889   -1.8860   30.7613 C.3     1  UNL1        0.1203
     12 C         -23.5137    2.1536   27.5449 C.2     1  UNL1        0.2968
     13 N         -22.4324    1.7032   27.1484 N.2     1  UNL1       -0.1025
     14 O         -23.5124    3.4363   27.8570 O.2     1  UNL1       -0.2636
     15 C         -28.8682   -3.8323   30.2753 C.ar    1  UNL1        0.0149
     16 C         -30.0612   -4.6373   30.0533 C.ar    1  UNL1        0.0013
     17 C         -31.2053   -4.0053   29.8514 C.ar    1  UNL1        0.0001
     18 C         -31.3472   -2.6462   30.0823 C.ar    1  UNL1        0.0013
     19 C         -30.1097   -1.8353   29.8279 C.ar    1  UNL1        0.0149
@<TRIPOS>BOND
     1     1     2    1
     2     1     8   am
     3     1     9    2
     4     8    10    1
     5     8    11    1
     6     5    12    1
     7    12    13    2
     8    12    14    1
     9     2     3   ar
    10     3     4   ar
    11     4     5   ar
    12     5     6   ar
    13     6     7   ar
    14     7     2   ar
    15    10    15   ar
    16    15    16   ar
    17    16    17   ar
    18    17    18   ar
    19    18    19   ar
    20    19    10   ar
