@<TRIPOS>MOLECULE
No_1940-gen_results/8p0m/2024-11-26-14-13-15/
 15 16 0 0 0
SMALL
GASTEIGER

@<TRIPOS>ATOM
      1 C         -28.0162   -0.8135   28.8779 C.ar    1  UNL1       -0.0000
      2 C         -27.0636   -0.1189   28.6079 C.ar    1  UNL1       -0.0000
      3 C         -26.9287    1.1713   29.0083 C.ar    1  UNL1       -0.0003
      4 C         -25.7702    2.0341   28.6884 C.ar    1  UNL1       -0.0031
      5 C         -24.7141    1.4431   27.9188 C.ar    1  UNL1       -0.0074
      6 C         -24.8590    0.0783   27.5836 C.ar    1  UNL1       -0.0031
      7 C         -25.9647   -0.6606   27.9164 C.ar    1  UNL1       -0.0003
      8 C         -28.0422   -1.5426   30.2417 C.ar    1  UNL1       -0.0000
      9 C         -29.0635   -2.4584   30.5917 C.ar    1  UNL1        0.0000
     10 C         -30.3213   -2.0364   30.3596 C.ar    1  UNL1        0.0000
     11 C         -30.5155   -1.1664   29.2287 C.ar    1  UNL1        0.0000
     12 C         -29.4072   -0.2599   28.9260 C.ar    1  UNL1       -0.0000
     13 C         -23.5064    2.1335   27.5669 C.3     1  UNL1        0.1021
     14 CL        -22.4536    2.1479   27.8283 Cl      1  UNL1       -0.1102
     15 C         -23.8994    2.7778   26.1535 C.3     1  UNL1        0.0223
@<TRIPOS>BOND
     1     1     2    1
     2     5    13    1
     3    13    14    1
     4    13    15    1
     5     2     3   ar
     6     3     4   ar
     7     4     5   ar
     8     5     6   ar
     9     6     7   ar
    10     7     2   ar
    11     1     8   ar
    12     8     9   ar
    13     9    10   ar
    14    10    11   ar
    15    11    12   ar
    16    12     1   ar
