@<TRIPOS>MOLECULE
No_1941-gen_results/8p0m/2024-11-26-14-13-15/
 9 9 0 0 0
SMALL
GASTEIGER

@<TRIPOS>ATOM
      1 C         -28.0162   -0.8135   28.8779 C.ar    1  UNL1        0.0798
      2 C         -27.0636   -0.1189   28.6079 C.ar    1  UNL1        0.0066
      3 C         -27.0010    0.6913   27.4910 C.ar    1  UNL1        0.0002
      4 C         -28.1373    0.7363   26.6350 C.ar    1  UNL1        0.0000
      5 C         -29.2360    0.0765   27.0689 C.ar    1  UNL1        0.0002
      6 C         -29.2177   -0.6429   28.1747 C.ar    1  UNL1        0.0066
      7 C         -27.7867   -1.6669   30.1199 C.2     1  UNL1        0.3878
      8 O         -26.8113   -2.1895   30.3867 O.co2   1  UNL1       -0.2406
      9 O         -28.9402   -2.0197   30.7605 O.co2   1  UNL1       -0.2406
@<TRIPOS>BOND
     1     1     7    1
     2     7     8   ar
     3     7     9   ar
     4     1     2   ar
     5     2     3   ar
     6     3     4   ar
     7     4     5   ar
     8     5     6   ar
     9     6     1   ar
