@<TRIPOS>MOLECULE
No_1942-gen_results/8p0m/2024-11-26-14-13-15/
 20 21 0 0 0
SMALL
GASTEIGER

@<TRIPOS>ATOM
      1 C         -28.0162   -0.8135   28.8779 C.ar    1  UNL1        0.0407
      2 C         -28.4690   -0.7850   29.8287 C.ar    1  UNL1        0.1410
      3 C         -26.5042   -0.7777   28.8766 C.ar    1  UNL1        0.0559
      4 C         -25.8103   -0.8531   30.1028 C.ar    1  UNL1       -0.0114
      5 C         -27.9906   -0.8916   31.2257 C.ar    1  UNL1        0.0294
      6 C         -26.6042   -0.8676   31.2652 C.ar    1  UNL1       -0.0011
      7 F         -29.9203   -0.8331   29.8239 F       1  UNL1       -0.2041
      8 C         -24.3796   -0.8022   30.1424 C.3     1  UNL1        0.0300
      9 C         -23.8075    0.5641   30.1478 C.3     1  UNL1        0.0364
     10 C         -23.2709    1.1039   28.9795 C.3     1  UNL1        0.1456
     11 C         -23.8628    2.2224   28.3154 C.ar    1  UNL1        0.0050
     12 C         -24.9545    2.8087   28.8219 C.ar    1  UNL1       -0.0019
     13 C         -25.5515    3.8872   28.1294 C.ar    1  UNL1       -0.0002
     14 C         -25.0039    4.2136   26.9004 C.ar    1  UNL1       -0.0000
     15 C         -24.0550    3.4960   26.2209 C.ar    1  UNL1       -0.0002
     16 C         -23.4189    2.5219   26.9792 C.ar    1  UNL1       -0.0019
     17 C         -21.7313    1.3167   29.3284 C.3     1  UNL1        0.0375
     18 CL        -25.6951   -0.5441   27.3829 Cl      1  UNL1       -0.0825
     19 C         -23.9748    1.3276   31.3613 C.3     1  UNL1        0.0032
     20 O         -23.1252    0.0652   27.9519 O.3     1  UNL1       -0.2212
@<TRIPOS>BOND
     1     2     7    1
     2     4     8    1
     3     8     9    1
     4     9    10    1
     5    10    11    1
     6    10    17    1
     7     3    18    1
     8     9    19    1
     9    10    20    1
    10    11    12   ar
    11    12    13   ar
    12    13    14   ar
    13    14    15   ar
    14    15    16   ar
    15    16    11   ar
    16     1     2   ar
    17     2     5   ar
    18     5     6   ar
    19     6     4   ar
    20     4     3   ar
    21     3     1   ar
