@<TRIPOS>MOLECULE
No_1943-gen_results/8p0m/2024-11-26-14-13-15/
 21 23 0 0 0
SMALL
GASTEIGER

@<TRIPOS>ATOM
      1 C         -28.0162   -0.8135   28.8779 C.ar    1  UNL1        0.0046
      2 C         -27.0636   -0.1189   28.6079 C.ar    1  UNL1        0.0001
      3 C         -25.7647   -0.3897   29.0360 C.ar    1  UNL1        0.0000
      4 C         -24.5516    0.4058   28.7646 C.ar    1  UNL1        0.0000
      5 C         -23.2300    0.1178   29.2575 C.ar    1  UNL1        0.0000
      6 C         -22.1393    0.9427   28.9224 C.ar    1  UNL1        0.0000
      7 C         -27.8294   -1.9287   29.8545 C.ar    1  UNL1        0.0554
      8 C         -26.5882   -2.3272   30.2682 C.ar    1  UNL1        0.0046
      9 C         -25.4565   -1.5432   29.9146 C.ar    1  UNL1        0.0001
     10 C         -22.2302    1.9089   27.8723 C.ar    1  UNL1        0.0000
     11 C         -24.5538    1.4700   27.7617 C.ar    1  UNL1        0.0000
     12 C         -23.4471    2.1666   27.3764 C.ar    1  UNL1        0.0000
     13 C         -28.9783   -2.7708   30.2578 C.2     1  UNL1        0.2690
     14 N         -30.0952   -2.3380   30.2543 N.am    1  UNL1       -0.1754
     15 O         -28.7418   -3.9507   30.7117 O.2     1  UNL1       -0.2680
     16 C         -31.3151   -3.1062   30.6380 C.ar    1  UNL1        0.0737
     17 C         -32.3242   -2.6156   30.8335 C.ar    1  UNL1        0.0166
     18 C         -33.1953   -3.0480   31.7197 C.ar    1  UNL1        0.0013
     19 C         -33.0630   -4.4214   32.1762 C.ar    1  UNL1        0.0001
     20 C         -31.8780   -5.0654   31.9058 C.ar    1  UNL1        0.0013
     21 C         -30.9296   -4.3865   31.2426 C.ar    1  UNL1        0.0166
@<TRIPOS>BOND
     1     3     4    1
     2     7    13    1
     3    13    14   am
     4    13    15    2
     5    14    16    1
     6     1     2   ar
     7     2     3   ar
     8     3     9   ar
     9     9     8   ar
    10     8     7   ar
    11     7     1   ar
    12     4     5   ar
    13     5     6   ar
    14     6    10   ar
    15    10    12   ar
    16    12    11   ar
    17    11     4   ar
    18    16    17   ar
    19    17    18   ar
    20    18    19   ar
    21    19    20   ar
    22    20    21   ar
    23    21    16   ar
