@<TRIPOS>MOLECULE
No_1945-gen_results/8p0m/2024-11-26-14-13-15/
 22 24 0 0 0
SMALL
GASTEIGER

@<TRIPOS>ATOM
      1 C         -28.0162   -0.8135   28.8779 C.ar    1  UNL1        0.0006
      2 C         -28.4690   -0.7850   29.8287 C.ar    1  UNL1        0.0551
      3 C         -26.5042   -0.7777   28.8766 C.ar    1  UNL1       -0.0183
      4 C         -25.6540   -0.6597   27.7191 C.3     1  UNL1        0.0449
      5 C         -27.9180   -0.9374   31.1824 C.ar    1  UNL1        0.0046
      6 C         -26.5423   -0.9399   31.2606 C.ar    1  UNL1       -0.0002
      7 C         -25.7832   -0.8935   30.1201 C.ar    1  UNL1       -0.0040
      8 C         -25.9259    0.2819   26.7445 C.2     1  UNL1       -0.0221
      9 C         -24.9904    0.6776   25.8676 C.2     1  UNL1       -0.0049
     10 C         -23.7384    0.8728   26.1995 C.2     1  UNL1       -0.0085
     11 C         -23.2768    0.4338   27.4818 C.2     1  UNL1       -0.0402
     12 C         -24.5414   -1.3753   27.4735 C.3     1  UNL1        0.0171
     13 C         -23.7110   -0.2114   28.3710 C.3     1  UNL1        0.0409
     14 C         -23.1631   -0.5454   29.6285 C.2     1  UNL1       -0.0224
     15 C         -24.3710   -0.7901   30.3259 C.2     1  UNL1       -0.0046
     16 C         -21.7621    1.0926   27.7319 C.3     1  UNL1        0.0267
     17 C         -30.0621   -0.8414   29.8457 C.2     1  UNL1        0.2690
     18 O         -30.7381   -1.6609   30.2975 O.2     1  UNL1       -0.2680
     19 N         -30.5829    0.0076   28.8433 N.am    1  UNL1       -0.1745
     20 C         -31.6721    0.2521   28.5652 C.2     1  UNL1        0.0844
     21 C         -31.9602    0.8314   27.4692 C.2     1  UNL1       -0.0079
     22 C         -33.0813    1.1031   26.8848 C.3     1  UNL1        0.0321
@<TRIPOS>BOND
     1     3     4    1
     2     4     8    1
     3     8     9    2
     4     9    10    1
     5    10    11    2
     6     4    12    1
     7    11    13    1
     8    12    13    1
     9    13    14    1
    10     7    15    1
    11    14    15    2
    12    11    16    1
    13     2    17    1
    14    17    18    2
    15    17    19   am
    16    19    20    1
    17    20    21    2
    18    21    22    1
    19     1     2   ar
    20     2     5   ar
    21     5     6   ar
    22     6     7   ar
    23     7     3   ar
    24     3     1   ar
