@<TRIPOS>MOLECULE
No_1946-gen_results/8p0m/2024-11-26-14-13-15/
 14 14 0 0 0
SMALL
GASTEIGER

@<TRIPOS>ATOM
      1 C         -28.0162   -0.8135   28.8779 C.3     1  UNL1        0.2086
      2 C         -27.0636   -0.1189   28.6079 C.ar    1  UNL1        0.0106
      3 C         -25.7647   -0.3897   29.0360 C.ar    1  UNL1       -0.0017
      4 C         -24.5516    0.4058   28.7646 C.ar    1  UNL1       -0.0003
      5 C         -24.6957    1.4480   27.7988 C.ar    1  UNL1       -0.0003
      6 C         -25.9755    1.7250   27.3077 C.ar    1  UNL1       -0.0003
      7 C         -27.0718    1.0134   27.6535 C.ar    1  UNL1       -0.0017
      8 O         -28.4888   -0.6099   30.0449 O.3     1  UNL1       -0.2152
      9 C         -23.4909    2.1742   27.4783 C.2     1  UNL1       -0.0046
     10 C         -22.3120    1.5920   27.2338 C.2     1  UNL1       -0.0261
     11 C         -21.9049    0.5669   28.1658 C.3     1  UNL1        0.0260
     12 C         -22.6914   -0.0003   29.0928 C.3     1  UNL1        0.0043
     13 C         -22.6411   -1.1516   29.8686 C.3     1  UNL1        0.0003
     14 C         -22.6626    0.9396   30.4788 C.3     1  UNL1        0.0003
@<TRIPOS>BOND
     1     1     8    1
     2     5     9    1
     3     9    10    2
     4    10    11    1
     5    11    12    1
     6    12    13    1
     7    12    14    1
     8     1     2    1
     9     2     3   ar
    10     3     4   ar
    11     4     5   ar
    12     5     6   ar
    13     6     7   ar
    14     7     2   ar
