@<TRIPOS>MOLECULE
No_1949-gen_results/8p0m/2024-11-26-14-13-15/
 12 13 0 0 0
SMALL
GASTEIGER

@<TRIPOS>ATOM
      1 C         -28.0162   -0.8135   28.8779 C.ar    1  UNL1        0.0000
      2 C         -27.0636   -0.1189   28.6079 C.ar    1  UNL1        0.0000
      3 C         -26.9716    0.7139   27.5060 C.ar    1  UNL1        0.0000
      4 C         -28.1053    0.7744   26.6421 C.ar    1  UNL1        0.0000
      5 C         -29.2041    0.1179   27.0477 C.ar    1  UNL1        0.0000
      6 C         -29.2127   -0.6088   28.1281 C.ar    1  UNL1        0.0000
      7 C         -25.7106    1.4519   27.1380 C.ar    1  UNL1        0.0000
      8 C         -24.6052    0.9253   27.6902 C.ar    1  UNL1        0.0000
      9 C         -23.3087    1.6018   27.4923 C.ar    1  UNL1        0.0000
     10 C         -23.2169    2.4959   26.4391 C.ar    1  UNL1        0.0000
     11 C         -25.5553    2.4208   26.1832 C.ar    1  UNL1        0.0000
     12 C         -24.3322    3.0724   25.9239 C.ar    1  UNL1        0.0000
@<TRIPOS>BOND
     1     3     7    1
     2     7     8   ar
     3     8     9   ar
     4     9    10   ar
     5    10    12   ar
     6    12    11   ar
     7    11     7   ar
     8     1     2   ar
     9     2     3   ar
    10     3     4   ar
    11     4     5   ar
    12     5     6   ar
    13     6     1   ar
