@<TRIPOS>MOLECULE
No_1950-gen_results/8p0m/2024-11-26-14-13-15/
 11 12 0 0 0
SMALL
GASTEIGER

@<TRIPOS>ATOM
      1 C         -28.0162   -0.8135   28.8779 C.ar    1  UNL1       -0.0003
      2 C         -28.4690   -0.7850   29.8287 C.ar    1  UNL1       -0.0043
      3 C         -27.1356    0.2359   28.5352 C.ar    1  UNL1       -0.0000
      4 C         -26.3351    0.2900   27.2835 C.ar    1  UNL1       -0.0000
      5 C         -28.3692    0.1957   30.9236 C.ar    1  UNL1       -0.0218
      6 C         -29.0527    0.1733   32.1679 C.3     1  UNL1        0.0310
      7 C         -25.3339    1.1767   27.1512 C.ar    1  UNL1       -0.0000
      8 C         -24.9890    2.0908   28.1533 C.ar    1  UNL1       -0.0000
      9 C         -25.6449    2.0219   29.3262 C.ar    1  UNL1       -0.0000
     10 C         -26.5955    1.1094   29.5635 C.ar    1  UNL1       -0.0003
     11 C         -27.3162    1.0876   30.7137 C.ar    1  UNL1       -0.0043
@<TRIPOS>BOND
     1     5     6    1
     2     3     4   ar
     3     4     7   ar
     4     7     8   ar
     5     8     9   ar
     6     9    10   ar
     7     1     2   ar
     8     2     5   ar
     9     5    11   ar
    10    11    10   ar
    11    10     3   ar
    12     3     1   ar
