@<TRIPOS>MOLECULE
No_1952-gen_results/8p0m/2024-11-26-14-13-15/
 23 24 0 0 0
SMALL
GASTEIGER

@<TRIPOS>ATOM
      1 C         -28.0162   -0.8135   28.8779 C.ar    1  UNL1        0.0134
      2 C         -27.0636   -0.1189   28.6079 C.ar    1  UNL1        0.0558
      3 C         -26.9287    1.1713   29.0083 C.ar    1  UNL1        0.0161
      4 C         -27.9560    1.7411   29.7840 C.ar    1  UNL1        0.0282
      5 C         -29.0569   -0.3271   29.7466 C.ar    1  UNL1        0.0305
      6 C         -28.9828    0.9722   30.1516 C.ar    1  UNL1        0.1399
      7 CL        -25.7352   -0.7297   27.6631 Cl      1  UNL1       -0.0825
      8 F         -29.9721    1.4269   30.9344 F       1  UNL1       -0.2042
      9 C         -25.6262    1.7874   28.5774 C.3     1  UNL1        0.1639
     10 N         -25.3443    2.1642   27.4031 N.am    1  UNL1       -0.2686
     11 C         -24.1349    2.3923   26.9440 C.2     1  UNL1        0.2307
     12 C         -23.1007    1.5190   27.0957 C.3     1  UNL1        0.1138
     13 C         -23.0196    0.6782   28.1639 C.ar    1  UNL1        0.0144
     14 C         -22.0517    0.9567   29.0998 C.ar    1  UNL1       -0.0016
     15 C         -22.0922   -0.0143   30.2494 C.ar    1  UNL1       -0.0002
     16 C         -23.1989   -0.9426   30.4001 C.ar    1  UNL1        0.0023
     17 C         -23.9840   -1.1700   29.4301 C.ar    1  UNL1        0.0293
     18 C         -23.9421   -0.3125   28.3133 C.ar    1  UNL1        0.1366
     19 F         -23.3447   -0.5022   27.1410 F       1  UNL1       -0.2045
     20 C         -26.4568    2.3062   26.4937 C.3     1  UNL1        0.1155
     21 C         -24.9431    2.5327   29.7626 C.2     1  UNL1        0.2315
     22 O         -24.0101    3.5628   26.2908 O.2     1  UNL1       -0.2745
     23 O         -24.6426    3.4879   29.8326 O.2     1  UNL1       -0.2861
@<TRIPOS>BOND
     1     2     7    1
     2     6     8    1
     3     3     9    1
     4     9    10    1
     5    10    11   am
     6    11    12    1
     7    12    13    1
     8    18    19    1
     9    10    20    1
    10     9    21    1
    11    11    22    2
    12    21    23    2
    13    13    14   ar
    14    14    15   ar
    15    15    16   ar
    16    16    17   ar
    17    17    18   ar
    18    18    13   ar
    19     1     2   ar
    20     2     3   ar
    21     3     4   ar
    22     4     6   ar
    23     6     5   ar
    24     5     1   ar
