@<TRIPOS>MOLECULE
No_1953-gen_results/8p0m/2024-11-26-14-13-15/
 31 34 0 0 0
SMALL
GASTEIGER

@<TRIPOS>ATOM
      1 C         -28.0162   -0.8135   28.8779 C.2     1  UNL1        0.2565
      2 C         -27.0636   -0.1189   28.6079 C.ar    1  UNL1        0.0542
      3 C         -26.9287    1.1713   29.0083 C.ar    1  UNL1        0.0047
      4 C         -25.7702    2.0341   28.6884 C.ar    1  UNL1        0.0067
      5 C         -24.7141    1.4431   27.9188 C.ar    1  UNL1        0.0798
      6 C         -24.8590    0.0783   27.5836 C.ar    1  UNL1        0.0067
      7 C         -25.9647   -0.6606   27.9164 C.ar    1  UNL1        0.0047
      8 N         -29.1701   -0.2984   28.9471 N.am    1  UNL1       -0.2339
      9 C         -30.1841   -0.8920   29.7048 C.ar    1  UNL1        0.0584
     10 C         -23.5181    2.1584   27.5785 C.2     1  UNL1        0.3878
     11 O         -23.3573    2.8456   26.8138 O.co2   1  UNL1       -0.2406
     12 O         -22.4575    1.8913   28.4673 O.co2   1  UNL1       -0.2406
     13 C         -31.5257   -0.6150   29.4589 C.ar    1  UNL1        0.0152
     14 C         -29.8662   -1.8617   30.7477 C.ar    1  UNL1        0.0152
     15 C         -30.9225   -2.6466   31.3088 C.ar    1  UNL1        0.0013
     16 C         -32.5308   -1.3442   30.1517 C.ar    1  UNL1        0.0013
     17 C         -32.2033   -2.2883   31.0903 C.ar    1  UNL1        0.0001
     18 O         -27.8585   -1.9744   29.3820 O.2     1  UNL1       -0.2692
     19 C         -29.6016    0.8788   28.2306 C.ar    1  UNL1        0.0583
     20 C         -29.6505    2.1130   28.8015 C.ar    1  UNL1        0.0154
     21 C         -30.0766    3.2161   28.1045 C.ar    1  UNL1        0.0069
     22 C         -30.4137    3.0436   26.7524 C.ar    1  UNL1        0.0679
     23 C         -29.9642    0.7058   26.9218 C.ar    1  UNL1        0.0142
     24 C         -29.9358   -0.5841   26.2834 C.ar    1  UNL1        0.0013
     25 C         -30.3454    1.8151   26.1339 C.ar    1  UNL1        0.0066
     26 C         -30.0929   -0.5557   24.8696 C.ar    1  UNL1        0.0000
     27 C         -30.6133    1.6582   24.8159 C.ar    1  UNL1        0.0002
     28 C         -30.5389    0.4536   24.1911 C.ar    1  UNL1        0.0000
     29 C         -30.8171    4.2441   26.0072 C.2     1  UNL1        0.3334
     30 O         -31.2884    4.1687   24.8430 O.2     1  UNL1       -0.2541
     31 F         -31.0042    5.2718   26.6396 F       1  UNL1       -0.1586
@<TRIPOS>BOND
     1     1     2    1
     2     1     8   am
     3     8     9    1
     4     5    10    1
     5    10    11   ar
     6    10    12   ar
     7     1    18    2
     8     8    19    1
     9    22    29    1
    10    29    30    2
    11    29    31    1
    12     2     3   ar
    13     3     4   ar
    14     4     5   ar
    15     5     6   ar
    16     6     7   ar
    17     7     2   ar
    18    19    20   ar
    19    20    21   ar
    20    21    22   ar
    21    22    25   ar
    22    23    19   ar
    23     9    13   ar
    24    13    16   ar
    25    16    17   ar
    26    17    15   ar
    27    15    14   ar
    28    14     9   ar
    29    23    24   ar
    30    24    26   ar
    31    26    28   ar
    32    28    27   ar
    33    27    25   ar
    34    25    23   ar
