@<TRIPOS>MOLECULE
No_1955-gen_results/8p0m/2024-11-26-14-13-15/
 14 15 0 0 0
SMALL
GASTEIGER

@<TRIPOS>ATOM
      1 C         -28.0162   -0.8135   28.8779 C.ar    1  UNL1        0.0000
      2 C         -28.4690   -0.7850   29.8287 C.ar    1  UNL1        0.0000
      3 C         -26.5042   -0.7777   28.8766 C.ar    1  UNL1        0.0000
      4 C         -25.6540   -0.6597   27.7191 C.ar    1  UNL1        0.0000
      5 C         -29.9920   -0.8134   29.9579 C.ar    1  UNL1        0.0000
      6 C         -24.8930    0.2971   27.6171 C.ar    1  UNL1        0.0016
      7 C         -24.1110    0.7916   28.7509 C.ar    1  UNL1        0.0210
      8 C         -24.7189    0.4920   29.9976 C.ar    1  UNL1        0.0016
      9 C         -25.9026   -0.2233   30.0386 C.ar    1  UNL1        0.0000
     10 C         -30.5622   -0.8660   28.7635 C.ar    1  UNL1        0.0000
     11 C         -29.9311   -0.6368   27.6046 C.ar    1  UNL1        0.0000
     12 C         -28.5720   -0.5855   27.6153 C.ar    1  UNL1        0.0000
     13 C         -22.8899    1.5410   28.6025 C.2     1  UNL1        0.1221
     14 N         -22.5345    2.0018   27.3614 N.2     1  UNL1       -0.1464
@<TRIPOS>BOND
     1     7    13    1
     2    13    14    2
     3     3     1    1
     4     3     4   ar
     5     4     6   ar
     6     6     7   ar
     7     7     8   ar
     8     8     9   ar
     9     9     3   ar
    10     1     2   ar
    11     2     5   ar
    12     5    10   ar
    13    10    11   ar
    14    11    12   ar
    15    12     1   ar
