@<TRIPOS>MOLECULE
No_1956-gen_results/8p0m/2024-11-26-14-13-15/
 17 18 0 0 0
SMALL
GASTEIGER

@<TRIPOS>ATOM
      1 O         -28.1229   -1.3353   28.4874 O.2     1  UNL1       -0.2719
      2 C         -27.4806   -0.4044   28.7094 C.2     1  UNL1        0.2583
      3 C         -27.1904    0.2460   29.5268 C.3     1  UNL1        0.2365
      4 N         -26.6871   -0.0001   27.4423 N.am    1  UNL1       -0.2773
      5 F         -27.8781    0.0301   30.6683 F       1  UNL1       -0.2274
      6 C         -26.8841   -0.4582   26.2325 C.3     1  UNL1        0.0938
      7 C         -26.2276    1.3912   29.8154 C.3     1  UNL1        0.0466
      8 C         -25.5682    1.8881   28.7210 C.3     1  UNL1        0.0248
      9 C         -25.6737    1.1189   27.4617 C.3     1  UNL1        0.0936
     10 C         -27.6453    0.3475   25.3648 C.3     1  UNL1        0.0262
     11 C         -28.9504    0.5721   25.7158 C.3     1  UNL1        0.0281
     12 C         -29.7019    1.3442   24.7828 C.ar    1  UNL1       -0.0221
     13 C         -31.0582    1.6767   25.0692 C.ar    1  UNL1       -0.0043
     14 C         -31.9965    1.4611   24.1687 C.ar    1  UNL1       -0.0003
     15 C         -31.5874    1.5138   22.7408 C.ar    1  UNL1       -0.0000
     16 C         -30.2528    1.3699   22.5090 C.ar    1  UNL1       -0.0003
     17 C         -29.2983    1.2043   23.5264 C.ar    1  UNL1       -0.0043
@<TRIPOS>BOND
     1     1     2    2
     2     2     3    1
     3     2     4   am
     4     3     5    1
     5     4     6    1
     6     3     7    1
     7     7     8    1
     8     4     9    1
     9     6    10    1
    10    10    11    1
    11    11    12    1
    12     8     9    1
    13    12    13   ar
    14    13    14   ar
    15    14    15   ar
    16    15    16   ar
    17    16    17   ar
    18    17    12   ar
