@<TRIPOS>MOLECULE
No_1958-gen_results/8p0m/2024-11-26-14-13-15/
 21 22 0 0 0
SMALL
GASTEIGER

@<TRIPOS>ATOM
      1 C         -28.0162   -0.8135   28.8779 C.ar    1  UNL1       -0.0039
      2 C         -28.4690   -0.7850   29.8287 C.ar    1  UNL1       -0.0003
      3 C         -26.5455   -0.8762   28.8500 C.ar    1  UNL1       -0.0178
      4 C         -25.6825   -0.7773   27.6829 C.3     1  UNL1        0.0526
      5 C         -27.9181   -1.0034   31.1877 C.ar    1  UNL1       -0.0000
      6 C         -26.5308   -1.0794   31.2463 C.ar    1  UNL1       -0.0003
      7 C         -25.7798   -1.0462   30.0905 C.ar    1  UNL1       -0.0039
      8 C         -25.8977    0.2387   26.7449 C.2     1  UNL1       -0.0178
      9 C         -24.9256    0.7629   26.0322 C.2     1  UNL1       -0.0039
     10 C         -24.2472    1.7995   26.1605 C.2     1  UNL1       -0.0003
     11 C         -23.4716    2.1101   27.2386 C.2     1  UNL1       -0.0003
     12 C         -23.7765    1.5700   28.3802 C.2     1  UNL1       -0.0046
     13 C         -22.7518    1.5971   29.4889 C.2     1  UNL1       -0.0261
     14 C         -27.1906    0.8381   26.6399 C.ar    1  UNL1       -0.0036
     15 C         -28.0904    0.4652   25.6312 C.ar    1  UNL1       -0.0003
     16 C         -29.3590    0.9922   25.5159 C.ar    1  UNL1       -0.0000
     17 C         -29.8356    1.8623   26.4666 C.ar    1  UNL1       -0.0000
     18 C         -29.0078    2.2787   27.5087 C.ar    1  UNL1       -0.0000
     19 C         -27.7243    1.7814   27.6446 C.ar    1  UNL1       -0.0003
     20 C         -22.4270    0.2199   29.7456 C.3     1  UNL1        0.0260
     21 C         -22.2053   -0.6594   28.7426 C.3     1  UNL1        0.0050
@<TRIPOS>BOND
     1     3     4    1
     2     4     8    1
     3     8     9    2
     4     9    10    1
     5    10    11    2
     6    11    12    1
     7    12    13    2
     8     8    14    1
     9    13    20    1
    10    20    21    1
    11    14    15   ar
    12    15    16   ar
    13    16    17   ar
    14    17    18   ar
    15    18    19   ar
    16    19    14   ar
    17     1     2   ar
    18     2     5   ar
    19     5     6   ar
    20     6     7   ar
    21     7     3   ar
    22     3     1   ar
