@<TRIPOS>MOLECULE
No_196-gen_results/8p0m/2024-11-26-14-13-15/
 35 38 0 0 0
SMALL
GASTEIGER

@<TRIPOS>ATOM
      1 C         -28.0162   -0.8135   28.8779 C.3     1  UNL1        0.0266
      2 C         -27.0636   -0.1189   28.6079 C.ar    1  UNL1       -0.0237
      3 C         -25.7647   -0.3897   29.0360 C.ar    1  UNL1        0.0065
      4 C         -24.5517    0.4058   28.7646 C.ar    1  UNL1        0.0045
      5 C         -24.6957    1.4480   27.7988 C.ar    1  UNL1        0.0795
      6 C         -26.0010    1.6784   27.2965 C.ar    1  UNL1        0.0062
      7 C         -27.0736    0.9682   27.6500 C.ar    1  UNL1       -0.0043
      8 C         -28.6416   -0.4618   30.2155 C.3     1  UNL1        0.0138
      9 C         -29.7677   -1.2518   30.6953 C.3     1  UNL1        0.0792
     10 C         -23.5034    2.1858   27.4595 C.2     1  UNL1        0.3877
     11 O         -23.6127    3.1203   26.6374 O.co2   1  UNL1       -0.2406
     12 O         -22.2494    1.6972   27.6334 O.co2   1  UNL1       -0.2406
     13 C         -30.0776   -2.2915   29.9597 C.2     1  UNL1        0.2410
     14 N         -29.5636   -3.1329   29.6889 N.am    1  UNL1       -0.2027
     15 O         -31.2692   -2.1486   29.2829 O.2     1  UNL1       -0.2734
     16 C         -28.3704   -3.5777   30.5432 C.3     1  UNL1        0.1471
     17 C         -27.3913   -4.5465   29.8046 C.3     1  UNL1        0.1656
     18 C         -29.5896   -1.6361   32.2042 C.3     1  UNL1        0.0179
     19 C         -29.6089   -0.4904   33.0633 C.3     1  UNL1        0.0450
     20 C         -30.3662    0.5103   32.7817 C.ar    1  UNL1       -0.0184
     21 C         -31.6246    0.4335   32.6908 C.ar    1  UNL1       -0.0040
     22 C         -32.4946    1.5358   32.3476 C.ar    1  UNL1       -0.0003
     23 C         -31.8632    2.7709   32.1120 C.ar    1  UNL1       -0.0000
     24 C         -30.5019    2.9364   32.2342 C.ar    1  UNL1       -0.0003
     25 C         -29.7265    1.8599   32.5655 C.ar    1  UNL1       -0.0040
     26 C         -28.7494   -0.5306   34.2116 C.ar    1  UNL1       -0.0184
     27 O         -26.1708   -4.3016   29.9602 O.3     1  UNL1       -0.3488
     28 C         -25.7726   -3.0791   29.5181 C.3     1  UNL1        0.1795
     29 C         -25.6371   -1.6917   29.3697 C.3     1  UNL1        0.2034
     30 O         -24.1989   -1.6439   30.0438 O.3     1  UNL1       -0.2156
     31 C         -27.4817   -0.0922   34.2100 C.ar    1  UNL1       -0.0040
     32 C         -26.6178   -0.3514   35.2429 C.ar    1  UNL1       -0.0003
     33 C         -29.3215   -0.9321   35.4510 C.ar    1  UNL1       -0.0040
     34 C         -28.5044   -1.0888   36.5779 C.ar    1  UNL1       -0.0003
     35 C         -27.1324   -0.7839   36.4889 C.ar    1  UNL1       -0.0000
@<TRIPOS>BOND
     1     1     8    1
     2     8     9    1
     3     5    10    1
     4    10    11   ar
     5    10    12   ar
     6     9    13    1
     7    13    14   am
     8    13    15    2
     9    14    16    1
    10    16    17    1
    11     9    18    1
    12    18    19    1
    13    19    20    1
    14    19    26    1
    15    17    27    1
    16    27    28    1
    17     3    29    1
    18    28    29    1
    19    29    30    1
    20     1     2    1
    21     2     3   ar
    22     3     4   ar
    23     4     5   ar
    24     5     6   ar
    25     6     7   ar
    26     7     2   ar
    27    20    21   ar
    28    21    22   ar
    29    22    23   ar
    30    23    24   ar
    31    24    25   ar
    32    25    20   ar
    33    26    31   ar
    34    31    32   ar
    35    32    35   ar
    36    35    34   ar
    37    34    33   ar
    38    33    26   ar
