@<TRIPOS>MOLECULE
No_1960-gen_results/8p0m/2024-11-26-14-13-15/
 7 6 0 0 0
SMALL
GASTEIGER

@<TRIPOS>ATOM
      1 O         -28.1229   -1.3353   28.4874 O.2     1  UNL1       -0.2551
      2 C         -27.4806   -0.4044   28.7094 C.2     1  UNL1        0.3262
      3 CL        -26.3236    0.0606   27.9744 Cl      1  UNL1       -0.0208
      4 N         -27.7660    0.3703   29.9529 N.am    1  UNL1       -0.1868
      5 C         -27.0563    1.5189   30.3300 C.3     1  UNL1        0.1424
      6 C         -25.8823    1.7048   30.2940 C.2     1  UNL1       -0.0028
      7 C         -24.9451    1.4559   29.1251 C.2     1  UNL1       -0.0031
@<TRIPOS>BOND
     1     1     2    2
     2     2     3    1
     3     2     4   am
     4     4     5    1
     5     5     6    1
     6     6     7    2
