@<TRIPOS>MOLECULE
No_1961-gen_results/8p0m/2024-11-26-14-13-15/
 13 13 0 0 0
SMALL
GASTEIGER

@<TRIPOS>ATOM
      1 C         -28.0162   -0.8135   28.8779 C.2     1  UNL1        0.0006
      2 C         -27.0636   -0.1189   28.6079 C.2     1  UNL1       -0.0460
      3 C         -26.9716    0.7139   27.5060 C.3     1  UNL1        0.0221
      4 C         -25.8205    1.4909   27.1160 C.3     1  UNL1        0.0128
      5 C         -24.8579    1.3421   27.6008 C.3     1  UNL1        0.0958
      6 C         -24.6224    0.5295   28.8144 C.3     1  UNL1        0.0128
      7 C         -25.7344   -0.1811   29.1908 C.3     1  UNL1        0.0221
      8 C         -28.6330   -0.4621   30.2455 C.3     1  UNL1        0.2077
      9 O         -29.4914   -1.3109   30.7638 O.3     1  UNL1       -0.2152
     10 C         -23.5138    2.1529   27.3010 C.3     1  UNL1        0.3975
     11 F         -23.4963    2.6224   26.1749 F       1  UNL1       -0.1701
     12 F         -23.2503    3.1225   28.2151 F       1  UNL1       -0.1701
     13 F         -22.3635    1.3562   27.3424 F       1  UNL1       -0.1701
@<TRIPOS>BOND
     1     1     2    2
     2     2     3    1
     3     3     4    1
     4     4     5    1
     5     5     6    1
     6     2     7    1
     7     6     7    1
     8     1     8    1
     9     8     9    1
    10     5    10    1
    11    10    11    1
    12    10    12    1
    13    10    13    1
