@<TRIPOS>MOLECULE
No_1962-gen_results/8p0m/2024-11-26-14-13-15/
 17 18 0 0 0
SMALL
GASTEIGER

@<TRIPOS>ATOM
      1 C         -28.0162   -0.8135   28.8779 C.ar    1  UNL1       -0.0018
      2 C         -28.4690   -0.7850   29.8287 C.ar    1  UNL1       -0.0002
      3 C         -27.0871    0.2903   28.6377 C.ar    1  UNL1        0.0070
      4 C         -26.2516    0.4114   27.4223 C.3     1  UNL1        0.1035
      5 C         -28.3141   -0.1267   30.7102 C.ar    1  UNL1        0.0008
      6 C         -27.4825    1.0076   30.8097 C.ar    1  UNL1        0.0111
      7 C         -26.7770    1.1718   29.6871 C.ar    1  UNL1        0.0553
      8 N         -25.0454    0.2584   27.5853 N.3     1  UNL1       -0.2682
      9 C         -24.0868    1.1603   27.0311 C.3     1  UNL1        0.0581
     10 C         -22.7254    1.1273   27.5607 C.3     1  UNL1        0.0160
     11 C         -22.4078    0.0981   28.4594 C.3     1  UNL1        0.0028
     12 C         -23.3722   -0.7894   28.9243 C.3     1  UNL1        0.0174
     13 C         -24.6199   -0.7067   28.5125 C.3     1  UNL1        0.0726
     14 C         -26.8667    0.5914   26.1640 C.2     1  UNL1       -0.0060
     15 CL        -25.7065    2.4470   29.5201 Cl      1  UNL1       -0.0825
     16 C         -24.4092    2.1947   26.1433 C.3     1  UNL1        0.0174
     17 C         -27.7760    0.2446   25.8275 C.2     1  UNL1       -0.0032
@<TRIPOS>BOND
     1     3     4    1
     2     4     8    1
     3     8     9    1
     4    10    11    1
     5     8    13    1
     6    12    13    1
     7     4    14    1
     8     7    15    1
     9     9    16    1
    10    14    17    2
    11     9    10    1
    12    11    12    1
    13     1     2   ar
    14     2     5   ar
    15     5     6   ar
    16     6     7   ar
    17     7     3   ar
    18     3     1   ar
