@<TRIPOS>MOLECULE
No_1963-gen_results/8p0m/2024-11-26-14-13-15/
 22 24 0 0 0
SMALL
GASTEIGER

@<TRIPOS>ATOM
      1 C         -28.0162   -0.8135   28.8779 C.ar    1  UNL1       -0.0180
      2 C         -28.4690   -0.7850   29.8287 C.ar    1  UNL1       -0.0041
      3 C         -28.1816    0.4277   28.1134 C.3     1  UNL1        0.0602
      4 C         -27.4498    0.6435   26.8500 C.2     1  UNL1        0.0727
      5 C         -26.4529    0.9939   26.6681 C.2     1  UNL1        0.1398
      6 C         -25.5854    1.7326   27.3469 C.2     1  UNL1        0.0367
      7 C         -24.5653    1.6483   27.8436 C.2     1  UNL1        0.0031
      8 C         -23.8425    0.4741   28.0655 C.ar    1  UNL1        0.0001
      9 C         -22.5577    0.3692   28.6730 C.ar    1  UNL1        0.0000
     10 C         -28.2448   -1.9656   30.8564 C.ar    1  UNL1       -0.0003
     11 C         -27.4993   -2.9793   30.3292 C.ar    1  UNL1       -0.0002
     12 C         -26.6409   -2.8341   29.3229 C.ar    1  UNL1       -0.0010
     13 C         -26.8618   -1.6423   28.5711 C.ar    1  UNL1        0.0175
     14 C         -28.4156    0.3515   25.7150 C.2     1  UNL1        0.2834
     15 O         -29.5535    0.1197   25.8037 O.2     1  UNL1       -0.2669
     16 N         -27.9339    0.6798   24.4551 N.am    1  UNL1       -0.0839
     17 C         -22.3269   -0.5865   29.6146 C.ar    1  UNL1        0.0000
     18 C         -23.2649   -1.6723   29.6906 C.ar    1  UNL1        0.0000
     19 C         -24.1224   -1.9661   28.7319 C.ar    1  UNL1        0.0000
     20 C         -24.6634   -0.7043   28.1857 C.ar    1  UNL1        0.0000
     21 C         -26.0233   -0.7928   28.0538 C.3     1  UNL1        0.2317
     22 O         -26.1154   -0.4551   26.9808 O.2     1  UNL1       -0.4708
@<TRIPOS>BOND
     1     3     4    1
     2     4     5    2
     3     5     6    1
     4     6     7    2
     5     7     8    1
     6     4    14    1
     7    14    15    2
     8    14    16   am
     9    13    21    1
    10     5    22    1
    11    21    22    1
    12     3     1    1
    13     1     2   ar
    14     2    10   ar
    15    10    11   ar
    16    11    12   ar
    17    12    13   ar
    18    13     1   ar
    19     8     9   ar
    20     9    17   ar
    21    17    18   ar
    22    18    19   ar
    23    19    20   ar
    24    20     8   ar
