@<TRIPOS>MOLECULE
No_1964-gen_results/8p0m/2024-11-26-14-13-15/
 29 31 0 0 0
SMALL
GASTEIGER

@<TRIPOS>ATOM
      1 C         -28.0162   -0.8135   28.8779 C.3     1  UNL1        0.1422
      2 C         -27.0636   -0.1189   28.6079 C.ar    1  UNL1        0.0058
      3 C         -27.0010    0.6913   27.4910 C.ar    1  UNL1        0.0775
      4 C         -25.7770    1.0214   26.9135 C.ar    1  UNL1        0.0060
      5 C         -24.6982    0.6762   27.4835 C.ar    1  UNL1       -0.0038
      6 C         -24.6104   -0.1076   28.6413 C.ar    1  UNL1       -0.0006
      7 C         -25.8358   -0.5515   29.0863 C.ar    1  UNL1       -0.0024
      8 N         -28.6442   -0.5434   30.0547 N.am    1  UNL1       -0.1929
      9 C         -29.6043   -1.3007   30.6375 C.2     1  UNL1        0.3190
     10 O         -30.0855   -2.2131   30.1201 O.2     1  UNL1       -0.2634
     11 C         -30.0763   -0.8102   32.0275 C.2     1  UNL1        0.3044
     12 C         -23.3208    1.2613   26.9965 C.ar    1  UNL1       -0.0218
     13 C         -22.2090    1.2198   27.8678 C.ar    1  UNL1       -0.0043
     14 C         -22.2364    0.3152   28.9232 C.ar    1  UNL1       -0.0003
     15 C         -23.4064   -0.2928   29.3547 C.ar    1  UNL1       -0.0000
     16 O         -29.8263    0.1795   32.4687 O.2     1  UNL1       -0.2649
     17 N         -30.5047   -1.8674   32.8098 N.am    1  UNL1       -0.2720
     18 C         -23.2931    2.2449   25.9133 C.3     1  UNL1        0.0310
     19 C         -30.9707   -1.5931   34.1971 C.3     1  UNL1        0.0939
     20 C         -28.2680    1.0193   26.7713 C.2     1  UNL1        0.3875
     21 O         -28.3734    1.1568   25.6478 O.co2   1  UNL1       -0.2406
     22 O         -29.1785    1.5921   27.5395 O.co2   1  UNL1       -0.2406
     23 C         -31.9844   -1.6262   34.3530 C.3     1  UNL1        0.0219
     24 C         -32.9767   -1.9685   33.5922 C.3     1  UNL1        0.0078
     25 C         -32.6547   -2.4437   32.3650 C.3     1  UNL1        0.0416
     26 C         -31.7614   -2.4175   32.0924 C.3     1  UNL1        0.0981
     27 C         -33.8059   -2.9545   31.4964 C.2     1  UNL1       -0.0293
     28 C         -34.9687   -2.7107   31.6275 C.2     1  UNL1       -0.0303
     29 C         -35.9613   -3.1566   30.7782 C.3     1  UNL1        0.0303
@<TRIPOS>BOND
     1     1     2    1
     2     1     8    1
     3     8     9   am
     4     9    10    2
     5     9    11    1
     6    11    16    2
     7    11    17   am
     8    12    18    1
     9    17    19    1
    10     3    20    1
    11    20    21   ar
    12    20    22   ar
    13    19    23    1
    14    24    25    1
    15    17    26    1
    16    25    26    1
    17    25    27    1
    18    27    28    2
    19    28    29    1
    20    23    24    1
    21     6    15   ar
    22    15    14   ar
    23    14    13   ar
    24    13    12   ar
    25    12     5   ar
    26     2     3   ar
    27     3     4   ar
    28     4     5   ar
    29     5     6   ar
    30     6     7   ar
    31     7     2   ar
