@<TRIPOS>MOLECULE
No_1966-gen_results/8p0m/2024-11-26-14-13-15/
 27 30 0 0 0
SMALL
GASTEIGER

@<TRIPOS>ATOM
      1 C         -28.0162   -0.8135   28.8779 C.ar    1  UNL1        0.0415
      2 C         -27.0636   -0.1190   28.6079 C.ar    1  UNL1        0.1396
      3 N         -26.9515    1.1286   28.9566 N.ar    1  UNL1       -0.2138
      4 C         -28.7337   -0.4725   29.8920 C.ar    1  UNL1        0.0402
      5 C         -28.7882    0.7921   30.4274 C.ar    1  UNL1        0.0429
      6 C         -27.7538    1.5919   29.9804 C.ar    1  UNL1        0.1537
      7 BR        -30.1165   -1.7032   30.5016 Br      1  UNL1       -0.0488
      8 N         -26.1021   -0.4326   27.5695 N.am    1  UNL1       -0.2400
      9 C         -25.4804    0.4418   26.7506 C.2     1  UNL1        0.2536
     10 C         -24.2017    0.7425   27.1376 C.ar    1  UNL1        0.0531
     11 C         -23.3771    0.2765   28.1159 C.ar    1  UNL1        0.0031
     12 C         -23.8588   -0.7119   28.9819 C.3     1  UNL1        0.0500
     13 C         -25.1610   -1.5073   28.0280 C.3     1  UNL1        0.1046
     14 C         -22.1344    0.8264   28.5121 C.ar    1  UNL1        0.0948
     15 N         -21.6381    1.7963   27.6260 N.ar    1  UNL1       -0.2426
     16 C         -23.5785    2.0205   26.4628 C.ar    1  UNL1        0.0249
     17 C         -22.3231    2.4164   26.7494 C.ar    1  UNL1        0.0990
     18 O         -26.1129    0.7820   25.7806 O.2     1  UNL1       -0.2695
     19 N         -27.6252    2.9096   30.4339 N.pl3   1  UNL1       -0.1928
     20 C         -27.0163    3.8596   30.2589 C.2     1  UNL1        0.0873
     21 C         -26.1279    4.1007   29.3950 C.2     1  UNL1        0.0179
     22 C         -26.1642    5.1513   28.4403 C.ar    1  UNL1        0.0013
     23 C         -25.3950    5.1279   27.2606 C.ar    1  UNL1        0.0000
     24 C         -25.4616    6.2103   26.3772 C.ar    1  UNL1        0.0000
     25 C         -26.1007    7.4076   26.7997 C.ar    1  UNL1        0.0000
     26 C         -26.5657    6.5633   28.6872 C.ar    1  UNL1        0.0000
     27 C         -26.5983    7.5784   27.9717 C.ar    1  UNL1        0.0000
@<TRIPOS>BOND
     1     4     7    1
     2     2     8    1
     3     8     9   am
     4     9    10    1
     5    11    12    1
     6     8    13    1
     7    12    13    1
     8     9    18    2
     9     6    19    1
    10    19    20    1
    11    20    21    2
    12    21    22    1
    13     1     2   ar
    14     2     3   ar
    15     3     6   ar
    16     6     5   ar
    17     5     4   ar
    18     4     1   ar
    19    22    23   ar
    20    23    24   ar
    21    24    25   ar
    22    25    27   ar
    23    27    26   ar
    24    26    22   ar
    25    10    16   ar
    26    16    17   ar
    27    17    15   ar
    28    15    14   ar
    29    14    11   ar
    30    11    10   ar
