@<TRIPOS>MOLECULE
No_1967-gen_results/8p0m/2024-11-26-14-13-15/
 28 31 0 0 0
SMALL
GASTEIGER

@<TRIPOS>ATOM
      1 C         -28.0162   -0.8135   28.8779 C.ar    1  UNL1       -0.0003
      2 C         -28.4690   -0.7850   29.8287 C.ar    1  UNL1       -0.0000
      3 C         -27.0871    0.2903   28.6377 C.ar    1  UNL1       -0.0034
      4 C         -26.8317    1.2487   29.5869 C.ar    1  UNL1       -0.0143
      5 C         -28.3914    0.0801   31.0065 C.ar    1  UNL1       -0.0003
      6 C         -27.4940    1.1521   30.7841 C.ar    1  UNL1       -0.0036
      7 C         -26.3109    0.3918   27.3640 C.ar    1  UNL1       -0.0003
      8 C         -26.7672    1.0252   26.3723 C.ar    1  UNL1       -0.0000
      9 C         -24.9987   -0.1757   27.3493 C.ar    1  UNL1       -0.0000
     10 C         -28.0335    1.5623   26.2719 C.ar    1  UNL1        0.0002
     11 C         -25.9517    1.0620   25.1066 C.ar    1  UNL1       -0.0000
     12 C         -24.5391    0.6447   25.1327 C.ar    1  UNL1       -0.0000
     13 C         -24.1737   -0.0386   26.2843 C.ar    1  UNL1       -0.0000
     14 C         -28.9236    1.1645   25.3608 C.ar    1  UNL1        0.0000
     15 C         -28.4436    2.6000   27.1803 C.ar    1  UNL1        0.0066
     16 C         -29.7593    2.9757   27.4087 C.ar    1  UNL1        0.0798
     17 C         -30.3153    1.4702   25.5450 C.ar    1  UNL1        0.0002
     18 C         -30.6658    2.4867   26.4409 C.ar    1  UNL1        0.0066
     19 C         -25.8547    2.3329   29.4415 C.3     1  UNL1        0.0661
     20 C         -26.2379    3.5970   29.6495 C.2     1  UNL1       -0.0177
     21 C         -25.4804    4.6825   29.0843 C.2     1  UNL1       -0.0039
     22 C         -24.8223    4.3616   27.8404 C.2     1  UNL1       -0.0003
     23 C         -24.2078    3.1058   27.6895 C.2     1  UNL1       -0.0003
     24 C         -24.3746    2.1983   29.7700 C.2     1  UNL1       -0.0177
     25 C         -23.8824    2.5204   28.7582 C.2     1  UNL1       -0.0039
     26 C         -30.1745    3.9686   28.3920 C.2     1  UNL1        0.3878
     27 O         -30.3179    3.4639   29.5819 O.co2   1  UNL1       -0.2406
     28 O         -30.3364    5.1279   28.1505 O.co2   1  UNL1       -0.2406
@<TRIPOS>BOND
     1     3     7    1
     2     8    10    1
     3     4    19    1
     4    19    20    1
     5    20    21    2
     6    21    22    1
     7    22    23    2
     8    19    24    1
     9    23    25    1
    10    24    25    2
    11    16    26    1
    12    26    27   ar
    13    26    28   ar
    14    10    14   ar
    15    14    17   ar
    16    17    18   ar
    17    18    16   ar
    18    16    15   ar
    19    15    10   ar
    20     7     8   ar
    21     8    11   ar
    22    11    12   ar
    23    12    13   ar
    24    13     9   ar
    25     9     7   ar
    26     1     2   ar
    27     2     5   ar
    28     5     6   ar
    29     6     4   ar
    30     4     3   ar
    31     3     1   ar
