@<TRIPOS>MOLECULE
No_1968-gen_results/8p0m/2024-11-26-14-13-15/
 18 20 0 0 0
SMALL
GASTEIGER

@<TRIPOS>ATOM
      1 C         -28.0162   -0.8135   28.8779 C.ar    1  UNL1        0.0045
      2 C         -28.4690   -0.7850   29.8287 C.ar    1  UNL1        0.0536
      3 C         -26.5455   -0.8762   28.8500 C.ar    1  UNL1        0.0001
      4 C         -25.8041   -1.0324   30.0571 C.ar    1  UNL1        0.0000
      5 C         -27.9437   -0.9869   31.2075 C.ar    1  UNL1        0.0045
      6 C         -26.5825   -1.0386   31.2231 C.ar    1  UNL1        0.0001
      7 C         -30.0606   -0.7371   29.9024 C.2     1  UNL1        0.2493
      8 O         -30.7252   -1.5544   30.2697 O.2     1  UNL1       -0.2699
      9 N         -30.5563    0.4242   29.3124 N.am    1  UNL1       -0.2716
     10 C         -31.9645    0.5638   29.1626 C.3     1  UNL1        0.1201
     11 C         -32.2853    1.2696   28.1337 C.ar    1  UNL1       -0.0062
     12 C         -33.4460    1.4316   27.6672 C.ar    1  UNL1       -0.0029
     13 C         -31.2909    2.2465   27.5624 C.ar    1  UNL1       -0.0228
     14 C         -29.8925    2.1500   27.8343 C.3     1  UNL1        0.0476
     15 C         -29.5810    1.1704   28.5962 C.3     1  UNL1        0.0987
     16 C         -33.8803    2.2152   26.6413 C.ar    1  UNL1       -0.0003
     17 C         -32.8796    3.1054   26.0602 C.ar    1  UNL1       -0.0003
     18 C         -31.6140    3.1115   26.4544 C.ar    1  UNL1       -0.0045
@<TRIPOS>BOND
     1     2     7    1
     2     7     8    2
     3     7     9   am
     4     9    10    1
     5    10    11    1
     6    13    14    1
     7     9    15    1
     8    14    15    1
     9    11    12   ar
    10    12    16   ar
    11    16    17   ar
    12    17    18   ar
    13    18    13   ar
    14    13    11   ar
    15     1     2   ar
    16     2     5   ar
    17     5     6   ar
    18     6     4   ar
    19     4     3   ar
    20     3     1   ar
