@<TRIPOS>MOLECULE
No_1970-gen_results/8p0m/2024-11-26-14-13-15/
 35 37 0 0 0
SMALL
GASTEIGER

@<TRIPOS>ATOM
      1 C         -28.0162   -0.8135   28.8779 C.ar    1  UNL1        0.0364
      2 C         -27.0636   -0.1189   28.6079 C.ar    1  UNL1        0.1434
      3 C         -26.9287    1.1713   29.0083 C.ar    1  UNL1        0.0671
      4 C         -27.9560    1.7411   29.7840 C.ar    1  UNL1        0.1479
      5 C         -29.0569   -0.3271   29.7466 C.ar    1  UNL1        0.0850
      6 C         -30.1704   -1.1582   30.1327 C.2     1  UNL1        0.3879
      7 C         -28.9772    0.9577   30.1786 C.ar    1  UNL1        0.0442
      8 O         -30.7874   -0.7994   31.1655 O.co2   1  UNL1       -0.2405
      9 O         -30.3771   -2.2469   29.5059 O.co2   1  UNL1       -0.2405
     10 F         -26.0057   -0.5866   27.8538 F       1  UNL1       -0.2041
     11 O         -27.8167    3.0492   30.1764 O.3     1  UNL1       -0.4503
     12 C         -27.2570    3.3149   31.3043 C.ar    1  UNL1        0.1795
     13 C         -25.9856    3.7473   31.2485 C.ar    1  UNL1        0.1795
     14 C         -25.1299    3.8812   32.4700 C.ar    1  UNL1        0.0407
     15 C         -25.7346    3.6998   33.6744 C.ar    1  UNL1        0.0033
     16 C         -27.0422    3.2765   33.7074 C.ar    1  UNL1        0.0033
     17 C         -27.7808    3.0645   32.5597 C.ar    1  UNL1        0.0407
     18 O         -25.3177    3.9650   30.0830 O.3     1  UNL1       -0.4507
     19 C         -24.7404    2.9899   29.3337 C.ar    1  UNL1        0.1412
     20 C         -24.3368    3.3249   27.9835 C.ar    1  UNL1        0.0127
     21 C         -23.6578    2.3401   27.1961 C.ar    1  UNL1       -0.0015
     22 C         -22.9983    1.2462   27.9080 C.ar    1  UNL1       -0.0027
     23 C         -23.1855    1.0705   29.2535 C.ar    1  UNL1        0.0006
     24 C         -23.9790    2.0017   29.9694 C.ar    1  UNL1        0.0346
     25 C         -22.5899   -0.0857   29.8920 C.3     1  UNL1        0.1179
     26 N         -23.1732   -1.1737   29.9402 N.pl3   1  UNL1       -0.3011
     27 C         -24.0948   -1.5607   30.8825 C.2     1  UNL1        0.0574
     28 C         -25.4062   -1.5486   30.6694 C.2     1  UNL1       -0.0050
     29 C         -26.3066   -1.7360   31.7695 C.3     1  UNL1        0.0633
     30 C         -27.7099   -1.8101   31.5260 C.2     1  UNL1        0.0395
     31 C         -28.2123   -2.2484   32.7134 C.1     1  UNL1       -0.0118
     32 N         -28.6813   -1.9205   33.5817 N.2     1  UNL1       -0.2268
     33 C         -29.1662   -2.6234   34.6937 C.3     1  UNL1        0.1625
     34 C         -23.1708   -2.0251   28.7518 C.3     1  UNL1        0.1125
     35 C         -25.0381    4.3886   27.2300 C.3     1  UNL1        0.0342
@<TRIPOS>BOND
     1     5     6    1
     2     6     8   ar
     3     6     9   ar
     4     2    10    1
     5     4    11    1
     6    11    12    1
     7    13    18    1
     8    18    19    1
     9    23    25    1
    10    25    26    1
    11    26    27    1
    12    27    28    2
    13    28    29    1
    14    29    30    1
    15    30    31    2
    16    31    32    2
    17    32    33    1
    18    26    34    1
    19    20    35    1
    20    12    13   ar
    21    13    14   ar
    22    14    15   ar
    23    15    16   ar
    24    16    17   ar
    25    17    12   ar
    26     1     2   ar
    27     2     3   ar
    28     3     4   ar
    29     4     7   ar
    30     7     5   ar
    31     5     1   ar
    32    19    20   ar
    33    20    21   ar
    34    21    22   ar
    35    22    23   ar
    36    23    24   ar
    37    24    19   ar
