@<TRIPOS>MOLECULE
No_1971-gen_results/8p0m/2024-11-26-14-13-15/
 14 15 0 0 0
SMALL
GASTEIGER

@<TRIPOS>ATOM
      1 O         -28.1229   -1.3353   28.4874 O.2     1  UNL1       -0.2744
      2 C         -27.4806   -0.4044   28.7094 C.2     1  UNL1        0.2322
      3 C         -26.3804   -0.0867   27.9394 C.3     1  UNL1        0.1137
      4 N         -27.4232    0.1749   30.0549 N.am    1  UNL1       -0.2479
      5 C         -25.8482    1.0048   27.9942 C.ar    1  UNL1        0.0147
      6 C         -24.7535    1.5238   27.1444 C.ar    1  UNL1        0.1364
      7 C         -23.8637    2.5487   27.5414 C.ar    1  UNL1        0.0293
      8 C         -24.2656    3.2471   28.6350 C.ar    1  UNL1        0.0021
      9 C         -25.2323    2.8399   29.5283 C.ar    1  UNL1       -0.0001
     10 C         -25.9250    1.7242   29.2559 C.ar    1  UNL1        0.0280
     11 C         -26.8472    1.2309   30.2163 C.3     1  UNL1        0.2624
     12 F         -27.0038    1.8465   31.3630 F       1  UNL1       -0.2096
     13 C         -28.5968   -0.2053   30.9224 C.3     1  UNL1        0.1177
     14 F         -24.4285    0.9132   26.0243 F       1  UNL1       -0.2045
@<TRIPOS>BOND
     1     1     2    2
     2     2     3    1
     3     2     4   am
     4     4    11    1
     5    10    11    1
     6    11    12    1
     7     4    13    1
     8     6    14    1
     9     3     5    1
    10     5     6   ar
    11     6     7   ar
    12     7     8   ar
    13     8     9   ar
    14     9    10   ar
    15    10     5   ar
