@<TRIPOS>MOLECULE
No_1972-gen_results/8p0m/2024-11-26-14-13-15/
 27 29 0 0 0
SMALL
GASTEIGER

@<TRIPOS>ATOM
      1 C         -28.0162   -0.8135   28.8779 C.ar    1  UNL1        0.0001
      2 C         -27.0636   -0.1190   28.6079 C.ar    1  UNL1        0.0293
      3 C         -25.7923   -0.4302   29.0761 C.ar    1  UNL1        0.0001
      4 C         -25.5756   -1.5654   29.9363 C.ar    1  UNL1       -0.0002
      5 C         -26.7354   -2.3004   30.2173 C.ar    1  UNL1       -0.0000
      6 C         -27.9184   -1.9537   29.7629 C.ar    1  UNL1       -0.0002
      7 C         -27.1057    1.1023   27.7593 C.3     1  UNL1        0.2606
      8 N         -27.8512    1.5044   27.1726 N.pl3   1  UNL1       -0.2781
      9 F         -25.9292    1.8108   27.6220 F       1  UNL1       -0.2097
     10 C         -27.9724    2.1116   25.9448 C.2     1  UNL1        0.0235
     11 C         -28.6150    1.7700   24.9126 C.2     1  UNL1       -0.0156
     12 C         -28.4603    0.5775   24.4084 C.3     1  UNL1        0.0317
     13 C         -27.6781   -0.3972   25.0859 C.3     1  UNL1        0.0310
     14 C         -26.4912    0.0928   25.5953 C.ar    1  UNL1       -0.0218
     15 C         -25.7953    1.0703   24.7402 C.ar    1  UNL1       -0.0043
     16 C         -25.4881   -0.8507   26.0896 C.ar    1  UNL1       -0.0043
     17 C         -24.3444    1.2042   24.9343 C.ar    1  UNL1       -0.0003
     18 C         -24.2658   -0.3034   26.3697 C.ar    1  UNL1       -0.0003
     19 C         -23.6688    0.6079   25.8541 C.ar    1  UNL1       -0.0000
     20 C         -29.2933    1.5136   27.7753 C.3     1  UNL1        0.1199
     21 C         -28.1901    3.6992   26.3607 C.3     1  UNL1        0.0468
     22 C         -29.5948    2.0925   28.5531 C.ar    1  UNL1       -0.0023
     23 C         -30.8059    1.8367   29.4179 C.ar    1  UNL1       -0.0026
     24 C         -31.0779    2.5529   30.6225 C.ar    1  UNL1       -0.0003
     25 C         -30.2761    3.6328   30.9613 C.ar    1  UNL1       -0.0000
     26 C         -29.1483    3.9738   30.2518 C.ar    1  UNL1       -0.0003
     27 C         -28.7959    3.2631   29.1869 C.ar    1  UNL1       -0.0026
@<TRIPOS>BOND
     1     2     7    1
     2     7     8    1
     3     7     9    1
     4     8    10    1
     5    10    11    2
     6    11    12    1
     7    12    13    1
     8    13    14    1
     9     8    20    1
    10    10    21    1
    11    20    22    1
    12     1     2   ar
    13     2     3   ar
    14     3     4   ar
    15     4     5   ar
    16     5     6   ar
    17     6     1   ar
    18    22    23   ar
    19    23    24   ar
    20    24    25   ar
    21    25    26   ar
    22    26    27   ar
    23    27    22   ar
    24    14    15   ar
    25    15    17   ar
    26    17    19   ar
    27    19    18   ar
    28    18    16   ar
    29    16    14   ar
