@<TRIPOS>MOLECULE
No_1973-gen_results/8p0m/2024-11-26-14-13-15/
 35 36 0 0 0
SMALL
GASTEIGER

@<TRIPOS>ATOM
      1 C         -28.0162   -0.8135   28.8779 C.ar    1  UNL1        0.0063
      2 C         -28.4690   -0.7850   29.8287 C.ar    1  UNL1        0.0798
      3 C         -26.5455   -0.8762   28.8500 C.ar    1  UNL1       -0.0040
      4 C         -25.8041   -1.0324   30.0571 C.ar    1  UNL1       -0.0218
      5 C         -27.9437   -0.9869   31.2075 C.ar    1  UNL1        0.0063
      6 C         -24.4008   -1.0969   30.0965 C.3     1  UNL1        0.0313
      7 C         -26.5612   -1.0746   31.2270 C.ar    1  UNL1       -0.0040
      8 C         -23.7186    0.1121   29.8577 C.3     1  UNL1        0.0382
      9 C         -23.3042    0.5338   28.6704 C.2     1  UNL1       -0.0301
     10 C         -22.9714    1.3624   28.1344 C.2     1  UNL1       -0.0307
     11 C         -22.4483    1.4990   26.7820 C.3     1  UNL1        0.0257
     12 C         -22.0689    2.6827   26.2312 C.3     1  UNL1        0.0047
     13 C         -23.2160    3.1409   25.5099 C.3     1  UNL1        0.0004
     14 C         -30.0904   -0.6784   29.8815 C.2     1  UNL1        0.3878
     15 O         -30.6240    0.2205   30.6188 O.co2   1  UNL1       -0.2406
     16 O         -30.7266   -1.6336   29.4353 O.co2   1  UNL1       -0.2406
     17 C         -23.6681    1.0534   31.0320 C.3     1  UNL1        0.1228
     18 P         -24.1418    2.6733   30.7172 P.3     1  UNL1        0.3704
     19 O         -25.6095    2.7181   30.8496 O.3     1  UNL1       -0.2881
     20 O         -23.4831    3.1792   29.5858 O.2     1  UNL1       -0.2555
     21 O         -23.6597    3.4158   32.0303 O.3     1  UNL1       -0.1398
     22 C         -26.3468    3.8282   30.8165 C.3     1  UNL1        0.1757
     23 C         -27.0727    4.1335   31.9400 C.3     1  UNL1        0.1769
     24 O         -27.0527    3.3911   32.8761 O.3     1  UNL1       -0.3427
     25 C         -27.3591    3.6660   29.5707 C.ar    1  UNL1        0.0075
     26 C         -27.4044    4.7213   28.7278 C.ar    1  UNL1       -0.0018
     27 C         -27.9336    4.4644   27.5535 C.ar    1  UNL1       -0.0002
     28 C         -28.4664    3.2535   27.2924 C.ar    1  UNL1       -0.0000
     29 C         -28.4196    2.2032   28.2044 C.ar    1  UNL1       -0.0002
     30 C         -27.8398    2.4302   29.3731 C.ar    1  UNL1       -0.0018
     31 C         -27.8395    3.5691   34.0598 C.3     1  UNL1        0.2459
     32 C         -27.5543    2.8343   35.1589 C.3     1  UNL1        0.4248
     33 F         -26.3658    3.0249   35.4524 F       1  UNL1       -0.1674
     34 F         -27.8909    1.5477   35.2172 F       1  UNL1       -0.1674
     35 F         -28.1589    3.4029   36.2418 F       1  UNL1       -0.1674
@<TRIPOS>BOND
     1     4     6    1
     2     6     8    1
     3     8     9    1
     4     9    10    2
     5    10    11    1
     6    11    12    1
     7    12    13    1
     8     2    14    1
     9    14    15   ar
    10    14    16   ar
    11     8    17    1
    12    17    18    1
    13    18    19    1
    14    18    20    2
    15    18    21    1
    16    19    22    1
    17    22    23    1
    18    23    24    1
    19    22    25    1
    20    24    31    1
    21    31    32    1
    22    32    33    1
    23    32    34    1
    24    32    35    1
    25    25    26   ar
    26    26    27   ar
    27    27    28   ar
    28    28    29   ar
    29    29    30   ar
    30    30    25   ar
    31     1     2   ar
    32     2     5   ar
    33     5     7   ar
    34     7     4   ar
    35     4     3   ar
    36     3     1   ar
