@<TRIPOS>MOLECULE
No_1974-gen_results/8p0m/2024-11-26-14-13-15/
 9 9 0 0 0
SMALL
GASTEIGER

@<TRIPOS>ATOM
      1 C         -28.0162   -0.8135   28.8779 C.ar    1  UNL1        0.0066
      2 C         -28.4690   -0.7850   29.8287 C.ar    1  UNL1        0.0798
      3 C         -26.5455   -0.8762   28.8500 C.ar    1  UNL1        0.0002
      4 C         -25.8041   -1.0324   30.0571 C.ar    1  UNL1        0.0000
      5 C         -27.9487   -0.9304   31.0996 C.ar    1  UNL1        0.0066
      6 C         -26.5925   -1.0065   31.2026 C.ar    1  UNL1        0.0002
      7 C         -30.0598   -0.7301   29.8609 C.2     1  UNL1        0.3878
      8 O         -30.6333    0.0272   30.8141 O.co2   1  UNL1       -0.2406
      9 O         -30.6781   -1.2994   28.9862 O.co2   1  UNL1       -0.2406
@<TRIPOS>BOND
     1     2     7    1
     2     7     8   ar
     3     7     9   ar
     4     1     2   ar
     5     2     5   ar
     6     5     6   ar
     7     6     4   ar
     8     4     3   ar
     9     3     1   ar
