@<TRIPOS>MOLECULE
No_1975-gen_results/8p0m/2024-11-26-14-13-15/
 12 12 0 0 0
SMALL
GASTEIGER

@<TRIPOS>ATOM
      1 C         -28.0162   -0.8135   28.8779 C.ar    1  UNL1       -0.0034
      2 C         -28.4690   -0.7850   29.8287 C.ar    1  UNL1       -0.0003
      3 C         -27.1356    0.2359   28.5352 C.ar    1  UNL1       -0.0116
      4 C         -26.8745    1.2825   29.3982 C.ar    1  UNL1       -0.0034
      5 C         -28.3613    0.1987   30.9244 C.ar    1  UNL1       -0.0000
      6 C         -27.5277    1.2234   30.6356 C.ar    1  UNL1       -0.0003
      7 C         -26.3879    0.2914   27.2334 C.3     1  UNL1        0.0835
      8 BR        -26.6235    0.9795   26.1333 Br      1  UNL1       -0.0765
      9 C         -25.1660   -0.6269   27.3407 C.3     1  UNL1        0.0415
     10 C         -24.1446   -0.3803   28.3547 C.2     1  UNL1       -0.0295
     11 C         -23.3460    0.7265   28.3137 C.2     1  UNL1       -0.0303
     12 C         -22.2390    0.8054   29.2190 C.3     1  UNL1        0.0303
@<TRIPOS>BOND
     1     3     7    1
     2     7     8    1
     3     7     9    1
     4     9    10    1
     5    10    11    2
     6    11    12    1
     7     1     2   ar
     8     2     5   ar
     9     5     6   ar
    10     6     4   ar
    11     4     3   ar
    12     3     1   ar
