@<TRIPOS>MOLECULE
No_1978-gen_results/8p0m/2024-11-26-14-13-15/
 11 11 0 0 0
SMALL
GASTEIGER

@<TRIPOS>ATOM
      1 CL        -28.1493   -0.8198   28.9079 Cl      1  UNL1       -0.0822
      2 C         -26.9116   -0.0797   28.9452 C.ar    1  UNL1        0.0577
      3 C         -26.7384    1.0439   29.2534 C.ar    1  UNL1        0.0115
      4 C         -25.4392    1.7115   29.2755 C.ar    1  UNL1        0.0036
      5 C         -24.2813    0.9888   28.8542 C.ar    1  UNL1        0.0289
      6 C         -24.4869   -0.3041   28.4957 C.ar    1  UNL1        0.0036
      7 C         -25.7046   -0.8667   28.5244 C.ar    1  UNL1        0.0115
      8 P         -22.6982    1.7772   28.7804 P.3     1  UNL1        0.1395
      9 O         -21.8701    0.7250   28.7211 O.3     1  UNL1       -0.3542
     10 O         -22.7984    2.4747   27.3317 O.2     1  UNL1       -0.4557
     11 O         -22.6879    2.6869   29.9139 O.3     1  UNL1       -0.3542
@<TRIPOS>BOND
     1     1     2    1
     2     5     8    1
     3     8     9    1
     4     8    10    2
     5     8    11    1
     6     2     3   ar
     7     3     4   ar
     8     4     5   ar
     9     5     6   ar
    10     6     7   ar
    11     7     2   ar
