@<TRIPOS>MOLECULE
No_1979-gen_results/8p0m/2024-11-26-14-13-15/
 10 10 0 0 0
SMALL
GASTEIGER

@<TRIPOS>ATOM
      1 C         -28.0162   -0.8135   28.8779 C.ar    1  UNL1       -0.0039
      2 C         -27.0636   -0.1190   28.6079 C.ar    1  UNL1       -0.0178
      3 C         -27.0010    0.6913   27.4910 C.3     1  UNL1        0.0520
      4 C         -25.8548    1.4825   27.0830 C.2     1  UNL1       -0.0260
      5 C         -25.8227    2.3296   25.9941 C.2     1  UNL1       -0.0300
      6 C         -27.9874   -1.6326   30.1036 C.ar    1  UNL1       -0.0003
      7 C         -26.7767   -1.8328   30.7473 C.ar    1  UNL1       -0.0000
      8 C         -25.6211   -1.2294   30.3398 C.ar    1  UNL1       -0.0003
      9 C         -25.7328   -0.3516   29.1754 C.ar    1  UNL1       -0.0039
     10 C         -26.9380    2.3235   25.1519 C.3     1  UNL1        0.0304
@<TRIPOS>BOND
     1     3     4    1
     2     4     5    2
     3     5    10    1
     4     3     2    1
     5     1     2   ar
     6     2     9   ar
     7     9     8   ar
     8     8     7   ar
     9     7     6   ar
    10     6     1   ar
