@<TRIPOS>MOLECULE
No_198-gen_results/8p0m/2024-11-26-14-13-15/
 16 17 0 0 0
SMALL
GASTEIGER

@<TRIPOS>ATOM
      1 C         -28.0162   -0.8135   28.8779 C.ar    1  UNL1        0.0039
      2 C         -27.0636   -0.1189   28.6079 C.ar    1  UNL1       -0.0001
      3 C         -25.7647   -0.3897   29.0360 C.ar    1  UNL1       -0.0000
      4 C         -25.5296   -1.5302   29.9014 C.ar    1  UNL1       -0.0001
      5 C         -26.6577   -2.2915   30.2035 C.ar    1  UNL1        0.0039
      6 C         -27.8432   -1.9747   29.7510 C.ar    1  UNL1        0.0714
      7 C         -24.5451    0.4095   28.7440 C.ar    1  UNL1       -0.0000
      8 C         -24.4773    1.1989   27.7085 C.ar    1  UNL1       -0.0000
      9 C         -23.2689    1.9096   27.3924 C.ar    1  UNL1        0.0000
     10 C         -22.1028    1.7113   28.0514 C.ar    1  UNL1        0.0000
     11 C         -23.3095    0.1707   29.4784 C.ar    1  UNL1       -0.0000
     12 C         -22.1063    0.8383   29.1121 C.ar    1  UNL1        0.0000
     13 C         -29.0001   -2.8150   30.1761 C.3     1  UNL1        0.4186
     14 F         -28.8083   -4.0414   29.9124 F       1  UNL1       -0.1659
     15 F         -29.1396   -2.6773   31.5497 F       1  UNL1       -0.1659
     16 F         -30.1245   -2.4843   29.6645 F       1  UNL1       -0.1659
@<TRIPOS>BOND
     1     3     7    1
     2     6    13    1
     3    13    14    1
     4    13    15    1
     5    13    16    1
     6     7     8   ar
     7     8     9   ar
     8     9    10   ar
     9    10    12   ar
    10    12    11   ar
    11    11     7   ar
    12     1     2   ar
    13     2     3   ar
    14     3     4   ar
    15     4     5   ar
    16     5     6   ar
    17     6     1   ar
