@<TRIPOS>MOLECULE
No_1980-gen_results/8p0m/2024-11-26-14-13-15/
 12 13 0 0 0
SMALL
GASTEIGER

@<TRIPOS>ATOM
      1 C         -28.0162   -0.8135   28.8779 C.2     1  UNL1        0.0600
      2 C         -27.0636   -0.1189   28.6079 C.2     1  UNL1       -0.0281
      3 C         -25.7647   -0.3897   29.0360 C.3     1  UNL1        0.0488
      4 C         -24.5516    0.4058   28.7646 C.ar    1  UNL1       -0.0220
      5 C         -24.6957    1.4480   27.7988 C.ar    1  UNL1       -0.0255
      6 C         -25.9755    1.7250   27.3077 C.3     1  UNL1        0.0304
      7 C         -27.0718    1.0134   27.6535 C.3     1  UNL1        0.0279
      8 CL        -28.0617   -2.0028   30.2021 Cl      1  UNL1       -0.0820
      9 C         -23.4942    2.1943   27.4965 C.ar    1  UNL1       -0.0046
     10 C         -22.2255    1.6985   27.8676 C.ar    1  UNL1       -0.0003
     11 C         -22.1575    0.6610   28.8184 C.ar    1  UNL1       -0.0003
     12 C         -23.2902   -0.1008   29.1963 C.ar    1  UNL1       -0.0043
@<TRIPOS>BOND
     1     1     2    2
     2     2     3    1
     3     3     4    1
     4     5     6    1
     5     2     7    1
     6     6     7    1
     7     1     8    1
     8     4     5   ar
     9     5     9   ar
    10     9    10   ar
    11    10    11   ar
    12    11    12   ar
    13    12     4   ar
