@<TRIPOS>MOLECULE
No_1981-gen_results/8p0m/2024-11-26-14-13-15/
 17 20 0 0 0
SMALL
GASTEIGER

@<TRIPOS>ATOM
      1 C         -28.0162   -0.8135   28.8779 C.ar    1  UNL1       -0.0039
      2 C         -27.0636   -0.1189   28.6079 C.ar    1  UNL1       -0.0177
      3 C         -25.7923   -0.4302   29.0761 C.ar    1  UNL1       -0.0022
      4 C         -24.5456    0.3494   28.8225 C.ar    1  UNL1        0.0171
      5 C         -23.2409    0.0217   29.3323 C.ar    1  UNL1        0.0015
      6 C         -27.8820   -1.8995   29.8633 C.ar    1  UNL1       -0.0003
      7 C         -26.6526   -2.3142   30.3138 C.ar    1  UNL1       -0.0000
      8 C         -25.5153   -1.5607   29.9787 C.ar    1  UNL1       -0.0002
      9 C         -23.2160   -1.2277   30.0505 C.ar    1  UNL1        0.0000
     10 C         -24.2438   -1.9369   30.3995 C.ar    1  UNL1       -0.0000
     11 C         -24.7297    1.6413   28.2695 C.ar    1  UNL1        0.0776
     12 N         -23.8719    1.9256   27.2437 N.ar    1  UNL1       -0.2441
     13 C         -24.1679    2.7650   26.2025 C.ar    1  UNL1        0.0988
     14 C         -25.3439    3.4998   26.3086 C.ar    1  UNL1        0.0204
     15 C         -26.0976    2.0699   27.9436 C.ar    1  UNL1       -0.0001
     16 C         -26.1884    3.3926   27.2231 C.ar    1  UNL1       -0.0009
     17 C         -27.0723    1.5456   28.5791 C.3     1  UNL1        0.0541
@<TRIPOS>BOND
     1     4    11    1
     2     2    17    1
     3    15    17    1
     4     1     2   ar
     5     2     3   ar
     6     8     7   ar
     7     7     6   ar
     8     6     1   ar
     9     3     4   ar
    10     4     5   ar
    11     5     9   ar
    12     9    10   ar
    13    10     8   ar
    14     8     3   ar
    15    11    12   ar
    16    12    13   ar
    17    13    14   ar
    18    14    16   ar
    19    16    15   ar
    20    15    11   ar
