@<TRIPOS>MOLECULE
No_1982-gen_results/8p0m/2024-11-26-14-13-15/
 20 21 0 0 0
SMALL
GASTEIGER

@<TRIPOS>ATOM
      1 C         -28.0162   -0.8135   28.8779 C.ar    1  UNL1        0.0817
      2 C         -28.4690   -0.7850   29.8287 C.3     1  UNL1        0.4194
      3 C         -28.1816    0.4277   28.1134 C.ar    1  UNL1        0.0024
      4 C         -27.4498    0.6435   26.8500 C.ar    1  UNL1        0.0017
      5 C         -26.1815    0.0357   26.7145 C.ar    1  UNL1       -0.0055
      6 C         -25.7800   -0.9326   27.6938 C.ar    1  UNL1        0.0108
      7 C         -26.5568   -1.2134   28.7413 C.ar    1  UNL1        0.0615
      8 F         -29.6620   -0.4397   29.9661 F       1  UNL1       -0.1658
      9 F         -27.8427   -0.5009   31.0268 F       1  UNL1       -0.1658
     10 F         -28.7160   -2.2506   30.1332 F       1  UNL1       -0.1658
     11 CL        -25.8523   -2.4720   29.6950 Cl      1  UNL1       -0.0823
     12 C         -27.8003    1.7377   26.0316 C.3     1  UNL1        0.1515
     13 N         -28.0238    1.4773   24.7695 N.2     1  UNL1       -0.2687
     14 C         -27.6495    0.4616   24.2412 C.2     1  UNL1        0.0671
     15 C         -27.1850   -0.5695   25.0706 C.3     1  UNL1        0.0454
     16 C         -25.5802    0.3158   25.5996 C.2     1  UNL1       -0.0263
     17 C         -26.0650   -1.1384   24.1393 C.3     1  UNL1        0.0316
     18 C         -25.1883   -0.2746   24.5479 C.2     1  UNL1       -0.0300
     19 C         -25.1044    1.7745   25.8376 C.3     1  UNL1        0.0307
     20 C         -28.2245   -1.7071   24.3712 C.3     1  UNL1        0.0067
@<TRIPOS>BOND
     1     1     2    1
     2     2     8    1
     3     2     9    1
     4     2    10    1
     5     7    11    1
     6     4    12    1
     7    12    13    1
     8    13    14    2
     9    14    15    1
    10     5    16    1
    11    15    17    1
    12    16    18    2
    13    17    18    1
    14    16    19    1
    15    15    20    1
    16     1     3   ar
    17     3     4   ar
    18     4     5   ar
    19     5     6   ar
    20     6     7   ar
    21     7     1   ar
