@<TRIPOS>MOLECULE
No_1983-gen_results/8p0m/2024-11-26-14-13-15/
 14 14 0 0 0
SMALL
GASTEIGER

@<TRIPOS>ATOM
      1 C         -28.0162   -0.8135   28.8779 C.3     1  UNL1        0.1386
      2 C         -27.0636   -0.1189   28.6079 C.ar    1  UNL1       -0.0007
      3 C         -26.8756    1.1325   28.9134 C.ar    1  UNL1       -0.0026
      4 C         -25.6883    1.9515   28.5672 C.ar    1  UNL1        0.0036
      5 C         -24.6394    1.2834   27.8753 C.ar    1  UNL1        0.0714
      6 C         -24.8068   -0.0513   27.6040 C.ar    1  UNL1        0.0036
      7 C         -25.9020   -0.7670   27.9511 C.ar    1  UNL1       -0.0026
      8 N         -27.9985   -1.5833   30.1015 N.pl3   1  UNL1       -0.2315
      9 C         -23.4538    1.9850   27.4766 C.3     1  UNL1        0.4186
     10 F         -23.4102    2.4146   26.3750 F       1  UNL1       -0.1659
     11 F         -23.0862    2.9489   28.4028 F       1  UNL1       -0.1659
     12 F         -22.3096    1.1394   27.6308 F       1  UNL1       -0.1659
     13 C         -29.0493   -2.3362   30.5875 C.2     1  UNL1        0.0805
     14 C         -30.1348   -1.9508   30.5050 C.2     1  UNL1        0.0188
@<TRIPOS>BOND
     1     1     8    1
     2     5     9    1
     3     9    10    1
     4     9    11    1
     5     9    12    1
     6     8    13    1
     7    13    14    2
     8     1     2    1
     9     2     3   ar
    10     3     4   ar
    11     4     5   ar
    12     5     6   ar
    13     6     7   ar
    14     7     2   ar
