@<TRIPOS>MOLECULE
No_1987-gen_results/8p0m/2024-11-26-14-13-15/
 22 23 0 0 0
SMALL
GASTEIGER

@<TRIPOS>ATOM
      1 C         -28.0162   -0.8135   28.8779 C.3     1  UNL1        0.0666
      2 C         -27.0636   -0.1190   28.6079 C.3     1  UNL1        0.2436
      3 N         -25.8176   -0.3427   29.0488 N.am    1  UNL1       -0.2318
      4 C         -25.5552   -1.4726   29.7295 C.2     1  UNL1        0.2317
      5 C         -27.8546   -1.9289   29.8134 C.3     1  UNL1        0.0918
      6 C         -26.5522   -2.2469   30.2087 C.3     1  UNL1        0.0949
      7 F         -27.1946    1.0199   27.9250 F       1  UNL1       -0.2144
      8 C         -24.6314    0.5020   28.6556 C.ar    1  UNL1        0.0562
      9 C         -23.4635    0.1401   29.0762 C.ar    1  UNL1        0.0150
     10 C         -22.3776    1.0532   28.8213 C.ar    1  UNL1        0.0013
     11 C         -22.5235    2.0913   27.8373 C.ar    1  UNL1        0.0001
     12 C         -24.7650    1.5730   27.7836 C.ar    1  UNL1        0.0150
     13 C         -23.6934    2.3272   27.3779 C.ar    1  UNL1        0.0013
     14 C         -28.9712   -2.7879   30.2206 C.2     1  UNL1        0.2418
     15 N         -30.0645   -2.3278   30.4938 N.am    1  UNL1       -0.1963
     16 O         -28.7453   -4.0447   30.3936 O.2     1  UNL1       -0.2733
     17 C         -31.2407   -3.1417   30.9258 C.3     1  UNL1        0.2179
     18 C         -32.2267   -3.1109   30.1159 C.3     1  UNL1        0.4174
     19 F         -32.4680   -2.0806   29.5101 F       1  UNL1       -0.1681
     20 F         -33.4098   -3.4462   30.7715 F       1  UNL1       -0.1681
     21 F         -32.0735   -4.1317   29.1583 F       1  UNL1       -0.1681
     22 O         -24.3551   -1.7822   30.1721 O.2     1  UNL1       -0.2745
@<TRIPOS>BOND
     1     1     2    1
     2     2     3    1
     3     3     4   am
     4     4     6    1
     5     5     6    1
     6     2     7    1
     7     3     8    1
     8     5    14    1
     9    14    15   am
    10    14    16    2
    11    15    17    1
    12    17    18    1
    13    18    19    1
    14    18    20    1
    15    18    21    1
    16     4    22    2
    17     1     5    1
    18     8     9   ar
    19     9    10   ar
    20    10    11   ar
    21    11    13   ar
    22    13    12   ar
    23    12     8   ar
