@<TRIPOS>MOLECULE
No_199-gen_results/8p0m/2024-11-26-14-13-15/
 23 25 0 0 0
SMALL
GASTEIGER

@<TRIPOS>ATOM
      1 C         -28.0162   -0.8135   28.8779 C.3     1  UNL1        0.0000
      2 C         -27.0636   -0.1189   28.6079 C.3     1  UNL1        0.0003
      3 C         -26.8756    1.1325   28.9134 C.3     1  UNL1        0.0044
      4 C         -25.6883    1.9515   28.5672 C.3     1  UNL1        0.0088
      5 C         -24.6394    1.2834   27.8753 C.3     1  UNL1        0.0952
      6 C         -24.8068   -0.0513   27.6040 C.3     1  UNL1        0.0085
      7 C         -25.9019   -0.7670   27.9511 C.3     1  UNL1        0.0003
      8 C         -28.6455   -0.5282   30.2428 C.3     1  UNL1        0.0003
      9 C         -28.9122    0.7961   30.4353 C.3     1  UNL1        0.0044
     10 C         -27.6754    1.6491   30.0989 C.3     1  UNL1        0.0246
     11 C         -23.4710    1.9726   27.3666 C.3     1  UNL1        0.3975
     12 F         -23.4920    2.5069   26.2982 F       1  UNL1       -0.1701
     13 F         -23.1671    3.0746   28.2888 F       1  UNL1       -0.1701
     14 F         -22.3026    1.2455   27.5493 F       1  UNL1       -0.1701
     15 C         -26.9103    2.0976   31.2798 C.ar    1  UNL1       -0.0224
     16 C         -28.2761    2.9959   29.3515 C.3     1  UNL1        0.0530
     17 C         -29.2506    3.6006   30.0529 C.2     1  UNL1        0.0960
     18 N         -29.7229    4.6176   29.5153 N.2     1  UNL1       -0.1514
     19 C         -26.9522    2.8906   32.0117 C.ar    1  UNL1       -0.0043
     20 C         -25.8264    1.0151   31.6488 C.ar    1  UNL1       -0.0043
     21 C         -26.1134    3.2587   33.1361 C.ar    1  UNL1       -0.0003
     22 C         -25.1592    2.3021   33.4636 C.ar    1  UNL1       -0.0000
     23 C         -24.9850    1.2433   32.6498 C.ar    1  UNL1       -0.0003
@<TRIPOS>BOND
     1     2     3    1
     2     3     4    1
     3     4     5    1
     4     5     6    1
     5     2     7    1
     6     6     7    1
     7     1     8    1
     8     3    10    1
     9     9    10    1
    10     5    11    1
    11    11    12    1
    12    11    13    1
    13    11    14    1
    14    10    15    1
    15    10    16    1
    16    16    17    1
    17    17    18    2
    18     2     1    1
    19     8     9    1
    20    15    19   ar
    21    19    21   ar
    22    21    22   ar
    23    22    23   ar
    24    23    20   ar
    25    20    15   ar
