@<TRIPOS>MOLECULE
No_1990-gen_results/8p0m/2024-11-26-14-13-15/
 14 15 0 0 0
SMALL
GASTEIGER

@<TRIPOS>ATOM
      1 O         -28.1229   -1.3353   28.4874 O.2     1  UNL1       -0.2730
      2 C         -28.5208   -0.4363   29.0779 C.2     1  UNL1        0.2451
      3 C         -27.6655    0.1129   30.0346 C.3     1  UNL1        0.1017
      4 N         -29.7419    0.1102   28.8873 N.am    1  UNL1       -0.2038
      5 C         -27.8398    1.2287   30.6424 C.3     1  UNL1        0.0316
      6 C         -30.0783    1.2810   29.5952 C.3     1  UNL1        0.1313
      7 C         -29.1559    1.8186   30.5021 C.3     1  UNL1        0.1023
      8 CL        -29.5353    3.2359   31.3411 Cl      1  UNL1       -0.1131
      9 C         -26.2959   -0.5589   30.2007 C.ar    1  UNL1       -0.0138
     10 C         -25.6864   -0.6019   31.1288 C.ar    1  UNL1       -0.0038
     11 C         -24.3092   -1.1613   31.2601 C.ar    1  UNL1       -0.0003
     12 C         -23.7939   -1.9087   30.2004 C.ar    1  UNL1       -0.0000
     13 C         -24.6575   -2.0252   29.0667 C.ar    1  UNL1       -0.0003
     14 C         -25.8686   -1.3672   29.0338 C.ar    1  UNL1       -0.0038
@<TRIPOS>BOND
     1     1     2    2
     2     2     3    1
     3     2     4   am
     4     3     5    1
     5     5     7    1
     6     6     7    1
     7     7     8    1
     8     3     9    1
     9     6     4    1
    10     9    10   ar
    11    10    11   ar
    12    11    12   ar
    13    12    13   ar
    14    13    14   ar
    15    14     9   ar
