@<TRIPOS>MOLECULE
No_1991-gen_results/8p0m/2024-11-26-14-13-15/
 35 39 0 0 0
SMALL
GASTEIGER

@<TRIPOS>ATOM
      1 C         -28.0162   -0.8135   28.8779 C.ar    1  UNL1       -0.0024
      2 C         -28.4690   -0.7850   29.8287 C.ar    1  UNL1        0.0174
      3 C         -26.5042   -0.7777   28.8766 C.ar    1  UNL1       -0.0177
      4 C         -25.8103   -0.8531   30.1028 C.ar    1  UNL1       -0.0039
      5 C         -27.9906   -0.8916   31.2257 C.ar    1  UNL1        0.0015
      6 C         -26.6042   -0.8676   31.2652 C.ar    1  UNL1       -0.0003
      7 C         -30.0739   -0.8360   29.8615 C.ar    1  UNL1        0.0826
      8 N         -30.6529   -1.7943   30.2676 N.ar    1  UNL1       -0.2304
      9 C         -30.7551    0.2587   29.2375 C.ar    1  UNL1        0.0178
     10 C         -30.2279    1.3868   28.9623 C.2     1  UNL1        0.0015
     11 C         -30.1523    2.2261   28.3786 C.2     1  UNL1        0.0000
     12 C         -29.7271    3.2680   27.8722 C.ar    1  UNL1        0.0000
     13 C         -31.9635   -0.1622   28.6217 C.ar    1  UNL1        0.0044
     14 C         -32.6824   -1.0766   29.2044 C.ar    1  UNL1        0.0346
     15 C         -31.9494   -2.0536   29.9735 C.ar    1  UNL1        0.1354
     16 C         -30.2095    3.9597   26.7954 C.ar    1  UNL1        0.0000
     17 C         -29.6127    5.1855   26.2285 C.ar    1  UNL1        0.0000
     18 C         -28.4394    5.6556   26.8052 C.ar    1  UNL1        0.0000
     19 C         -28.4287    3.9948   28.2669 C.ar    1  UNL1        0.0000
     20 C         -27.8547    5.0526   27.7979 C.ar    1  UNL1        0.0000
     21 C         -25.7102   -0.6356   27.6369 C.3     1  UNL1        0.0526
     22 C         -25.3037    0.7296   27.3043 C.ar    1  UNL1       -0.0178
     23 C         -25.5087    1.1584   26.0346 C.ar    1  UNL1       -0.0039
     24 C         -25.1439    2.4936   25.7800 C.ar    1  UNL1       -0.0003
     25 C         -24.4883    3.3223   26.7151 C.ar    1  UNL1       -0.0000
     26 C         -24.1267    2.7601   27.9417 C.ar    1  UNL1       -0.0003
     27 C         -24.5725    1.5222   28.2713 C.ar    1  UNL1       -0.0039
     28 N         -32.5637   -3.1506   30.4809 N.pl3   1  UNL1       -0.2706
     29 C         -32.4870   -4.2518   30.2732 C.ar    1  UNL1        0.0527
     30 C         -33.1418   -5.2225   30.9387 C.ar    1  UNL1        0.0149
     31 C         -31.6348   -4.7959   29.1666 C.ar    1  UNL1        0.0149
     32 C         -31.4986   -6.1419   28.7874 C.ar    1  UNL1        0.0013
     33 C         -33.0214   -6.6580   30.6040 C.ar    1  UNL1        0.0013
     34 C         -32.1841   -7.0559   29.5657 C.ar    1  UNL1        0.0001
     35 C         -33.4805   -2.7574   31.6496 C.3     1  UNL1        0.1187
@<TRIPOS>BOND
     1     2     7    1
     2     9    10    1
     3    10    11    2
     4    11    12    1
     5     3    21    1
     6    21    22    1
     7    15    28    1
     8    28    29    1
     9    28    35    1
    10    29    30   ar
    11    30    33   ar
    12    33    34   ar
    13    34    32   ar
    14    32    31   ar
    15    31    29   ar
    16    22    23   ar
    17    23    24   ar
    18    24    25   ar
    19    25    26   ar
    20    26    27   ar
    21    27    22   ar
    22    12    16   ar
    23    16    17   ar
    24    17    18   ar
    25    18    20   ar
    26    20    19   ar
    27    19    12   ar
    28     7     8   ar
    29     8    15   ar
    30    15    14   ar
    31    14    13   ar
    32    13     9   ar
    33     9     7   ar
    34     1     2   ar
    35     2     5   ar
    36     5     6   ar
    37     6     4   ar
    38     4     3   ar
    39     3     1   ar
