@<TRIPOS>MOLECULE
No_1992-gen_results/8p0m/2024-11-26-14-13-15/
 35 38 0 0 0
SMALL
GASTEIGER

@<TRIPOS>ATOM
      1 C         -28.0162   -0.8135   28.8779 C.ar    1  UNL1        0.0095
      2 C         -28.4690   -0.7850   29.8287 C.ar    1  UNL1        0.0761
      3 C         -28.1816    0.4277   28.1134 C.ar    1  UNL1        0.0342
      4 C         -27.4498    0.6435   26.8500 C.ar    1  UNL1        0.1386
      5 C         -27.8596    1.4573   25.9076 C.ar    1  UNL1        0.0369
      6 C         -29.4263    0.1097   30.4178 C.ar    1  UNL1        0.0065
      7 C         -29.6233    1.2198   29.7351 C.ar    1  UNL1        0.0003
      8 C         -28.9609    1.4529   28.5513 C.ar    1  UNL1        0.0029
      9 C         -28.7869    2.5467   26.3167 C.ar    1  UNL1        0.0031
     10 C         -29.4265    2.4288   27.5639 C.ar    1  UNL1        0.0002
     11 O         -26.5350   -0.2653   26.4019 O.3     1  UNL1       -0.4714
     12 C         -25.7497    0.2083   25.4384 C.3     1  UNL1        0.2525
     13 C         -28.2348   -2.1268   30.8090 C.2     1  UNL1        0.3457
     14 O         -28.8326   -2.4668   31.6169 O.2     1  UNL1       -0.2445
     15 O         -27.2257   -2.9380   30.2314 O.3     1  UNL1       -0.4210
     16 C         -26.0294   -2.3916   29.9482 C.ar    1  UNL1        0.1490
     17 C         -25.1758   -3.3564   29.1924 C.ar    1  UNL1        0.0376
     18 C         -23.9366   -2.8091   28.7545 C.ar    1  UNL1        0.0033
     19 C         -23.4733   -1.5354   29.1196 C.ar    1  UNL1        0.0066
     20 C         -24.3527   -0.6635   29.8198 C.ar    1  UNL1        0.0787
     21 C         -25.5787   -1.1756   30.1891 C.ar    1  UNL1        0.0440
     22 C         -23.8246    0.6803   30.0468 C.2     1  UNL1        0.3416
     23 O         -24.1110    1.2262   31.0681 O.2     1  UNL1       -0.2449
     24 O         -23.2964    1.3382   29.0366 O.3     1  UNL1       -0.4404
     25 C         -23.8303    1.4557   27.8393 C.3     1  UNL1        0.2354
     26 C         -24.5165    2.7330   27.5074 C.ar    1  UNL1        0.0214
     27 C         -24.7929    3.1776   26.2381 C.ar    1  UNL1       -0.0007
     28 C         -25.0355    3.5141   28.6440 C.ar    1  UNL1        0.0039
     29 C         -25.7613    4.6968   28.3605 C.ar    1  UNL1        0.0548
     30 C         -26.3293    5.4100   29.4535 C.2     1  UNL1        0.2648
     31 C         -25.8663    5.2095   27.0858 C.ar    1  UNL1        0.0045
     32 C         -25.3348    4.4873   26.0576 C.ar    1  UNL1       -0.0001
     33 O         -27.2591    6.0130   29.3933 O.2     1  UNL1       -0.2684
     34 N         -25.7454    5.1312   30.7256 N.am    1  UNL1       -0.1998
     35 C         -26.2609    5.7332   31.9330 C.3     1  UNL1        0.1388
@<TRIPOS>BOND
     1     4    11    1
     2    11    12    1
     3     2    13    1
     4    13    14    2
     5    13    15    1
     6    15    16    1
     7    20    22    1
     8    22    23    2
     9    22    24    1
    10    24    25    1
    11    25    26    1
    12    29    30    1
    13    30    33    2
    14    30    34   am
    15    34    35    1
    16     3     4   ar
    17     4     5   ar
    18     5     9   ar
    19     9    10   ar
    20    10     8   ar
    21    26    27   ar
    22    27    32   ar
    23    32    31   ar
    24    31    29   ar
    25    29    28   ar
    26    28    26   ar
    27     1     2   ar
    28     2     6   ar
    29     6     7   ar
    30     7     8   ar
    31     8     3   ar
    32     3     1   ar
    33    16    17   ar
    34    17    18   ar
    35    18    19   ar
    36    19    20   ar
    37    20    21   ar
    38    21    16   ar
