@<TRIPOS>MOLECULE
No_1993-gen_results/8p0m/2024-11-26-14-13-15/
 22 24 0 0 0
SMALL
GASTEIGER

@<TRIPOS>ATOM
      1 C         -28.0162   -0.8135   28.8779 C.ar    1  UNL1        0.0065
      2 C         -28.4690   -0.7850   29.8287 C.ar    1  UNL1        0.0760
      3 C         -26.5042   -0.7777   28.8766 C.ar    1  UNL1        0.0002
      4 C         -25.7623   -0.0022   27.9705 C.ar    1  UNL1        0.0002
      5 C         -27.9832   -1.4903   31.0818 C.ar    1  UNL1        0.0065
      6 C         -26.6062   -1.5983   31.1298 C.ar    1  UNL1        0.0002
      7 C         -25.8085   -1.2512   30.0553 C.ar    1  UNL1        0.0002
      8 C         -24.4295    0.3052   28.1003 C.ar    1  UNL1        0.0048
      9 C         -23.7000   -0.4208   29.1474 C.ar    1  UNL1        0.0593
     10 C         -24.3796   -1.0177   30.1303 C.ar    1  UNL1        0.0048
     11 C         -22.2357   -0.1429   29.2549 C.2     1  UNL1        0.2968
     12 N         -21.5970    0.6271   28.3593 N.2     1  UNL1       -0.1025
     13 O         -21.6459   -0.4125   30.3391 O.2     1  UNL1       -0.2636
     14 C         -30.0787   -0.8614   29.8304 C.2     1  UNL1        0.3457
     15 O         -30.7357   -1.5746   30.2667 O.2     1  UNL1       -0.2445
     16 O         -30.5068    0.2545   29.2539 O.3     1  UNL1       -0.4210
     17 C         -30.2137    1.3740   29.3581 C.ar    1  UNL1        0.1488
     18 C         -30.3696    2.0736   30.4168 C.ar    1  UNL1        0.0376
     19 C         -29.9160    3.4335   30.6093 C.ar    1  UNL1        0.0031
     20 C         -29.3423    4.0591   29.4904 C.ar    1  UNL1        0.0002
     21 C         -29.4777    2.0596   28.1911 C.ar    1  UNL1        0.0376
     22 C         -29.0899    3.3859   28.3270 C.ar    1  UNL1        0.0031
@<TRIPOS>BOND
     1     9    11    1
     2    11    12    2
     3    11    13    1
     4     2    14    1
     5    14    15    2
     6    14    16    1
     7    16    17    1
     8    17    18   ar
     9    18    19   ar
    10    19    20   ar
    11    20    22   ar
    12    22    21   ar
    13    21    17   ar
    14     1     2   ar
    15     2     5   ar
    16     5     6   ar
    17     6     7   ar
    18     3     1   ar
    19     3     4   ar
    20     4     8   ar
    21     8     9   ar
    22     9    10   ar
    23    10     7   ar
    24     7     3   ar
