@<TRIPOS>MOLECULE
No_1994-gen_results/8p0m/2024-11-26-14-13-15/
 33 36 0 0 0
SMALL
GASTEIGER

@<TRIPOS>ATOM
      1 C         -28.0162   -0.8135   28.8779 C.ar    1  UNL1       -0.0006
      2 C         -27.0636   -0.1190   28.6079 C.ar    1  UNL1       -0.0172
      3 C         -26.9716    0.7139   27.5060 C.ar    1  UNL1       -0.0006
      4 C         -28.1053    0.7744   26.6421 C.ar    1  UNL1        0.0417
      5 C         -29.2008    0.1044   27.0527 C.ar    1  UNL1        0.1957
      6 C         -29.2096   -0.6029   28.1853 C.ar    1  UNL1        0.0417
      7 O         -30.2994    0.2279   26.2571 O.3     1  UNL1       -0.2866
      8 C         -25.7189   -0.2206   29.4011 C.3     1  UNL1        0.0580
      9 C         -25.2503    0.9568   30.1133 C.ar    1  UNL1        0.0002
     10 C         -25.5166    1.2281   31.0395 C.ar    1  UNL1       -0.0008
     11 C         -25.0115    2.5166   31.7501 C.ar    1  UNL1        0.0204
     12 C         -24.1729    1.6902   29.2993 C.ar    1  UNL1        0.0776
     13 N         -23.7509    2.8629   29.8377 N.ar    1  UNL1       -0.2441
     14 C         -24.0877    3.2428   31.0592 C.ar    1  UNL1        0.0988
     15 C         -23.6637    1.3428   28.0051 C.ar    1  UNL1        0.0173
     16 C         -23.4040    2.2793   27.0470 C.ar    1  UNL1        0.0015
     17 C         -22.9673    1.9920   25.7851 C.ar    1  UNL1        0.0000
     18 C         -25.1381   -1.4810   29.5299 C.3     1  UNL1        0.0723
     19 C         -23.8577   -1.5110   29.8296 C.3     1  UNL1        0.0146
     20 C         -25.5195   -2.4812   28.5603 C.1     1  UNL1       -0.0889
     21 C         -23.1740    0.0891   27.6709 C.ar    1  UNL1        0.0015
     22 C         -24.8776   -3.7319   28.8660 C.1     1  UNL1       -0.0586
     23 C         -22.7541   -0.2026   26.4495 C.ar    1  UNL1        0.0000
     24 C         -22.6296    0.7950   25.4991 C.ar    1  UNL1        0.0000
     25 C         -25.5924   -4.8194   29.2548 C.3     1  UNL1        0.2181
     26 O         -26.8116   -4.6169   29.7068 O.3     1  UNL1       -0.3352
     27 C         -27.3908   -4.1872   30.6320 C.3     1  UNL1        0.1700
     28 C         -28.8522   -4.4971   30.8047 C.ar    1  UNL1        0.0073
     29 C         -29.5765   -4.9331   29.7463 C.ar    1  UNL1       -0.0019
     30 C         -30.9317   -5.1440   29.7660 C.ar    1  UNL1       -0.0002
     31 C         -31.6025   -4.9125   30.9980 C.ar    1  UNL1       -0.0000
     32 C         -30.9157   -4.4991   32.1368 C.ar    1  UNL1       -0.0002
     33 C         -29.5574   -4.2107   32.0725 C.ar    1  UNL1       -0.0019
@<TRIPOS>BOND
     1     5     7    1
     2     2     8    1
     3     8     9    1
     4    12    15    1
     5     8    18    1
     6    18    19    1
     7    18    20    1
     8    20    22    3
     9    22    25    1
    10    25    26    1
    11    26    27    1
    12    27    28    1
    13    28    29   ar
    14    29    30   ar
    15    30    31   ar
    16    31    32   ar
    17    32    33   ar
    18    33    28   ar
    19     1     2   ar
    20     2     3   ar
    21     3     4   ar
    22     4     5   ar
    23     5     6   ar
    24     6     1   ar
    25     9    10   ar
    26    10    11   ar
    27    11    14   ar
    28    14    13   ar
    29    13    12   ar
    30    12     9   ar
    31    15    16   ar
    32    16    17   ar
    33    17    24   ar
    34    24    23   ar
    35    23    21   ar
    36    21    15   ar
