@<TRIPOS>MOLECULE
No_1995-gen_results/8p0m/2024-11-26-14-13-15/
 32 35 0 0 0
SMALL
GASTEIGER

@<TRIPOS>ATOM
      1 C         -28.0162   -0.8135   28.8779 C.ar    1  UNL1        0.0045
      2 C         -28.4690   -0.7850   29.8287 C.ar    1  UNL1        0.0536
      3 C         -26.5042   -0.7777   28.8766 C.ar    1  UNL1        0.0002
      4 C         -25.6540   -0.6597   27.7191 C.ar    1  UNL1        0.0007
      5 C         -27.9180   -0.9374   31.1824 C.ar    1  UNL1        0.0045
      6 C         -26.5423   -0.9399   31.2606 C.ar    1  UNL1        0.0002
      7 C         -25.7832   -0.8935   30.1201 C.ar    1  UNL1        0.0007
      8 C         -24.3096   -0.3015   27.8531 C.ar    1  UNL1        0.0103
      9 C         -23.6669   -0.4595   29.0986 C.ar    1  UNL1        0.0684
     10 C         -24.3700   -0.6645   30.2027 C.ar    1  UNL1        0.0103
     11 C         -22.1946   -0.2290   29.1314 C.1     1  UNL1        0.1004
     12 N         -21.2882    0.5666   28.7716 N.1     1  UNL1       -0.1908
     13 C         -30.0690   -0.8707   29.8730 C.2     1  UNL1        0.2490
     14 O         -30.5203   -0.2892   28.9840 O.2     1  UNL1       -0.2699
     15 N         -30.7554   -1.4980   30.8468 N.am    1  UNL1       -0.2773
     16 C         -30.2835   -2.2348   31.9242 C.3     1  UNL1        0.0937
     17 C         -32.2183   -1.4667   30.6609 C.3     1  UNL1        0.0824
     18 C         -32.7886   -2.5438   30.7378 C.3     1  UNL1        0.0472
     19 C         -31.0785   -3.5006   32.1521 C.3     1  UNL1        0.0217
     20 C         -32.4100   -3.4769   31.7907 C.3     1  UNL1        0.0060
     21 C         -34.1874   -2.8085   30.1735 C.3     1  UNL1        0.1231
     22 N         -34.8999   -1.9933   29.8623 N.pl3   1  UNL1       -0.2978
     23 C         -34.7457   -0.7624   30.0655 C.2     1  UNL1        0.0574
     24 C         -33.5888    0.0546   30.1927 C.2     1  UNL1       -0.0087
     25 C         -32.5325   -0.1589   30.3635 C.3     1  UNL1        0.0472
     26 C         -36.2627   -2.4816   29.4131 C.3     1  UNL1        0.1129
     27 S         -34.2517   -4.3153   29.2977 S.3     1  UNL1       -0.1140
     28 C         -33.9635   -4.3668   28.0113 C.3     1  UNL1        0.1137
     29 C         -33.2536   -5.3504   27.4310 C.2     1  UNL1        0.2178
     30 O         -32.7538   -5.0280   26.4033 O.2     1  UNL1       -0.2874
     31 C         -34.3192   -3.2736   27.0584 C.3     1  UNL1        0.0187
     32 C         -33.6240   -3.2194   25.8851 C.3     1  UNL1        0.0014
@<TRIPOS>BOND
     1     9    11    1
     2    11    12    3
     3     2    13    1
     4    13    14    2
     5    13    15   am
     6    15    16    1
     7    15    17    1
     8    18    20    1
     9    19    20    1
    10    18    21    1
    11    21    22    1
    12    22    23    1
    13    23    24    2
    14    17    25    1
    15    24    25    1
    16    22    26    1
    17    21    27    1
    18    27    28    1
    19    28    29    1
    20    29    30    2
    21    28    31    1
    22    31    32    1
    23    16    19    1
    24    18    17    1
    25     1     2   ar
    26     2     5   ar
    27     5     6   ar
    28     6     7   ar
    29     3     1   ar
    30     3     4   ar
    31     4     8   ar
    32     8     9   ar
    33     9    10   ar
    34    10     7   ar
    35     7     3   ar
