@<TRIPOS>MOLECULE
No_1996-gen_results/8p0m/2024-11-26-14-13-15/
 22 23 0 0 0
SMALL
GASTEIGER

@<TRIPOS>ATOM
      1 C         -28.0162   -0.8135   28.8779 C.ar    1  UNL1        0.0066
      2 C         -28.4690   -0.7850   29.8287 C.ar    1  UNL1        0.0798
      3 C         -26.5455   -0.8762   28.8500 C.ar    1  UNL1        0.0003
      4 C         -25.8041   -1.0324   30.0571 C.ar    1  UNL1        0.0014
      5 C         -30.0055   -0.7457   29.8978 C.2     1  UNL1        0.3878
      6 C         -26.5747   -1.0565   31.2005 C.ar    1  UNL1        0.0003
      7 C         -27.9251   -0.9738   31.1683 C.ar    1  UNL1        0.0066
      8 O         -30.5711    0.0580   30.7471 O.co2   1  UNL1       -0.2406
      9 O         -30.6431   -1.3896   29.0486 O.co2   1  UNL1       -0.2406
     10 C         -24.3827   -0.9794   29.8751 C.ar    1  UNL1        0.0199
     11 C         -23.7369    0.3060   30.1791 C.ar    1  UNL1        0.0841
     12 C         -22.4873    0.5438   29.5786 C.ar    1  UNL1        0.0487
     13 C         -21.7726   -0.5214   29.0284 C.ar    1  UNL1        0.1972
     14 C         -22.3768   -1.7277   28.8423 C.ar    1  UNL1        0.0565
     15 C         -23.6900   -1.9503   29.2099 C.ar    1  UNL1        0.0513
     16 N         -24.2625   -3.1050   28.9525 N.pl3   1  UNL1       -0.3040
     17 C         -23.8940   -4.2687   29.4750 C.3     1  UNL1        0.1122
     18 C         -25.3041   -3.2190   27.9665 C.3     1  UNL1        0.1122
     19 O         -20.4790   -0.3719   28.7357 O.3     1  UNL1       -0.2865
     20 C         -24.4474    1.5201   30.7688 C.2     1  UNL1        0.3879
     21 O         -24.4995    2.5712   30.1979 O.co2   1  UNL1       -0.2406
     22 O         -24.8285    1.3265   32.0525 O.co2   1  UNL1       -0.2406
@<TRIPOS>BOND
     1     2     5    1
     2     5     8   ar
     3     5     9   ar
     4     4    10    1
     5    15    16    1
     6    16    17    1
     7    16    18    1
     8    13    19    1
     9    11    20    1
    10    20    21   ar
    11    20    22   ar
    12    10    11   ar
    13    11    12   ar
    14    12    13   ar
    15    13    14   ar
    16    14    15   ar
    17    15    10   ar
    18     1     2   ar
    19     2     7   ar
    20     7     6   ar
    21     6     4   ar
    22     4     3   ar
    23     3     1   ar
