@<TRIPOS>MOLECULE
No_1997-gen_results/8p0m/2024-11-26-14-13-15/
 33 36 0 0 0
SMALL
GASTEIGER

@<TRIPOS>ATOM
      1 C         -28.0162   -0.8135   28.8779 C.ar    1  UNL1        0.0711
      2 C         -28.4690   -0.7850   29.8287 C.3     1  UNL1        0.4186
      3 C         -28.1816    0.4277   28.1134 C.ar    1  UNL1       -0.0004
      4 C         -27.4498    0.6435   26.8500 C.ar    1  UNL1       -0.0222
      5 C         -26.1815    0.0357   26.7145 C.ar    1  UNL1       -0.0043
      6 C         -25.7530   -0.9101   27.6815 C.ar    1  UNL1       -0.0004
      7 C         -26.5502   -1.2250   28.7228 C.ar    1  UNL1        0.0038
      8 F         -28.4389   -2.0369   30.4657 F       1  UNL1       -0.1659
      9 F         -28.2606   -0.0021   30.8968 F       1  UNL1       -0.1659
     10 F         -29.8899   -0.7318   29.6652 F       1  UNL1       -0.1659
     11 C         -27.7732    1.6259   25.8732 C.3     1  UNL1        0.0267
     12 C         -28.2405    1.1745   24.6328 C.3     1  UNL1        0.0050
     13 C         -27.8717    2.9816   26.2497 C.3     1  UNL1        0.0307
     14 C         -28.6957    3.4933   27.1470 C.ar    1  UNL1       -0.0222
     15 C         -28.6371    4.8102   27.4981 C.ar    1  UNL1       -0.0043
     16 C         -29.5458    5.4379   28.3458 C.ar    1  UNL1       -0.0006
     17 C         -30.4732    4.6329   28.9987 C.ar    1  UNL1       -0.0040
     18 C         -30.4954    3.2545   28.7466 C.ar    1  UNL1       -0.0184
     19 C         -29.6380    2.7443   27.8471 C.ar    1  UNL1       -0.0082
     20 C         -31.4674    2.4407   29.5217 C.3     1  UNL1        0.0489
     21 C         -31.3273    2.3525   30.8744 C.ar    1  UNL1       -0.0181
     22 C         -32.0838    1.3875   31.5977 C.ar    1  UNL1       -0.0039
     23 C         -31.8871    1.2605   32.9762 C.ar    1  UNL1       -0.0003
     24 C         -30.9221    2.0629   33.6174 C.ar    1  UNL1       -0.0000
     25 C         -30.1582    2.9923   32.9038 C.ar    1  UNL1       -0.0003
     26 C         -30.3210    3.1102   31.5974 C.ar    1  UNL1       -0.0039
     27 C         -32.4861    1.8452   28.8154 C.3     1  UNL1        0.0351
     28 C         -32.8190    2.1190   27.6997 C.ar    1  UNL1       -0.0215
     29 C         -32.7768    3.3023   27.1063 C.ar    1  UNL1       -0.0042
     30 C         -33.2173    3.5540   25.7281 C.ar    1  UNL1       -0.0003
     31 C         -33.4773    2.4399   24.9952 C.ar    1  UNL1       -0.0000
     32 C         -33.5255    1.1840   25.5315 C.ar    1  UNL1       -0.0003
     33 C         -33.2345    0.9951   26.8069 C.ar    1  UNL1       -0.0042
@<TRIPOS>BOND
     1     1     2    1
     2     2     8    1
     3     2     9    1
     4     2    10    1
     5     4    11    1
     6    11    12    1
     7    11    13    1
     8    13    14    1
     9    18    20    1
    10    20    21    1
    11    20    27    1
    12    27    28    1
    13    28    29   ar
    14    29    30   ar
    15    30    31   ar
    16    31    32   ar
    17    32    33   ar
    18    33    28   ar
    19    14    15   ar
    20    15    16   ar
    21    16    17   ar
    22    17    18   ar
    23    18    19   ar
    24    19    14   ar
    25    21    22   ar
    26    22    23   ar
    27    23    24   ar
    28    24    25   ar
    29    25    26   ar
    30    26    21   ar
    31     1     3   ar
    32     3     4   ar
    33     4     5   ar
    34     5     6   ar
    35     6     7   ar
    36     7     1   ar
