@<TRIPOS>MOLECULE
No_1998-gen_results/8p0m/2024-11-26-14-13-15/
 33 35 0 0 0
SMALL
GASTEIGER

@<TRIPOS>ATOM
      1 C         -28.0162   -0.8135   28.8779 C.ar    1  UNL1        0.0142
      2 C         -27.0636   -0.1190   28.6079 C.ar    1  UNL1        0.1138
      3 C         -25.7647   -0.3897   29.0360 C.ar    1  UNL1        0.1450
      4 C         -25.5296   -1.5302   29.9014 C.ar    1  UNL1        0.0373
      5 C         -26.6577   -2.2915   30.2035 C.ar    1  UNL1        0.0077
      6 C         -27.8548   -1.9555   29.7630 C.ar    1  UNL1        0.0555
      7 O         -24.6574    0.3796   28.7741 O.3     1  UNL1       -0.4783
      8 C         -23.4141    0.0771   29.1279 C.3     1  UNL1        0.1516
      9 C         -22.3936    1.0533   28.8512 C.2     1  UNL1        0.0082
     10 C         -21.1930    0.6207   28.2675 C.2     1  UNL1       -0.0272
     11 C         -21.0106   -0.4776   28.7865 C.3     1  UNL1        0.0297
     12 C         -22.7024   -1.1641   28.6340 C.3     1  UNL1        0.0490
     13 C         -23.4511    0.0589   30.7878 C.3     1  UNL1        0.0483
     14 C         -29.0648   -2.7839   30.1444 C.2     1  UNL1        0.2650
     15 O         -28.9596   -4.0060   30.1999 O.2     1  UNL1       -0.2684
     16 N         -30.2188   -2.2132   30.3739 N.am    1  UNL1       -0.1986
     17 C         -31.3966   -2.9863   30.7299 C.3     1  UNL1        0.1219
     18 C         -27.1425    1.0466   27.6670 C.2     1  UNL1        0.3907
     19 O         -26.3489    1.6180   27.1596 O.co2   1  UNL1       -0.2404
     20 O         -28.3554    1.6092   27.8462 O.co2   1  UNL1       -0.2404
     21 C         -31.5875   -3.3576   31.8618 C.3     1  UNL1        0.0525
     22 C         -31.3043   -2.4579   32.8424 C.ar    1  UNL1       -0.0201
     23 C         -31.1078   -1.1294   32.6324 C.ar    1  UNL1       -0.0042
     24 C         -30.4900   -0.3354   33.7067 C.ar    1  UNL1       -0.0003
     25 C         -30.2370   -0.8944   34.8599 C.ar    1  UNL1       -0.0000
     26 C         -30.4352   -2.2105   35.1624 C.ar    1  UNL1       -0.0003
     27 C         -30.8630   -3.0094   34.1425 C.ar    1  UNL1       -0.0042
     28 C         -32.5193   -2.0352   30.1552 C.2     1  UNL1       -0.0046
     29 C         -32.3312   -1.2547   29.1755 C.2     1  UNL1       -0.0029
     30 C         -33.2906   -0.3671   28.8085 C.2     1  UNL1       -0.0003
     31 C         -33.0645    0.6166   27.7392 C.2     1  UNL1       -0.0000
     32 C         -31.8392    0.6049   27.0734 C.2     1  UNL1       -0.0000
     33 C         -30.9135   -0.3763   27.3575 C.2     1  UNL1       -0.0000
@<TRIPOS>BOND
     1     3     7    1
     2     7     8    1
     3     8     9    1
     4     9    10    2
     5    10    11    1
     6     8    12    1
     7    11    12    1
     8     8    13    1
     9     6    14    1
    10    14    15    2
    11    14    16   am
    12    16    17    1
    13     2    18    1
    14    18    19   ar
    15    18    20   ar
    16    17    21    1
    17    17    28    1
    18    28    29    2
    19    29    30    1
    20    30    31    2
    21    31    32    1
    22    32    33    2
    23    21    22    1
    24     1     2   ar
    25     2     3   ar
    26     3     4   ar
    27     4     5   ar
    28     5     6   ar
    29     6     1   ar
    30    22    23   ar
    31    23    24   ar
    32    24    25   ar
    33    25    26   ar
    34    26    27   ar
    35    27    22   ar
