@<TRIPOS>MOLECULE
No_1999-gen_results/8p0m/2024-11-26-14-13-15/
 35 39 0 0 0
SMALL
GASTEIGER

@<TRIPOS>ATOM
      1 C         -28.0162   -0.8135   28.8779 C.3     1  UNL1        0.3410
      2 C         -27.0636   -0.1190   28.6079 C.ar    1  UNL1        0.0434
      3 C         -25.7923   -0.4302   29.0761 C.ar    1  UNL1       -0.0000
      4 C         -24.5456    0.3494   28.8225 C.ar    1  UNL1        0.0154
      5 C         -24.6586    1.4196   27.8878 C.ar    1  UNL1        0.0212
      6 C         -25.9471    1.6811   27.3792 C.ar    1  UNL1        0.0028
      7 C         -27.0439    0.9739   27.6871 C.ar    1  UNL1        0.0012
      8 F         -28.9951   -0.6028   28.1730 F       1  UNL1       -0.1933
      9 F         -28.4117   -0.6162   30.2431 F       1  UNL1       -0.1933
     10 C         -23.4546    2.1453   27.5989 C.ar    1  UNL1        0.1359
     11 N         -23.4455    3.1408   26.8395 N.ar    1  UNL1       -0.2392
     12 C         -22.1437    1.6581   28.0172 C.2     1  UNL1        0.2840
     13 N         -21.9735    0.7452   28.8808 N.am    1  UNL1       -0.1796
     14 C         -23.1640   -0.0752   29.2474 C.3     1  UNL1        0.1911
     15 N         -22.9772   -1.1037   30.0544 N.3     1  UNL1       -0.1945
     16 C         -24.5625    3.4057   26.0481 C.ar    1  UNL1        0.0990
     17 C         -25.8544    2.8578   26.4341 C.ar    1  UNL1        0.0207
     18 O         -21.1361    2.4205   27.7841 O.2     1  UNL1       -0.2667
     19 C         -23.0946   -1.0268   31.4109 C.3     1  UNL1        0.0955
     20 C         -24.4553   -0.8619   32.0180 C.3     1  UNL1        0.0452
     21 C         -24.6818    0.4459   32.6701 C.ar    1  UNL1       -0.0207
     22 C         -26.0314    0.6380   33.1657 C.ar    1  UNL1       -0.0040
     23 C         -26.4930    1.9312   33.2964 C.ar    1  UNL1        0.0061
     24 C         -25.7191    3.0517   32.8645 C.ar    1  UNL1        0.0760
     25 C         -24.5589    2.7782   32.1042 C.ar    1  UNL1        0.0061
     26 C         -24.1669    1.5729   31.9741 C.ar    1  UNL1       -0.0040
     27 C         -26.3198    4.4314   32.9625 C.2     1  UNL1        0.3457
     28 O         -27.1154    4.7278   33.7204 O.2     1  UNL1       -0.2445
     29 O         -25.4508    5.3705   32.5173 O.3     1  UNL1       -0.4210
     30 C         -26.0114    6.5929   32.1902 C.ar    1  UNL1        0.1488
     31 C         -26.5753    7.2835   32.8607 C.ar    1  UNL1        0.0376
     32 C         -25.5971    6.9121   30.7822 C.ar    1  UNL1        0.0376
     33 C         -26.1383    8.0450   30.1408 C.ar    1  UNL1        0.0031
     34 C         -27.1165    8.6012   32.3401 C.ar    1  UNL1        0.0031
     35 C         -26.8402    8.9303   31.0182 C.ar    1  UNL1        0.0002
@<TRIPOS>BOND
     1     1     2    1
     2     1     8    1
     3     1     9    1
     4    10    12    1
     5    12    13   am
     6     4    14    1
     7    13    14    1
     8    14    15    1
     9    12    18    2
    10    15    19    1
    11    19    20    1
    12    24    27    1
    13    27    28    2
    14    27    29    1
    15    29    30    1
    16    20    21    1
    17     6    17   ar
    18    17    16   ar
    19    16    11   ar
    20    11    10   ar
    21    10     5   ar
    22     2     3   ar
    23     3     4   ar
    24     4     5   ar
    25     5     6   ar
    26     6     7   ar
    27     7     2   ar
    28    30    31   ar
    29    31    34   ar
    30    34    35   ar
    31    35    33   ar
    32    33    32   ar
    33    32    30   ar
    34    21    22   ar
    35    22    23   ar
    36    23    24   ar
    37    24    25   ar
    38    25    26   ar
    39    26    21   ar
