@<TRIPOS>MOLECULE
No_2-gen_results/8p0m/2024-11-26-14-13-15/
 35 36 0 0 0
SMALL
GASTEIGER

@<TRIPOS>ATOM
      1 C         -28.0162   -0.8135   28.8779 C.3     1  UNL1        0.0227
      2 C         -28.4690   -0.7850   29.8287 C.3     1  UNL1        0.0125
      3 C         -26.5042   -0.7777   28.8766 C.3     1  UNL1        0.0071
      4 C         -25.8305   -1.6807   29.6849 C.3     1  UNL1        0.0326
      5 C         -28.1490   -1.8854   30.9031 C.3     1  UNL1        0.0913
      6 C         -28.9302   -2.0829   32.0356 C.3     1  UNL1        0.3727
      7 C         -26.5519   -1.6972   31.0407 C.3     1  UNL1        0.0110
      8 F         -28.9826   -3.3748   32.2983 F       1  UNL1       -0.1742
      9 O         -30.2517   -1.6252   31.8618 O.3     1  UNL1       -0.2173
     10 F         -28.4375   -1.4742   33.1071 F       1  UNL1       -0.1742
     11 C         -24.3589   -1.4445   29.8698 C.3     1  UNL1        0.0245
     12 C         -23.8874   -0.2109   29.4814 C.2     1  UNL1       -0.0417
     13 C         -22.6194   -0.1536   28.7419 C.2     1  UNL1       -0.0091
     14 C         -23.6954    0.7766   30.6665 C.3     1  UNL1        0.0541
     15 C         -28.3707    0.5388   28.1091 C.ar    1  UNL1       -0.0225
     16 C         -27.5707    1.5395   28.1599 C.ar    1  UNL1       -0.0043
     17 C         -29.4815    0.4851   27.1959 C.ar    1  UNL1       -0.0043
     18 C         -29.7372    1.4818   26.3366 C.ar    1  UNL1       -0.0003
     19 C         -27.8828    2.7186   27.3372 C.ar    1  UNL1       -0.0003
     20 C         -28.9480    2.6685   26.4535 C.ar    1  UNL1       -0.0000
     21 C         -25.9656   -3.1175   29.0269 C.3     1  UNL1        0.1548
     22 C         -23.6186    2.1763   30.2019 C.3     1  UNL1        0.1468
     23 O         -24.5475    2.6539   29.5229 O.3     1  UNL1       -0.3515
     24 C         -25.7579   -4.0582   30.0599 C.3     1  UNL1        0.0684
     25 C         -26.4064   -5.1478   29.5312 C.3     1  UNL1        0.1847
     26 O         -27.2463   -4.9166   28.7540 O.3     1  UNL1       -0.2203
     27 P         -31.5411   -2.3546   32.1836 P.3     1  UNL1        0.5364
     28 O         -31.5949   -2.9013   33.2675 O.3     1  UNL1       -0.1144
     29 O         -32.5843   -1.2196   32.0812 O.3     1  UNL1       -0.1144
     30 O         -31.7192   -3.1057   30.8120 O.2     1  UNL1       -0.2223
     31 O         -24.8424   -3.1873   28.1772 O.3     1  UNL1       -0.2231
     32 C         -24.2841    3.2242   28.2631 C.3     1  UNL1        0.1373
     33 C         -24.1355    2.3209   27.2452 C.2     1  UNL1        0.0028
     34 C         -24.4549    2.6771   26.2340 C.2     1  UNL1       -0.0024
     35 C         -24.7697    4.4283   27.9529 C.3     1  UNL1        0.0370
@<TRIPOS>BOND
     1     1     2    1
     2     1     3    1
     3     3     4    1
     4     2     5    1
     5     5     6    1
     6     4     7    1
     7     5     7    1
     8     6     8    1
     9     6     9    1
    10     6    10    1
    11     4    11    1
    12    11    12    1
    13    12    13    2
    14    12    14    1
    15     1    15    1
    16     4    21    1
    17    14    22    1
    18    22    23    1
    19    21    24    1
    20    24    25    1
    21    25    26    1
    22     9    27    1
    23    27    28    1
    24    27    29    1
    25    27    30    2
    26    21    31    1
    27    23    32    1
    28    32    33    1
    29    33    34    2
    30    32    35    1
    31    15    16   ar
    32    16    19   ar
    33    19    20   ar
    34    20    18   ar
    35    18    17   ar
    36    17    15   ar
