@<TRIPOS>MOLECULE
No_200-gen_results/8p0m/2024-11-26-14-13-15/
 18 20 0 0 0
SMALL
GASTEIGER

@<TRIPOS>ATOM
      1 C         -28.0162   -0.8135   28.8779 C.ar    1  UNL1       -0.0042
      2 C         -28.4690   -0.7850   29.8287 C.ar    1  UNL1       -0.0003
      3 C         -27.1356    0.2359   28.5352 C.ar    1  UNL1       -0.0216
      4 C         -26.3351    0.2900   27.2835 C.3     1  UNL1        0.0515
      5 C         -28.2789    0.0305   30.6941 C.ar    1  UNL1       -0.0003
      6 C         -27.4578    1.1551   30.6624 C.ar    1  UNL1       -0.0044
      7 C         -26.7863    1.2369   29.4971 C.ar    1  UNL1       -0.0210
      8 C         -24.9952    0.3890   27.4877 C.2     1  UNL1       -0.0252
      9 C         -24.4558    1.3524   28.3706 C.2     1  UNL1        0.0084
     10 C         -24.9861    1.9871   29.1878 C.3     1  UNL1        0.1488
     11 C         -25.4759    2.8282   30.1481 C.3     1  UNL1        0.2244
     12 C         -25.8112    2.1189   29.5825 C.3     1  UNL1        0.0829
     13 C         -26.5286    3.2787   28.4108 C.3     1  UNL1        0.1493
     14 F         -25.1575    1.6666   30.5477 F       1  UNL1       -0.2313
     15 O         -26.5223    3.0962   28.9220 O.3     1  UNL1       -0.3507
     16 C         -27.5082    3.7317   30.0514 C.3     1  UNL1        0.1741
     17 O         -25.1521    1.5231   28.8547 O.3     1  UNL1       -0.3470
     18 C         -24.6035    0.2646   29.4520 C.3     1  UNL1        0.1667
@<TRIPOS>BOND
     1     3     4    1
     2     4     8    1
     3     8     9    2
     4     9    10    1
     5    10    11    1
     6     7    12    1
     7    10    12    1
     8    12    13    1
     9    11    14    1
    10    13    15    1
    11    15    16    1
    12    10    17    1
    13     9    18    1
    14    17    18    1
    15     1     2   ar
    16     2     5   ar
    17     5     6   ar
    18     6     7   ar
    19     7     3   ar
    20     3     1   ar
