@<TRIPOS>MOLECULE
No_2000-gen_results/8p0m/2024-11-26-14-13-15/
 26 28 0 0 0
SMALL
GASTEIGER

@<TRIPOS>ATOM
      1 C         -28.0162   -0.8135   28.8779 C.ar    1  UNL1       -0.0043
      2 C         -27.0636   -0.1189   28.6079 C.ar    1  UNL1       -0.0222
      3 C         -26.9287    1.1713   29.0083 C.ar    1  UNL1       -0.0043
      4 C         -27.9560    1.7411   29.7840 C.ar    1  UNL1       -0.0003
      5 C         -29.0569   -0.3271   29.7466 C.ar    1  UNL1       -0.0003
      6 C         -28.9828    0.9722   30.1516 C.ar    1  UNL1       -0.0000
      7 C         -25.8815   -0.6260   27.7945 C.3     1  UNL1        0.0267
      8 C         -24.6972   -1.0572   28.6241 C.3     1  UNL1        0.0084
      9 C         -24.6429   -2.2546   29.1042 C.3     1  UNL1        0.0007
     10 C         -23.6235   -0.1510   28.7891 C.3     1  UNL1        0.0227
     11 C         -23.4091    1.1597   28.3094 C.ar    1  UNL1       -0.0225
     12 C         -24.1728    2.1886   28.4937 C.ar    1  UNL1       -0.0043
     13 C         -24.0721    3.4259   27.8063 C.ar    1  UNL1       -0.0003
     14 C         -23.6258    3.2170   26.4327 C.ar    1  UNL1       -0.0000
     15 C         -22.9023    2.1236   26.0632 C.ar    1  UNL1       -0.0003
     16 C         -22.8166    1.0602   26.9272 C.ar    1  UNL1       -0.0043
     17 C         -22.5256   -0.5806   29.6738 C.3     1  UNL1        0.0047
     18 C         -27.8652    3.1938   30.2615 C.ar    1  UNL1       -0.0000
     19 C         -28.9058    3.8731   30.5957 C.ar    1  UNL1        0.0002
     20 C         -26.5331    3.7710   30.3282 C.ar    1  UNL1        0.0002
     21 C         -26.4704    5.1807   30.1043 C.ar    1  UNL1        0.0066
     22 C         -28.8014    5.3128   30.6340 C.ar    1  UNL1        0.0066
     23 C         -27.5280    5.9565   30.5070 C.ar    1  UNL1        0.0798
     24 C         -27.3866    7.4216   30.5422 C.2     1  UNL1        0.3878
     25 O         -28.0607    8.1529   31.0329 O.co2   1  UNL1       -0.2406
     26 O         -26.0770    7.7628   30.3293 O.co2   1  UNL1       -0.2406
@<TRIPOS>BOND
     1     2     7    1
     2     7     8    1
     3     8     9    1
     4     8    10    1
     5    10    11    1
     6    10    17    1
     7     4    18    1
     8    23    24    1
     9    24    25   ar
    10    24    26   ar
    11    11    12   ar
    12    12    13   ar
    13    13    14   ar
    14    14    15   ar
    15    15    16   ar
    16    16    11   ar
    17    18    19   ar
    18    19    22   ar
    19    22    23   ar
    20    23    21   ar
    21    21    20   ar
    22    20    18   ar
    23     1     2   ar
    24     2     3   ar
    25     3     4   ar
    26     4     6   ar
    27     6     5   ar
    28     5     1   ar
