@<TRIPOS>MOLECULE
No_2001-gen_results/8p0m/2024-11-26-14-13-15/
 32 34 0 0 0
SMALL
GASTEIGER

@<TRIPOS>ATOM
      1 C         -28.0162   -0.8135   28.8779 C.ar    1  UNL1        0.0046
      2 C         -28.4690   -0.7850   29.8287 C.ar    1  UNL1        0.0555
      3 C         -26.5042   -0.7777   28.8766 C.ar    1  UNL1        0.0001
      4 C         -25.8103   -0.8531   30.1028 C.ar    1  UNL1        0.0000
      5 C         -27.9906   -0.8916   31.2257 C.ar    1  UNL1        0.0046
      6 C         -26.6042   -0.8676   31.2652 C.ar    1  UNL1        0.0001
      7 C         -30.0739   -0.8360   29.8615 C.2     1  UNL1        0.2717
      8 O         -30.5608   -0.4417   28.9417 O.2     1  UNL1       -0.2679
      9 N         -30.7428   -1.0431   31.0560 N.am    1  UNL1       -0.1332
     10 C         -32.1782   -1.0348   31.0369 C.2     1  UNL1        0.3272
     11 C         -32.7161   -1.5278   32.0197 C.2     1  UNL1        0.3247
     12 O         -33.9560   -1.6098   32.1613 O.2     1  UNL1       -0.2629
     13 N         -31.9996   -2.4392   32.8697 N.am    1  UNL1       -0.1715
     14 C         -32.4945   -3.0708   33.9951 C.ar    1  UNL1        0.0740
     15 O         -32.6927   -0.3597   30.1593 O.2     1  UNL1       -0.2628
     16 C         -32.5268   -2.7995   35.0197 C.ar    1  UNL1        0.0212
     17 C         -33.0637   -3.6245   36.1208 C.ar    1  UNL1        0.0567
     18 C         -32.8136   -4.5002   33.6160 C.ar    1  UNL1        0.0166
     19 C         -33.3247   -5.3403   34.5412 C.ar    1  UNL1        0.0015
     20 C         -33.1591   -3.1149   37.5308 C.2     1  UNL1        0.2690
     21 C         -33.3773   -4.8671   35.8128 C.ar    1  UNL1        0.0047
     22 N         -32.5543   -2.0946   37.8799 N.am    1  UNL1       -0.1754
     23 O         -33.9198   -3.7125   38.2831 O.2     1  UNL1       -0.2680
     24 C         -32.6374   -1.5068   39.2036 C.ar    1  UNL1        0.0737
     25 C         -32.0871   -0.4109   39.3212 C.ar    1  UNL1        0.0166
     26 C         -32.1116    0.3494   40.5902 C.ar    1  UNL1        0.0013
     27 C         -32.8132   -0.3143   41.6503 C.ar    1  UNL1        0.0001
     28 C         -33.3838   -1.5443   41.4002 C.ar    1  UNL1        0.0010
     29 C         -33.3001   -2.1449   40.1468 C.ar    1  UNL1        0.0166
     30 C         -34.1265   -2.2570   42.4706 C.2     1  UNL1       -0.0045
     31 C         -34.0924   -1.8211   43.7175 C.2     1  UNL1       -0.0258
     32 C         -33.4700   -0.5109   43.8997 C.3     1  UNL1        0.0307
@<TRIPOS>BOND
     1     2     7    1
     2     7     8    2
     3     7     9   am
     4     9    10   am
     5    10    11    1
     6    11    12    2
     7    11    13   am
     8    13    14    1
     9    10    15    2
    10    17    20    1
    11    20    22   am
    12    20    23    2
    13    22    24    1
    14    28    30    1
    15    30    31    2
    16    31    32    1
    17    24    25   ar
    18    25    26   ar
    19    26    27   ar
    20    27    28   ar
    21    28    29   ar
    22    29    24   ar
    23    14    16   ar
    24    16    17   ar
    25    17    21   ar
    26    21    19   ar
    27    19    18   ar
    28    18    14   ar
    29     1     2   ar
    30     2     5   ar
    31     5     6   ar
    32     6     4   ar
    33     4     3   ar
    34     3     1   ar
