@<TRIPOS>MOLECULE
No_2004-gen_results/8p0m/2024-11-26-14-13-15/
 10 10 0 0 0
SMALL
GASTEIGER

@<TRIPOS>ATOM
      1 O         -28.1229   -1.3353   28.4874 O.2     1  UNL1       -0.2686
      2 C         -28.5208   -0.4363   29.0779 C.2     1  UNL1        0.2652
      3 C         -29.6977    0.0507   28.9764 C.2     1  UNL1        0.0886
      4 N         -27.4735    0.3426   29.7907 N.am    1  UNL1       -0.2018
      5 C         -27.8125    1.4527   30.5890 C.3     1  UNL1        0.1158
      6 C         -30.6222   -0.3879   28.2063 C.2     1  UNL1        0.2792
      7 C         -29.1203    1.8292   30.4734 C.3     1  UNL1        0.0284
      8 C         -30.0367    1.2835   29.7459 C.3     1  UNL1        0.0376
      9 F         -30.0643   -0.7624   27.0709 F       1  UNL1       -0.1722
     10 F         -31.0561   -1.5666   28.6994 F       1  UNL1       -0.1722
@<TRIPOS>BOND
     1     1     2    2
     2     2     3    1
     3     2     4   am
     4     4     5    1
     5     3     6    2
     6     5     7    1
     7     3     8    1
     8     7     8    1
     9     6     9    1
    10     6    10    1
