@<TRIPOS>MOLECULE
No_2005-gen_results/8p0m/2024-11-26-14-13-15/
 15 17 0 0 0
SMALL
GASTEIGER

@<TRIPOS>ATOM
      1 C         -28.0162   -0.8135   28.8779 C.ar    1  UNL1        0.0150
      2 C         -28.4690   -0.7850   29.8287 C.ar    1  UNL1        0.0985
      3 C         -28.1960    0.3478   28.0550 C.ar    1  UNL1       -0.0176
      4 C         -27.4421    0.5100   26.7946 C.3     1  UNL1        0.0471
      5 C         -26.1689   -0.0794   26.6787 C.3     1  UNL1        0.1064
      6 C         -25.7312   -0.9607   27.6875 C.ar    1  UNL1       -0.0071
      7 C         -26.5043   -1.2222   28.7582 C.ar    1  UNL1       -0.0016
      8 N         -29.6164   -0.3573   30.1420 N.ar    1  UNL1       -0.2423
      9 C         -29.4473    0.8619   28.1473 C.ar    1  UNL1        0.0165
     10 C         -30.1604    0.5785   29.2913 C.ar    1  UNL1        0.0986
     11 C         -25.9067   -2.2467   29.7029 C.ar    1  UNL1       -0.0002
     12 C         -24.6762   -2.7777   29.4373 C.ar    1  UNL1       -0.0000
     13 C         -23.8068   -2.2214   28.5195 C.ar    1  UNL1       -0.0003
     14 C         -24.3102   -1.3351   27.5942 C.ar    1  UNL1       -0.0031
     15 CL        -25.2418    0.3007   25.3163 Cl      1  UNL1       -0.1098
@<TRIPOS>BOND
     1     3     4    1
     2     4     5    1
     3     5     6    1
     4     1     7    1
     5     5    15    1
     6     1     2   ar
     7     2     8   ar
     8     8    10   ar
     9    10     9   ar
    10     9     3   ar
    11     3     1   ar
    12     6     7   ar
    13     7    11   ar
    14    11    12   ar
    15    12    13   ar
    16    13    14   ar
    17    14     6   ar
