@<TRIPOS>MOLECULE
No_2006-gen_results/8p0m/2024-11-26-14-13-15/
 15 17 0 0 0
SMALL
GASTEIGER

@<TRIPOS>ATOM
      1 C         -28.0162   -0.8135   28.8779 C.ar    1  UNL1        0.0000
      2 C         -28.4690   -0.7850   29.8287 C.ar    1  UNL1        0.0000
      3 C         -27.1356    0.2359   28.5352 C.ar    1  UNL1        0.0008
      4 C         -26.3351    0.2900   27.2835 C.ar    1  UNL1        0.0002
      5 C         -28.3692    0.1957   30.9236 C.ar    1  UNL1        0.0000
      6 C         -27.5158    1.2655   30.6540 C.ar    1  UNL1        0.0008
      7 C         -26.8411    1.2942   29.4761 C.ar    1  UNL1        0.0106
      8 C         -25.3612    0.7750   26.9673 C.ar    1  UNL1        0.0039
      9 C         -24.8302    1.7668   28.0168 C.ar    1  UNL1        0.0298
     10 C         -25.5666    2.0015   29.2021 C.ar    1  UNL1        0.0591
     11 C         -23.6076    2.5924   27.6643 C.ar    1  UNL1        0.0997
     12 N         -22.9138    2.2684   26.5629 N.ar    1  UNL1       -0.2423
     13 C         -23.4564    1.4776   25.5851 C.ar    1  UNL1        0.0989
     14 C         -24.5860    0.7141   25.8019 C.ar    1  UNL1        0.0207
     15 CL        -24.6501    2.4011   30.5347 Cl      1  UNL1       -0.0822
@<TRIPOS>BOND
     1    10    15    1
     2     9    11   ar
     3    11    12   ar
     4    12    13   ar
     5    13    14   ar
     6    14     8   ar
     7     1     2   ar
     8     2     5   ar
     9     5     6   ar
    10     6     7   ar
    11     3     1   ar
    12     3     4   ar
    13     4     8   ar
    14     8     9   ar
    15     9    10   ar
    16    10     7   ar
    17     7     3   ar
