@<TRIPOS>MOLECULE
No_2008-gen_results/8p0m/2024-11-26-14-13-15/
 15 16 0 0 0
SMALL
GASTEIGER

@<TRIPOS>ATOM
      1 C         -28.0162   -0.8135   28.8779 C.3     1  UNL1        0.1232
      2 C         -28.4690   -0.7850   29.8287 C.2     1  UNL1        0.0480
      3 N         -26.6082   -0.9454   28.8569 N.3     1  UNL1       -0.1935
      4 C         -26.0396   -1.5690   29.9264 C.3     1  UNL1        0.1654
      5 C         -30.0290   -0.5837   29.9472 C.1     1  UNL1        0.1260
      6 N         -24.5999   -1.7470   29.9535 N.pl3   1  UNL1       -0.2217
      7 C         -27.9008   -1.2673   31.1538 C.3     1  UNL1        0.0377
      8 C         -26.4197   -1.2694   31.2690 C.3     1  UNL1        0.0447
      9 C         -23.7308   -0.8685   29.4297 C.ar    1  UNL1        0.0668
     10 C         -24.0006    0.4949   29.2244 C.ar    1  UNL1        0.0161
     11 C         -23.0399    1.3190   28.6783 C.ar    1  UNL1        0.0013
     12 C         -21.7287    0.8750   28.4083 C.ar    1  UNL1        0.0001
     13 C         -22.3429   -1.2613   29.1031 C.ar    1  UNL1        0.0161
     14 C         -21.4122   -0.3886   28.7064 C.ar    1  UNL1        0.0013
     15 O         -30.7120   -1.0953   30.6256 O.2     1  UNL1       -0.2317
@<TRIPOS>BOND
     1     1     2    1
     2     1     3    1
     3     3     4    1
     4     2     5    2
     5     4     6    1
     6     2     7    1
     7     4     8    1
     8     7     8    1
     9     6     9    1
    10     5    15    2
    11     9    10   ar
    12    10    11   ar
    13    11    12   ar
    14    12    14   ar
    15    14    13   ar
    16    13     9   ar
