@<TRIPOS>MOLECULE
No_2009-gen_results/8p0m/2024-11-26-14-13-15/
 18 19 0 0 0
SMALL
GASTEIGER

@<TRIPOS>ATOM
      1 C         -28.0162   -0.8135   28.8779 C.3     1  UNL1        0.1106
      2 C         -27.0636   -0.1190   28.6079 C.3     1  UNL1        0.0545
      3 C         -26.9716    0.7139   27.5060 C.3     1  UNL1        0.2218
      4 C         -28.1053    0.7744   26.6421 C.2     1  UNL1        0.2224
      5 C         -29.2041    0.1179   27.0477 C.3     1  UNL1        0.2257
      6 C         -29.2127   -0.6088   28.1281 C.3     1  UNL1        0.0627
      7 O         -30.2936    0.2344   26.2281 O.3     1  UNL1       -0.4716
      8 F         -25.8516    1.3888   27.1742 F       1  UNL1       -0.2291
      9 C         -27.7922   -1.6601   30.1259 C.2     1  UNL1        0.3646
     10 O         -26.8366   -2.3059   30.3490 O.co2   1  UNL1       -0.2457
     11 O         -28.8481   -1.8298   30.8789 O.co2   1  UNL1       -0.2457
     12 O         -28.0195    1.6017   25.5651 O.2     1  UNL1       -0.2894
     13 C         -31.3930    0.5765   26.7303 C.ar    1  UNL1        0.1390
     14 C         -32.3466   -0.1637   26.4749 C.ar    1  UNL1        0.0369
     15 C         -33.6550    0.0081   27.0704 C.ar    1  UNL1        0.0031
     16 C         -33.8225    1.1577   27.8941 C.ar    1  UNL1        0.0002
     17 C         -32.7556    1.9597   28.1633 C.ar    1  UNL1        0.0031
     18 C         -31.5134    1.6946   27.6523 C.ar    1  UNL1        0.0369
@<TRIPOS>BOND
     1     2     3    1
     2     3     4    1
     3     4     5    1
     4     1     6    1
     5     5     6    1
     6     5     7    1
     7     3     8    1
     8     1     9    1
     9     9    10   ar
    10     9    11   ar
    11     4    12    2
    12     7    13    1
    13     2     1    1
    14    13    14   ar
    15    14    15   ar
    16    15    16   ar
    17    16    17   ar
    18    17    18   ar
    19    18    13   ar
