@<TRIPOS>MOLECULE
No_201-gen_results/8p0m/2024-11-26-14-13-15/
 26 27 0 0 0
SMALL
GASTEIGER

@<TRIPOS>ATOM
      1 C         -28.0162   -0.8135   28.8779 C.ar    1  UNL1        0.0103
      2 C         -28.4690   -0.7850   29.8287 C.ar    1  UNL1        0.0761
      3 C         -26.5042   -0.7777   28.8766 C.ar    1  UNL1        0.0716
      4 C         -25.6540   -0.6597   27.7191 C.3     1  UNL1        0.4186
      5 C         -27.9180   -0.9374   31.1824 C.ar    1  UNL1        0.0064
      6 C         -26.5423   -0.9399   31.2606 C.ar    1  UNL1        0.0002
      7 C         -25.7832   -0.8935   30.1201 C.ar    1  UNL1        0.0039
      8 F         -24.5285   -1.2244   27.7836 F       1  UNL1       -0.1659
      9 F         -25.4143    0.6864   27.4207 F       1  UNL1       -0.1659
     10 F         -26.3277   -1.0051   26.5536 F       1  UNL1       -0.1659
     11 C         -30.0525   -0.8138   29.8905 C.2     1  UNL1        0.3480
     12 O         -30.6188   -0.2689   29.0853 O.3     1  UNL1       -0.3852
     13 O         -30.6811   -1.4001   30.8847 O.2     1  UNL1       -0.2444
     14 C         -31.8803   -0.6154   28.5129 C.2     1  UNL1        0.3621
     15 C         -32.4916    0.5388   27.8951 C.2     1  UNL1        0.1391
     16 C         -31.9837    1.7431   28.0460 C.3     1  UNL1        0.0788
     17 C         -31.5440    2.3271   27.0283 C.ar    1  UNL1       -0.0160
     18 C         -30.6143    2.5786   26.6907 C.ar    1  UNL1       -0.0039
     19 C         -30.1557    3.1958   25.4104 C.ar    1  UNL1       -0.0003
     20 C         -31.1575    3.6278   24.5896 C.ar    1  UNL1       -0.0000
     21 C         -32.4236    3.4359   24.9370 C.ar    1  UNL1       -0.0003
     22 C         -32.7035    2.8234   26.1148 C.ar    1  UNL1       -0.0039
     23 O         -32.1607   -1.7685   28.3961 O.2     1  UNL1       -0.2431
     24 N         -33.6053    0.2782   27.2497 N.2     1  UNL1       -0.2413
     25 C         -33.7646   -0.3886   26.1842 C.2     1  UNL1        0.0988
     26 C         -34.4763   -1.1070   26.0083 C.2     1  UNL1        0.0222
@<TRIPOS>BOND
     1     3     4    1
     2     4     8    1
     3     4     9    1
     4     4    10    1
     5     2    11    1
     6    11    12    1
     7    11    13    2
     8    12    14    1
     9    14    15    1
    10    15    16    1
    11    14    23    2
    12    15    24    2
    13    24    25    1
    14    25    26    2
    15    16    17    1
    16    17    18   ar
    17    18    19   ar
    18    19    20   ar
    19    20    21   ar
    20    21    22   ar
    21    22    17   ar
    22     1     2   ar
    23     2     5   ar
    24     5     6   ar
    25     6     7   ar
    26     7     3   ar
    27     3     1   ar
