@<TRIPOS>MOLECULE
No_2011-gen_results/8p0m/2024-11-26-14-13-15/
 9 9 0 0 0
SMALL
GASTEIGER

@<TRIPOS>ATOM
      1 C         -28.0162   -0.8135   28.8779 C.ar    1  UNL1        0.0331
      2 C         -28.4690   -0.7850   29.8287 C.ar    1  UNL1        0.0467
      3 C         -28.1960    0.3478   28.0550 C.ar    1  UNL1        0.1426
      4 C         -29.0191    1.3501   28.3782 C.ar    1  UNL1        0.0626
      5 C         -29.4107    0.1803   30.3782 C.ar    1  UNL1        0.2230
      6 C         -29.6059    1.2495   29.6193 C.ar    1  UNL1        0.1810
      7 F         -27.5345    0.3378   26.8475 F       1  UNL1       -0.2041
      8 O         -29.9500   -0.0032   31.6543 O.3     1  UNL1       -0.2842
      9 F         -30.4341    2.2082   30.0013 F       1  UNL1       -0.2007
@<TRIPOS>BOND
     1     3     7    1
     2     5     8    1
     3     6     9    1
     4     1     2   ar
     5     2     5   ar
     6     5     6   ar
     7     6     4   ar
     8     4     3   ar
     9     3     1   ar
