@<TRIPOS>MOLECULE
No_2013-gen_results/8p0m/2024-11-26-14-13-15/
 35 38 0 0 0
SMALL
GASTEIGER

@<TRIPOS>ATOM
      1 O         -28.1229   -1.3353   28.4874 O.2     1  UNL1       -0.2748
      2 C         -28.5208   -0.4363   29.0779 C.2     1  UNL1        0.2277
      3 C         -27.6655    0.1129   30.0346 C.3     1  UNL1        0.1095
      4 N         -29.5662    0.3302   28.6099 N.am    1  UNL1       -0.2795
      5 C         -26.9528   -0.6475   30.7643 C.3     1  UNL1        0.1047
      6 C         -30.0329    1.5087   29.1443 C.3     1  UNL1        0.0934
      7 C         -29.9496    2.5000   28.7077 C.3     1  UNL1        0.0216
      8 C         -29.4395    2.8036   27.2971 C.3     1  UNL1        0.0035
      9 C         -28.9945    1.9368   26.5817 C.3     1  UNL1        0.0199
     10 C         -29.5457    0.2067   27.1407 C.3     1  UNL1        0.0933
     11 C         -25.8413   -1.2768   30.1172 C.ar    1  UNL1       -0.0039
     12 C         -25.1466   -0.6684   29.1623 C.ar    1  UNL1       -0.0027
     13 C         -23.7569   -0.8482   29.2232 C.ar    1  UNL1       -0.0003
     14 C         -23.1448   -1.9751   29.5848 C.ar    1  UNL1       -0.0000
     15 C         -24.0914   -2.8099   30.3033 C.ar    1  UNL1       -0.0003
     16 C         -25.2937   -2.4539   30.6997 C.ar    1  UNL1       -0.0027
     17 N         -26.5414   -0.0653   32.0696 N.pl3   1  UNL1       -0.2996
     18 C         -27.2596   -0.3071   33.2160 C.2     1  UNL1        0.0597
     19 C         -26.6843    0.2436   34.3861 C.2     1  UNL1        0.0207
     20 C         -26.1430    1.3153   32.1760 C.3     1  UNL1        0.1267
     21 C         -26.0865    1.6027   33.7563 C.3     1  UNL1        0.1610
     22 O         -26.8613    2.6834   34.1535 O.3     1  UNL1       -0.3453
     23 C         -26.3728    3.8951   33.8859 C.3     1  UNL1        0.1658
     24 C         -25.8956    4.0544   32.6032 C.2     1  UNL1       -0.0010
     25 C         -25.5268    2.8296   31.8985 C.2     1  UNL1       -0.0060
     26 C         -25.4630    2.9443   30.3278 C.2     1  UNL1       -0.0031
     27 C         -26.6016    3.5536   29.7330 C.2     1  UNL1       -0.0003
     28 C         -26.3964    3.8331   28.3133 C.2     1  UNL1       -0.0000
     29 C         -25.2244    4.1916   27.9612 C.2     1  UNL1       -0.0000
     30 C         -25.0835    4.6752   26.7072 C.2     1  UNL1       -0.0000
     31 C         -23.7663    5.1342   26.3251 C.2     1  UNL1        0.0000
     32 C         -28.5377    1.8652   25.2403 C.3     1  UNL1        0.0017
     33 C         -27.5185    1.0043   24.9875 C.3     1  UNL1        0.0001
     34 C         -25.4344    5.3104   32.1008 C.3     1  UNL1        0.1190
     35 CL        -24.4468    6.3055   32.9283 Cl      1  UNL1       -0.1088
@<TRIPOS>BOND
     1     1     2    2
     2     2     3    1
     3     2     4   am
     4     3     5    1
     5     4     6    1
     6     7     8    1
     7     4    10    1
     8     9    10    1
     9     5    11    1
    10     5    17    1
    11    17    18    1
    12    18    19    2
    13    17    20    1
    14    19    21    1
    15    20    21    1
    16    21    22    1
    17    22    23    1
    18    23    24    1
    19    20    25    1
    20    24    25    2
    21    25    26    1
    22    26    27    2
    23    27    28    1
    24    28    29    2
    25    29    30    1
    26    30    31    2
    27     9    32    1
    28    32    33    1
    29    24    34    1
    30    34    35    1
    31     6     7    1
    32     8     9    1
    33    11    12   ar
    34    12    13   ar
    35    13    14   ar
    36    14    15   ar
    37    15    16   ar
    38    16    11   ar
