@<TRIPOS>MOLECULE
No_2014-gen_results/8p0m/2024-11-26-14-13-15/
 12 12 0 0 0
SMALL
GASTEIGER

@<TRIPOS>ATOM
      1 C         -28.0162   -0.8135   28.8779 C.ar    1  UNL1        0.0296
      2 C         -27.0636   -0.1190   28.6079 C.ar    1  UNL1        0.1401
      3 C         -26.9287    1.1713   29.0083 C.ar    1  UNL1        0.0296
      4 C         -27.9560    1.7411   29.7840 C.ar    1  UNL1        0.0023
      5 C         -29.0569   -0.3271   29.7466 C.ar    1  UNL1        0.0023
      6 C         -28.9828    0.9722   30.1516 C.ar    1  UNL1        0.0001
      7 F         -26.0277   -0.5935   27.8711 F       1  UNL1       -0.2042
      8 C         -30.0765    1.5021   31.0081 C.2     1  UNL1       -0.0000
      9 C         -29.6936    2.0786   32.0805 C.2     1  UNL1       -0.0003
     10 C         -30.6568    2.5832   33.0204 C.2     1  UNL1       -0.0046
     11 C         -32.0042    2.3931   32.7098 C.2     1  UNL1       -0.0258
     12 C         -32.9891    2.8357   33.5493 C.3     1  UNL1        0.0307
@<TRIPOS>BOND
     1     2     7    1
     2     6     8    1
     3     8     9    2
     4     9    10    1
     5    10    11    2
     6    11    12    1
     7     1     2   ar
     8     2     3   ar
     9     3     4   ar
    10     4     6   ar
    11     6     5   ar
    12     5     1   ar
