@<TRIPOS>MOLECULE
No_2016-gen_results/8p0m/2024-11-26-14-13-15/
 7 7 0 0 0
SMALL
GASTEIGER

@<TRIPOS>ATOM
      1 C         -28.0162   -0.8135   28.8779 C.ar    1  UNL1       -0.0003
      2 C         -28.4690   -0.7850   29.8287 C.ar    1  UNL1       -0.0043
      3 C         -28.1816    0.4277   28.1134 C.ar    1  UNL1       -0.0000
      4 C         -28.9841    1.4155   28.5154 C.ar    1  UNL1       -0.0003
      5 C         -29.3802    0.1384   30.4612 C.ar    1  UNL1       -0.0218
      6 C         -29.9932   -0.0234   31.7370 C.3     1  UNL1        0.0310
      7 C         -29.5370    1.2619   29.7119 C.ar    1  UNL1       -0.0043
@<TRIPOS>BOND
     1     5     6    1
     2     1     2   ar
     3     2     5   ar
     4     5     7   ar
     5     7     4   ar
     6     4     3   ar
     7     3     1   ar
