@<TRIPOS>MOLECULE
No_2017-gen_results/8p0m/2024-11-26-14-13-15/
 35 38 0 0 0
SMALL
GASTEIGER

@<TRIPOS>ATOM
      1 C         -28.0162   -0.8135   28.8779 C.ar    1  UNL1        0.0053
      2 C         -27.0636   -0.1189   28.6079 C.ar    1  UNL1        0.0792
      3 C         -25.7647   -0.3897   29.0360 C.ar    1  UNL1        0.0023
      4 C         -25.5296   -1.5302   29.9014 C.ar    1  UNL1       -0.0222
      5 C         -26.6888   -2.2893   30.1810 C.ar    1  UNL1       -0.0053
      6 C         -26.4988   -3.4805   30.9196 C.2     1  UNL1       -0.0020
      7 C         -27.9248   -1.9917   29.6873 C.ar    1  UNL1        0.0127
      8 C         -27.1308    1.1698   27.7861 C.2     1  UNL1        0.3877
      9 O         -26.4129    1.4113   26.9332 O.co2   1  UNL1       -0.2406
     10 O         -28.1619    1.8981   27.9989 O.co2   1  UNL1       -0.2406
     11 C         -27.6785   -4.4103   30.4579 C.2     1  UNL1        0.0117
     12 C         -28.6835   -3.3994   30.0533 C.3     1  UNL1        0.1825
     13 C         -29.7687   -3.0792   31.0555 C.ar    1  UNL1        0.0128
     14 C         -30.5443   -3.9566   31.3363 C.ar    1  UNL1       -0.0013
     15 C         -31.6574   -3.7441   32.2761 C.ar    1  UNL1       -0.0002
     16 C         -31.8004   -2.4219   32.7862 C.ar    1  UNL1       -0.0000
     17 C         -29.9975   -1.7493   31.6979 C.ar    1  UNL1       -0.0013
     18 C         -30.9402   -1.4471   32.4741 C.ar    1  UNL1       -0.0002
     19 O         -29.3681   -3.8143   28.9766 O.3     1  UNL1       -0.2121
     20 C         -24.1531   -1.7646   30.3264 C.3     1  UNL1        0.0267
     21 C         -23.5595   -0.6497   31.2444 C.3     1  UNL1        0.0090
     22 C         -24.3054   -0.1571   32.1793 C.3     1  UNL1        0.0227
     23 C         -24.9632    1.1626   32.1244 C.ar    1  UNL1       -0.0225
     24 C         -24.6475    2.0602   31.0361 C.ar    1  UNL1       -0.0041
     25 C         -25.2981    3.3226   30.9472 C.ar    1  UNL1        0.0061
     26 C         -26.1247    3.5182   31.5154 C.ar    1  UNL1        0.0760
     27 C         -26.0741    1.5683   32.8823 C.ar    1  UNL1       -0.0041
     28 C         -26.6800    2.7866   32.6440 C.ar    1  UNL1        0.0061
     29 C         -24.5884   -0.9244   33.3813 C.3     1  UNL1        0.0047
     30 C         -26.9560    4.9353   31.3762 C.2     1  UNL1        0.3458
     31 O         -27.6287    5.3970   32.0524 O.2     1  UNL1       -0.2445
     32 O         -26.9325    5.3258   30.0184 O.3     1  UNL1       -0.4182
     33 C         -27.3421    6.4324   29.6547 C.2     1  UNL1        0.1785
     34 C         -27.0339    6.7146   28.4113 C.2     1  UNL1        0.0149
     35 C         -26.0665    5.9073   27.8446 C.3     1  UNL1        0.0341
@<TRIPOS>BOND
     1     5     6    1
     2     2     8    1
     3     8     9   ar
     4     8    10   ar
     5     6    11    2
     6     7    12    1
     7    11    12    1
     8    12    13    1
     9    12    19    1
    10     4    20    1
    11    20    21    1
    12    21    22    1
    13    22    23    1
    14    22    29    1
    15    26    30    1
    16    30    31    2
    17    30    32    1
    18    32    33    1
    19    33    34    2
    20    34    35    1
    21     1     2   ar
    22     2     3   ar
    23     3     4   ar
    24     4     5   ar
    25     5     7   ar
    26     7     1   ar
    27    23    24   ar
    28    24    25   ar
    29    25    26   ar
    30    26    28   ar
    31    28    27   ar
    32    27    23   ar
    33    13    14   ar
    34    14    15   ar
    35    15    16   ar
    36    16    18   ar
    37    18    17   ar
    38    17    13   ar
