@<TRIPOS>MOLECULE
No_2018-gen_results/8p0m/2024-11-26-14-13-15/
 18 19 0 0 0
SMALL
GASTEIGER

@<TRIPOS>ATOM
      1 C         -28.0162   -0.8135   28.8779 C.ar    1  UNL1        0.0098
      2 C         -28.4690   -0.7850   29.8287 C.ar    1  UNL1        0.0799
      3 C         -26.5042   -0.7777   28.8766 C.ar    1  UNL1        0.0392
      4 C         -25.6540   -0.6597   27.7191 C.2     1  UNL1        0.1956
      5 C         -27.9180   -0.9374   31.1824 C.ar    1  UNL1        0.0066
      6 C         -26.5424   -0.9399   31.2606 C.ar    1  UNL1        0.0003
      7 C         -25.7832   -0.8935   30.1201 C.ar    1  UNL1        0.0032
      8 C         -25.9259    0.2819   26.7445 C.ar    1  UNL1        0.0394
      9 C         -25.6258    1.4719   26.8191 C.ar    1  UNL1        0.0032
     10 C         -25.9389    2.3920   25.7413 C.ar    1  UNL1        0.0006
     11 C         -26.7522    1.9284   24.7422 C.ar    1  UNL1        0.0067
     12 C         -26.7836   -0.0169   25.6158 C.ar    1  UNL1        0.0099
     13 C         -27.1275    0.7425   24.6874 C.ar    1  UNL1        0.0347
     14 C         -30.0556   -0.7370   29.8294 C.2     1  UNL1        0.3878
     15 O         -30.7679   -1.4953   30.2852 O.co2   1  UNL1       -0.2406
     16 O         -30.5286    0.2822   29.1629 O.co2   1  UNL1       -0.2406
     17 O         -24.6746   -1.4646   27.6410 O.2     1  UNL1       -0.2866
     18 BR        -28.2847    0.0100   23.4330 Br      1  UNL1       -0.0490
@<TRIPOS>BOND
     1     3     4    1
     2     4     8    1
     3     2    14    1
     4    14    15   ar
     5    14    16   ar
     6     4    17    2
     7    13    18    1
     8     1     2   ar
     9     2     5   ar
    10     5     6   ar
    11     6     7   ar
    12     7     3   ar
    13     3     1   ar
    14     8     9   ar
    15     9    10   ar
    16    10    11   ar
    17    11    13   ar
    18    13    12   ar
    19    12     8   ar
