@<TRIPOS>MOLECULE
No_2019-gen_results/8p0m/2024-11-26-14-13-15/
 20 22 0 0 0
SMALL
GASTEIGER

@<TRIPOS>ATOM
      1 C         -28.0162   -0.8135   28.8779 C.ar    1  UNL1        0.0369
      2 C         -27.0636   -0.1189   28.6079 C.ar    1  UNL1        0.0031
      3 C         -25.7923   -0.4302   29.0761 C.ar    1  UNL1        0.0002
      4 C         -24.5456    0.3494   28.8225 C.ar    1  UNL1        0.0000
      5 C         -23.2409    0.0217   29.3323 C.ar    1  UNL1        0.0000
      6 C         -27.8820   -1.8995   29.8633 C.ar    1  UNL1        0.1391
      7 C         -26.6526   -2.3141   30.3138 C.ar    1  UNL1        0.0369
      8 C         -25.5153   -1.5607   29.9787 C.ar    1  UNL1        0.0031
      9 C         -22.1645    0.7936   28.9524 C.ar    1  UNL1        0.0000
     10 C         -22.1241    1.7484   27.9889 C.ar    1  UNL1        0.0000
     11 C         -24.5235    1.3782   27.7946 C.ar    1  UNL1        0.0000
     12 C         -23.3387    2.0417   27.4305 C.ar    1  UNL1        0.0000
     13 O         -28.9603   -2.6577   30.2382 O.3     1  UNL1       -0.4706
     14 C         -30.0989   -2.0886   30.6129 C.3     1  UNL1        0.2320
     15 C         -30.2764   -1.0993   31.0092 C.ar    1  UNL1        0.0212
     16 C         -30.8620   -0.2439   31.1332 C.ar    1  UNL1       -0.0007
     17 C         -30.8615    1.0608   31.9039 C.ar    1  UNL1       -0.0002
     18 C         -29.6092    1.3391   32.4280 C.ar    1  UNL1       -0.0000
     19 C         -28.6023    0.4196   32.3598 C.ar    1  UNL1       -0.0002
     20 C         -28.8022   -0.7763   31.6892 C.ar    1  UNL1       -0.0007
@<TRIPOS>BOND
     1     3     4    1
     2     6    13    1
     3    13    14    1
     4    14    15    1
     5    15    16   ar
     6    16    17   ar
     7    17    18   ar
     8    18    19   ar
     9    19    20   ar
    10    20    15   ar
    11     1     2   ar
    12     2     3   ar
    13     3     8   ar
    14     8     7   ar
    15     7     6   ar
    16     6     1   ar
    17     4     5   ar
    18     5     9   ar
    19     9    10   ar
    20    10    12   ar
    21    12    11   ar
    22    11     4   ar
