@<TRIPOS>MOLECULE
No_202-gen_results/8p0m/2024-11-26-14-13-15/
 18 18 0 0 0
SMALL
GASTEIGER

@<TRIPOS>ATOM
      1 F         -28.0727   -1.2542   28.5316 F       1  UNL1       -0.1659
      2 C         -28.2662   -0.4214   29.1931 C.3     1  UNL1        0.4186
      3 F         -29.4400   -0.1817   29.3649 F       1  UNL1       -0.1659
      4 F         -27.6958   -0.7085   30.4324 F       1  UNL1       -0.1659
      5 C         -27.5418    0.7768   28.6351 C.ar    1  UNL1        0.0714
      6 C         -27.1712    1.6999   29.4293 C.ar    1  UNL1        0.0039
      7 C         -27.3882    0.8746   27.2654 C.ar    1  UNL1        0.0039
      8 C         -26.4303    2.8749   28.9849 C.ar    1  UNL1        0.0011
      9 C         -26.6655    2.0250   26.6884 C.ar    1  UNL1        0.0011
     10 C         -26.2169    3.0301   27.6037 C.ar    1  UNL1        0.0131
     11 C         -25.5143    4.2005   27.0880 C.2     1  UNL1        0.0536
     12 N         -25.5894    5.3376   27.6423 N.2     1  UNL1       -0.2744
     13 C         -24.4571    4.0185   26.0480 C.3     1  UNL1        0.0454
     14 C         -24.9195    6.4900   27.1633 C.3     1  UNL1        0.1298
     15 C         -24.1770    2.7504   25.5248 C.3     1  UNL1        0.0067
     16 C         -24.9732    7.6641   28.0403 C.3     1  UNL1        0.0523
     17 C         -25.2382    7.4063   29.3738 C.2     1  UNL1       -0.0241
     18 C         -25.8722    6.3127   29.7948 C.2     1  UNL1       -0.0048
@<TRIPOS>BOND
     1     1     2    1
     2     2     3    1
     3     2     4    1
     4     2     5    1
     5    10    11    1
     6    11    12    2
     7    11    13    1
     8    12    14    1
     9    13    15    1
    10    14    16    1
    11    16    17    1
    12    17    18    2
    13     5     6   ar
    14     6     8   ar
    15     8    10   ar
    16    10     9   ar
    17     9     7   ar
    18     7     5   ar
