@<TRIPOS>MOLECULE
No_2020-gen_results/8p0m/2024-11-26-14-13-15/
 16 16 0 0 0
SMALL
GASTEIGER

@<TRIPOS>ATOM
      1 C         -28.0162   -0.8135   28.8779 C.ar    1  UNL1        0.0116
      2 C         -28.4690   -0.7850   29.8287 C.ar    1  UNL1        0.0040
      3 C         -28.1816    0.4277   28.1134 C.ar    1  UNL1        0.0607
      4 C         -28.9841    1.4155   28.5154 C.ar    1  UNL1        0.0483
      5 C         -29.3802    0.1384   30.4612 C.ar    1  UNL1        0.0370
      6 C         -29.5415    1.2736   29.7242 C.ar    1  UNL1        0.1399
      7 CL        -27.4197    0.5685   26.5139 Cl      1  UNL1       -0.0821
      8 O         -30.3718    2.2088   30.2507 O.3     1  UNL1       -0.4706
      9 C         -31.2050    2.7726   29.6901 C.3     1  UNL1        0.2318
     10 C         -31.1640    4.1094   29.6310 C.2     1  UNL1        0.0207
     11 C         -30.6111    4.8674   30.6403 C.2     1  UNL1       -0.0009
     12 C         -30.3330    5.9013   30.8169 C.2     1  UNL1       -0.0002
     13 C         -29.6805    6.5425   31.9801 C.2     1  UNL1       -0.0003
     14 C         -29.3215    5.6321   33.0056 C.2     1  UNL1       -0.0046
     15 C         -29.5599    4.2968   32.8446 C.2     1  UNL1       -0.0258
     16 C         -30.1380    3.8634   31.7215 C.3     1  UNL1        0.0307
@<TRIPOS>BOND
     1     3     7    1
     2     6     8    1
     3     8     9    1
     4     9    10    1
     5    10    11    2
     6    11    12    1
     7    12    13    2
     8    13    14    1
     9    14    15    2
    10    15    16    1
    11     1     2   ar
    12     2     5   ar
    13     5     6   ar
    14     6     4   ar
    15     4     3   ar
    16     3     1   ar
