@<TRIPOS>MOLECULE
No_2021-gen_results/8p0m/2024-11-26-14-13-15/
 15 15 0 0 0
SMALL
GASTEIGER

@<TRIPOS>ATOM
      1 C         -28.0162   -0.8135   28.8779 C.2     1  UNL1        0.0859
      2 C         -27.0636   -0.1189   28.6079 C.2     1  UNL1        0.0339
      3 C         -26.9716    0.7139   27.5060 C.3     1  UNL1        0.1055
      4 C         -25.8205    1.4909   27.1160 C.3     1  UNL1        0.0304
      5 C         -24.6562    1.4242   27.9180 C.3     1  UNL1        0.0891
      6 C         -24.6847    0.5901   29.0659 C.3     1  UNL1        0.0781
      7 C         -25.8099   -0.1265   29.3338 C.2     1  UNL1        0.1710
      8 C         -29.2185   -0.0422   29.3127 C.2     1  UNL1        0.3878
      9 O         -29.0945    0.6130   30.3200 O.co2   1  UNL1       -0.2406
     10 O         -30.2303   -0.1815   28.5759 O.co2   1  UNL1       -0.2406
     11 C         -23.4850    2.2229   27.6034 C.2     1  UNL1        0.2607
     12 N         -23.2931    2.6961   26.3980 N.am    1  UNL1       -0.0878
     13 O         -22.4292    2.1908   28.3893 O.2     1  UNL1       -0.2717
     14 CL        -28.2797    0.8524   26.4353 Cl      1  UNL1       -0.1101
     15 O         -25.6942   -0.9276   30.4009 O.2     1  UNL1       -0.2916
@<TRIPOS>BOND
     1     1     2    2
     2     2     3    1
     3     3     4    1
     4     4     5    1
     5     5     6    1
     6     2     7    1
     7     6     7    1
     8     1     8    1
     9     8     9   ar
    10     8    10   ar
    11     5    11    1
    12    11    12   am
    13    11    13    2
    14     3    14    1
    15     7    15    2
