@<TRIPOS>MOLECULE
No_2022-gen_results/8p0m/2024-11-26-14-13-15/
 11 11 0 0 0
SMALL
GASTEIGER

@<TRIPOS>ATOM
      1 C         -28.0162   -0.8135   28.8779 C.2     1  UNL1       -0.0346
      2 C         -27.0636   -0.1189   28.6079 C.2     1  UNL1       -0.0485
      3 C         -25.7647   -0.3897   29.0360 C.3     1  UNL1        0.0221
      4 C         -24.5517    0.4058   28.7646 C.3     1  UNL1        0.0104
      5 C         -24.6957    1.4480   27.7988 C.3     1  UNL1        0.0440
      6 C         -25.9755    1.7250   27.3077 C.3     1  UNL1        0.0104
      7 C         -27.0718    1.0134   27.6535 C.3     1  UNL1        0.0221
      8 C         -29.2099   -0.0501   29.3493 C.3     1  UNL1        0.0254
      9 C         -30.3469   -0.8660   29.6614 C.3     1  UNL1        0.0050
     10 C         -23.4932    2.1959   27.4902 C.2     1  UNL1        0.0953
     11 N         -22.2900    1.7821   27.8601 N.2     1  UNL1       -0.1514
@<TRIPOS>BOND
     1     1     2    2
     2     2     3    1
     3     3     4    1
     4     4     5    1
     5     5     6    1
     6     2     7    1
     7     6     7    1
     8     1     8    1
     9     8     9    1
    10     5    10    1
    11    10    11    2
