@<TRIPOS>MOLECULE
No_2023-gen_results/8p0m/2024-11-26-14-13-15/
 27 28 0 0 0
SMALL
GASTEIGER

@<TRIPOS>ATOM
      1 C         -28.0162   -0.8135   28.8779 C.3     1  UNL1        0.3410
      2 C         -27.0636   -0.1190   28.6079 C.ar    1  UNL1        0.0438
      3 C         -26.9287    1.1713   29.0083 C.ar    1  UNL1        0.0073
      4 C         -25.7702    2.0341   28.6884 C.ar    1  UNL1        0.0723
      5 C         -24.7141    1.4431   27.9188 C.ar    1  UNL1       -0.0081
      6 C         -24.8590    0.0783   27.5836 C.ar    1  UNL1       -0.0039
      7 C         -25.9647   -0.6606   27.9164 C.ar    1  UNL1        0.0008
      8 F         -27.8277   -2.0369   29.3708 F       1  UNL1       -0.1933
      9 F         -29.2324   -0.5226   28.7614 F       1  UNL1       -0.1933
     10 C         -23.5444    2.1454   27.5659 C.3     1  UNL1        0.1176
     11 C         -22.3831    2.0909   28.3029 C.3     1  UNL1        0.4011
     12 C         -23.5879    2.7728   26.2343 C.3     1  UNL1        0.0135
     13 F         -22.4861    1.8015   29.4943 F       1  UNL1       -0.1697
     14 F         -21.6488    3.0556   28.2375 F       1  UNL1       -0.1697
     15 F         -21.6576    1.0574   27.6539 F       1  UNL1       -0.1697
     16 C         -25.7153    3.4058   29.1070 C.2     1  UNL1        0.3477
     17 O         -25.9392    4.2674   28.3727 O.3     1  UNL1       -0.3860
     18 O         -25.4150    3.5758   30.4055 O.2     1  UNL1       -0.2444
     19 C         -25.7710    5.6351   28.7117 C.2     1  UNL1        0.3480
     20 C         -26.8679    6.5268   28.4138 C.ar    1  UNL1        0.0763
     21 C         -27.9459    5.9988   28.0821 C.ar    1  UNL1        0.0088
     22 C         -29.1019    6.8470   27.7181 C.ar    1  UNL1        0.0298
     23 C         -28.9077    8.2814   27.7086 C.ar    1  UNL1        0.1401
     24 C         -27.6511    8.7912   28.0481 C.ar    1  UNL1        0.0298
     25 C         -26.5882    7.9458   28.3894 C.ar    1  UNL1        0.0088
     26 O         -24.6642    6.0527   29.2041 O.2     1  UNL1       -0.2444
     27 F         -29.8995    9.0516   27.3958 F       1  UNL1       -0.2042
@<TRIPOS>BOND
     1     1     2    1
     2     1     8    1
     3     1     9    1
     4     5    10    1
     5    10    11    1
     6    10    12    1
     7    11    13    1
     8    11    14    1
     9    11    15    1
    10     4    16    1
    11    16    17    1
    12    16    18    2
    13    17    19    1
    14    19    20    1
    15    19    26    2
    16    23    27    1
    17     2     3   ar
    18     3     4   ar
    19     4     5   ar
    20     5     6   ar
    21     6     7   ar
    22     7     2   ar
    23    20    21   ar
    24    21    22   ar
    25    22    23   ar
    26    23    24   ar
    27    24    25   ar
    28    25    20   ar
