@<TRIPOS>MOLECULE
No_2024-gen_results/8p0m/2024-11-26-14-13-15/
 28 29 0 0 0
SMALL
GASTEIGER

@<TRIPOS>ATOM
      1 C         -28.0162   -0.8135   28.8779 C.ar    1  UNL1        0.0046
      2 C         -28.4690   -0.7850   29.8287 C.ar    1  UNL1        0.0001
      3 C         -27.1356    0.2359   28.5352 C.ar    1  UNL1        0.0551
      4 C         -26.8745    1.2825   29.3982 C.ar    1  UNL1        0.0046
      5 C         -28.3613    0.1987   30.9244 C.ar    1  UNL1        0.0000
      6 C         -27.5277    1.2234   30.6356 C.ar    1  UNL1        0.0001
      7 C         -26.3987    0.2949   27.2279 C.2     1  UNL1        0.2651
      8 N         -25.1481    0.1287   27.3794 N.am    1  UNL1       -0.1961
      9 O         -26.9676    0.3869   26.1430 O.2     1  UNL1       -0.2684
     10 C         -24.2288    0.5417   26.9352 C.3     1  UNL1        0.1516
     11 C         -23.5826    1.7477   27.6776 C.2     1  UNL1        0.0638
     12 C         -22.4249    1.7518   28.0733 C.2     1  UNL1       -0.0181
     13 C         -24.3238    3.0549   27.5633 C.1     1  UNL1        0.0975
     14 C         -21.6335    0.5465   28.1701 C.3     1  UNL1        0.0311
     15 N         -25.0191    3.8884   27.5641 N.1     1  UNL1       -0.1911
     16 C         -21.8329   -0.3041   29.2890 C.3     1  UNL1        0.0307
     17 C         -23.1278   -0.7676   29.5212 C.2     1  UNL1       -0.0258
     18 C         -23.3438   -1.6094   30.7124 C.2     1  UNL1       -0.0046
     19 C         -24.3435   -1.1062   31.5364 C.ar    1  UNL1       -0.0003
     20 C         -24.1271   -0.1379   32.4366 C.ar    1  UNL1       -0.0000
     21 C         -25.2317    0.4014   33.2799 C.ar    1  UNL1       -0.0000
     22 C         -25.7324   -1.6217   31.3469 C.ar    1  UNL1       -0.0000
     23 C         -26.7201   -1.2431   32.3664 C.ar    1  UNL1       -0.0000
     24 C         -26.4087   -0.2488   33.3018 C.ar    1  UNL1       -0.0003
     25 C         -27.5133    0.2510   34.1649 C.2     1  UNL1       -0.0046
     26 C         -28.6282   -0.3857   34.4454 C.2     1  UNL1       -0.0261
     27 C         -28.8645   -1.6449   33.8326 C.3     1  UNL1        0.0260
     28 C         -27.9035   -1.9737   32.6198 C.3     1  UNL1        0.0050
@<TRIPOS>BOND
     1     3     7    1
     2     7     8   am
     3     7     9    2
     4     8    10    1
     5    10    11    1
     6    11    12    2
     7    11    13    1
     8    12    14    1
     9    13    15    3
    10    14    16    1
    11    16    17    1
    12    17    18    2
    13    18    19    1
    14    24    25    1
    15    25    26    2
    16    26    27    1
    17    27    28    1
    18    19    20   ar
    19    20    21   ar
    20    21    24   ar
    21    24    23   ar
    22    23    22   ar
    23    22    19   ar
    24     1     2   ar
    25     2     5   ar
    26     5     6   ar
    27     6     4   ar
    28     4     3   ar
    29     3     1   ar
