@<TRIPOS>MOLECULE
No_2025-gen_results/8p0m/2024-11-26-14-13-15/
 35 37 0 0 0
SMALL
GASTEIGER

@<TRIPOS>ATOM
      1 C         -28.0162   -0.8135   28.8779 C.3     1  UNL1        0.0618
      2 C         -27.0636   -0.1189   28.6079 C.ar    1  UNL1       -0.0040
      3 C         -26.9716    0.7139   27.5060 C.ar    1  UNL1        0.0700
      4 C         -25.8205    1.4910   27.1160 C.ar    1  UNL1        0.0229
      5 C         -24.6562    1.4242   27.9180 C.ar    1  UNL1        0.0810
      6 C         -24.6847    0.5901   29.0659 C.ar    1  UNL1        0.0063
      7 C         -25.8099   -0.1265   29.3338 C.ar    1  UNL1       -0.0027
      8 C         -28.6943   -0.4734   30.1587 C.3     1  UNL1        0.1384
      9 N         -28.6464    0.5791   30.6347 N.3     1  UNL1       -0.1812
     10 N         -29.6999   -1.3940   30.5785 N.3     1  UNL1       -0.2580
     11 C         -29.3520    0.9673   31.8179 C.3     1  UNL1        0.1785
     12 C         -23.4679    2.1949   27.5981 C.2     1  UNL1        0.3878
     13 O         -22.5419    2.2066   28.4523 O.co2   1  UNL1       -0.2406
     14 O         -23.4298    2.8877   26.5213 O.co2   1  UNL1       -0.2406
     15 C         -29.8792   -2.6127   30.0481 C.3     1  UNL1        0.1009
     16 C         -30.4490   -1.1069   31.7024 C.3     1  UNL1        0.0769
     17 C         -30.2458    0.1458   32.3215 C.3     1  UNL1        0.0598
     18 C         -31.2289   -3.1290   29.9439 C.3     1  UNL1        0.1781
     19 C         -31.7856   -2.9049   28.7627 C.2     1  UNL1        0.3804
     20 O         -32.8557   -2.7839   28.7263 O.co2   1  UNL1       -0.2441
     21 O         -31.1306   -2.2554   27.8519 O.co2   1  UNL1       -0.2441
     22 N         -28.0452    0.8561   26.6467 N.am    1  UNL1       -0.1758
     23 C         -28.8940    1.8955   26.7770 C.2     1  UNL1        0.2690
     24 O         -28.6625    2.7821   27.5394 O.2     1  UNL1       -0.2680
     25 C         -30.1960    1.7081   26.1066 C.ar    1  UNL1        0.0554
     26 C         -31.2267    2.2113   26.6505 C.ar    1  UNL1        0.0046
     27 C         -32.5774    2.0450   26.0629 C.ar    1  UNL1        0.0001
     28 C         -32.6364    1.2636   24.9110 C.ar    1  UNL1        0.0000
     29 C         -31.4767    0.6896   24.3625 C.ar    1  UNL1        0.0001
     30 C         -30.2772    0.8992   24.9676 C.ar    1  UNL1        0.0046
     31 N         -31.0587   -4.6066   30.1692 N.3     1  UNL1       -0.2612
     32 C         -30.5271   -5.1822   31.1748 C.3     1  UNL1        0.0901
     33 C         -31.5010   -5.4629   29.1420 C.3     1  UNL1        0.0901
     34 N         -29.1038    2.2347   32.3704 N.2     1  UNL1       -0.2514
     35 C         -29.0089    3.2901   31.7571 C.2     1  UNL1        0.1149
@<TRIPOS>BOND
     1     1     8    1
     2     8    10    1
     3     9    11    1
     4     5    12    1
     5    12    13   ar
     6    12    14   ar
     7    10    15    1
     8    10    16    1
     9    16    17    1
    10    15    18    1
    11    18    19    1
    12    19    20   ar
    13    19    21   ar
    14     3    22    1
    15    22    23   am
    16    23    24    2
    17    23    25    1
    18    18    31    1
    19    31    32    1
    20    31    33    1
    21    11    34    1
    22    34    35    2
    23     1     2    1
    24     8     9    1
    25    11    17    1
    26     2     3   ar
    27     3     4   ar
    28     4     5   ar
    29     5     6   ar
    30     6     7   ar
    31     7     2   ar
    32    25    26   ar
    33    26    27   ar
    34    27    28   ar
    35    28    29   ar
    36    29    30   ar
    37    30    25   ar
