@<TRIPOS>MOLECULE
No_2026-gen_results/8p0m/2024-11-26-14-13-15/
 25 27 0 0 0
SMALL
GASTEIGER

@<TRIPOS>ATOM
      1 O         -28.1229   -1.3353   28.4874 O.3     1  UNL1       -0.4754
      2 C         -27.0637   -0.8242   28.8687 C.ar    1  UNL1        0.1346
      3 C         -26.0496   -0.9362   28.7578 C.ar    1  UNL1        0.0368
      4 C         -24.9968    0.0377   28.6396 C.ar    1  UNL1        0.0097
      5 C         -25.2805    1.3142   29.1575 C.ar    1  UNL1        0.0797
      6 C         -26.6010    1.5188   29.4600 C.ar    1  UNL1        0.0054
      7 C         -27.4646    0.5200   29.3266 C.ar    1  UNL1        0.0149
      8 C         -24.2191    2.2994   29.2386 C.2     1  UNL1        0.3877
      9 O         -23.0863    2.0519   28.8817 O.co2   1  UNL1       -0.2406
     10 O         -24.5614    3.4043   29.8848 O.co2   1  UNL1       -0.2406
     11 C         -29.2570   -1.1682   29.2376 C.3     1  UNL1        0.2093
     12 C         -28.9772    0.1649   29.7263 C.3     1  UNL1        0.0621
     13 C         -29.8574    1.3302   29.1759 C.3     1  UNL1        0.0078
     14 C         -28.9950    0.2619   31.3308 C.3     1  UNL1        0.0081
     15 C         -30.5579    1.8914   29.7611 C.3     1  UNL1        0.0005
     16 C         -29.9990    0.9179   31.9604 C.3     1  UNL1        0.0045
     17 C         -30.0451    0.9166   33.3791 C.3     1  UNL1        0.0220
     18 C         -30.7214    1.8683   31.2107 C.3     1  UNL1        0.0003
     19 C         -29.5577    1.9197   34.0571 C.2     1  UNL1       -0.0265
     20 C         -30.5628   -0.2647   33.9879 C.3     1  UNL1        0.0047
     21 C         -29.0077    3.0110   33.7317 C.2     1  UNL1       -0.0046
     22 C         -28.3407    3.8064   34.0363 C.2     1  UNL1       -0.0003
     23 C         -27.6860    4.9644   33.3072 C.2     1  UNL1       -0.0000
     24 C         -27.9449    4.9832   31.9519 C.2     1  UNL1       -0.0000
     25 C         -28.6908    3.9812   31.4158 C.2     1  UNL1       -0.0000
@<TRIPOS>BOND
     1     1     2    1
     2     5     8    1
     3     8     9   ar
     4     8    10   ar
     5     1    11    1
     6     7    12    1
     7    11    12    1
     8    12    13    1
     9    12    14    1
    10    16    17    1
    11    15    18    1
    12    16    18    1
    13    17    19    1
    14    17    20    1
    15    19    21    2
    16    21    22    1
    17    22    23    2
    18    23    24    1
    19    24    25    2
    20    13    15    1
    21    16    14    1
    22     2     3   ar
    23     3     4   ar
    24     4     5   ar
    25     5     6   ar
    26     6     7   ar
    27     7     2   ar
