@<TRIPOS>MOLECULE
No_2027-gen_results/8p0m/2024-11-26-14-13-15/
 12 12 0 0 0
SMALL
GASTEIGER

@<TRIPOS>ATOM
      1 N         -28.0544   -1.0498   28.7246 N.2     1  UNL1       -0.2470
      2 C         -28.6544   -0.5669   29.5076 C.2     1  UNL1        0.0771
      3 C         -30.0039   -0.7251   29.6776 C.3     1  UNL1        0.0733
      4 C         -30.6756   -1.1882   28.7795 C.ar    1  UNL1       -0.0162
      5 C         -32.0729   -1.4212   28.9722 C.ar    1  UNL1       -0.0039
      6 C         -32.8588   -1.9794   27.8981 C.ar    1  UNL1       -0.0003
      7 C         -32.2178   -2.1318   26.6133 C.ar    1  UNL1       -0.0000
      8 C         -30.9667   -1.6047   26.3950 C.ar    1  UNL1       -0.0003
      9 C         -30.2134   -1.1187   27.4528 C.ar    1  UNL1       -0.0039
     10 C         -26.6028   -0.8606   28.5734 C.2     1  UNL1        0.0939
     11 C         -25.8361   -1.0256   27.5696 C.2     1  UNL1       -0.0052
     12 C         -24.3971   -0.7283   27.6557 C.3     1  UNL1        0.0324
@<TRIPOS>BOND
     1     1     2    2
     2     2     3    1
     3     3     4    1
     4     1    10    1
     5    10    11    2
     6    11    12    1
     7     4     5   ar
     8     5     6   ar
     9     6     7   ar
    10     7     8   ar
    11     8     9   ar
    12     9     4   ar
