@<TRIPOS>MOLECULE
No_2028-gen_results/8p0m/2024-11-26-14-13-15/
 14 14 0 0 0
SMALL
GASTEIGER

@<TRIPOS>ATOM
      1 C         -28.0162   -0.8135   28.8779 C.ar    1  UNL1        0.0077
      2 C         -28.4690   -0.7850   29.8287 C.ar    1  UNL1        0.0714
      3 C         -27.0871    0.2903   28.6377 C.ar    1  UNL1        0.0714
      4 C         -26.2516    0.4114   27.4223 C.3     1  UNL1        0.4186
      5 C         -28.3913    0.1041   30.9805 C.ar    1  UNL1        0.0038
      6 C         -27.5332    1.1666   30.7866 C.ar    1  UNL1       -0.0001
      7 C         -26.8281    1.2557   29.6454 C.ar    1  UNL1        0.0038
      8 F         -26.2895   -0.3207   26.7007 F       1  UNL1       -0.1659
      9 F         -24.9065    0.6297   27.8498 F       1  UNL1       -0.1659
     10 F         -26.5253    1.7003   26.8049 F       1  UNL1       -0.1659
     11 C         -29.4614   -2.0180   30.2134 C.3     1  UNL1        0.4186
     12 F         -28.9944   -3.2014   30.1585 F       1  UNL1       -0.1659
     13 F         -29.8782   -1.9018   31.5119 F       1  UNL1       -0.1659
     14 F         -30.5167   -1.9669   29.4318 F       1  UNL1       -0.1659
@<TRIPOS>BOND
     1     3     4    1
     2     4     8    1
     3     4     9    1
     4     4    10    1
     5     2    11    1
     6    11    12    1
     7    11    13    1
     8    11    14    1
     9     1     2   ar
    10     2     5   ar
    11     5     6   ar
    12     6     7   ar
    13     7     3   ar
    14     3     1   ar
