@<TRIPOS>MOLECULE
No_203-gen_results/8p0m/2024-11-26-14-13-15/
 33 35 0 0 0
SMALL
GASTEIGER

@<TRIPOS>ATOM
      1 C         -28.0162   -0.8135   28.8779 C.ar    1  UNL1        0.0027
      2 C         -28.4690   -0.7850   29.8287 C.ar    1  UNL1        0.0753
      3 C         -28.1816    0.4277   28.1134 C.ar    1  UNL1       -0.0113
      4 C         -28.9841    1.4155   28.5154 C.ar    1  UNL1       -0.0037
      5 C         -29.3802    0.1384   30.4612 C.ar    1  UNL1        0.0064
      6 C         -29.5415    1.2736   29.7242 C.ar    1  UNL1       -0.0001
      7 C         -27.4586    0.4934   26.7701 C.3     1  UNL1        0.1299
      8 C         -26.0264    0.3840   26.7617 C.3     1  UNL1        0.0420
      9 C         -25.2257    1.3507   27.3721 C.ar    1  UNL1       -0.0203
     10 C         -23.8242    1.1314   27.4773 C.ar    1  UNL1        0.0072
     11 C         -23.1494    1.3831   28.5698 C.ar    1  UNL1        0.0576
     12 C         -23.7348    2.0152   29.6428 C.ar    1  UNL1        0.0179
     13 C         -25.1261    2.2181   29.6400 C.ar    1  UNL1        0.0803
     14 C         -25.8411    1.7367   28.5977 C.ar    1  UNL1        0.0024
     15 C         -25.7537    2.8088   30.8774 C.2     1  UNL1        0.3878
     16 O         -25.2617    3.8307   31.2602 O.co2   1  UNL1       -0.2406
     17 O         -26.8865    2.3179   31.2673 O.co2   1  UNL1       -0.2406
     18 C         -28.2274    0.7042   25.6573 C.2     1  UNL1        0.3687
     19 O         -28.7331    1.6324   25.3371 O.co2   1  UNL1       -0.2453
     20 O         -28.2290   -0.3593   24.7887 O.co2   1  UNL1       -0.2453
     21 CL        -21.4047    1.2474   28.4755 Cl      1  UNL1       -0.0823
     22 C         -28.2877   -2.0972   30.7997 C.2     1  UNL1        0.3413
     23 O         -27.2058   -2.4898   30.9146 O.2     1  UNL1       -0.2449
     24 O         -29.3763   -2.7875   31.0694 O.3     1  UNL1       -0.4413
     25 C         -29.2975   -4.1318   31.1099 C.3     1  UNL1        0.2558
     26 C         -29.5373   -4.6860   29.7541 C.3     1  UNL1        0.2526
     27 O         -30.5915   -5.4974   29.7152 O.3     1  UNL1       -0.4714
     28 C         -31.1753   -5.6177   28.4779 C.ar    1  UNL1        0.1387
     29 C         -31.6890   -6.3029   27.8998 C.ar    1  UNL1        0.0369
     30 C         -32.2244   -6.2271   26.5419 C.ar    1  UNL1        0.0031
     31 C         -32.3393   -4.9390   26.0334 C.ar    1  UNL1        0.0002
     32 C         -31.8683   -3.8931   26.7664 C.ar    1  UNL1        0.0031
     33 C         -31.2964   -4.0871   28.0444 C.ar    1  UNL1        0.0369
@<TRIPOS>BOND
     1     3     7    1
     2     7     8    1
     3    13    15    1
     4    15    16   ar
     5    15    17   ar
     6     7    18    1
     7    18    19   ar
     8    18    20   ar
     9    11    21    1
    10     2    22    1
    11    22    23    2
    12    22    24    1
    13    24    25    1
    14    25    26    1
    15    26    27    1
    16    27    28    1
    17     8     9    1
    18     9    10   ar
    19    10    11   ar
    20    11    12   ar
    21    12    13   ar
    22    13    14   ar
    23    14     9   ar
    24    28    29   ar
    25    29    30   ar
    26    30    31   ar
    27    31    32   ar
    28    32    33   ar
    29    33    28   ar
    30     1     2   ar
    31     2     5   ar
    32     5     6   ar
    33     6     4   ar
    34     4     3   ar
    35     3     1   ar
