@<TRIPOS>MOLECULE
No_2030-gen_results/8p0m/2024-11-26-14-13-15/
 25 28 0 0 0
SMALL
GASTEIGER

@<TRIPOS>ATOM
      1 C         -28.0162   -0.8135   28.8779 C.ar    1  UNL1        0.0768
      2 C         -27.0636   -0.1189   28.6079 C.ar    1  UNL1        0.0155
      3 C         -26.9716    0.7139   27.5060 C.ar    1  UNL1        0.0036
      4 C         -25.8205    1.4909   27.1160 C.ar    1  UNL1        0.0295
      5 C         -24.6562    1.4242   27.9180 C.ar    1  UNL1        0.1404
      6 C         -24.7114    0.5419   29.0507 C.ar    1  UNL1        0.0581
      7 C         -25.8042   -0.2058   29.3881 C.ar    1  UNL1        0.0052
      8 N         -29.2078   -0.2397   28.9031 N.am    1  UNL1       -0.1394
      9 C         -27.8461   -2.0447   29.7585 C.ar    1  UNL1        0.0168
     10 F         -23.6116    2.1039   27.6529 F       1  UNL1       -0.2044
     11 C         -30.3343   -0.8727   29.4080 C.2     1  UNL1        0.4671
     12 C         -26.6168   -2.7024   29.9055 C.ar    1  UNL1        0.0029
     13 C         -25.4971   -1.7000   29.8011 C.ar    1  UNL1        0.0188
     14 O         -31.4416   -0.6741   28.9956 O.co2   1  UNL1       -0.2203
     15 O         -30.2596   -1.3556   30.6678 O.co2   1  UNL1       -0.2203
     16 C         -24.1405   -2.0232   30.1671 C.2     1  UNL1        0.0959
     17 N         -23.1381   -1.5009   30.2484 N.2     1  UNL1       -0.2375
     18 C         -22.8781   -0.2285   29.9292 C.3     1  UNL1        0.2748
     19 C         -23.4909    0.7125   29.2393 C.3     1  UNL1        0.2788
     20 N         -22.8185    1.9217   29.1428 N.am    1  UNL1       -0.1670
     21 C         -21.8045    1.7709   28.4725 C.2     1  UNL1        0.2741
     22 O         -21.1911    2.6117   27.7562 O.2     1  UNL1       -0.2705
     23 C         -20.6839    0.7996   29.0475 C.3     1  UNL1        0.2306
     24 O         -21.3543   -0.1323   29.8047 O.3     1  UNL1       -0.3209
     25 F         -23.7727    0.5183   30.3795 F       1  UNL1       -0.2082
@<TRIPOS>BOND
     1     1     8    1
     2     5    10    1
     3     8    11   am
     4    11    14   ar
     5    11    15   ar
     6    13    16    1
     7    16    17    2
     8    17    18    1
     9     6    19    1
    10    18    19    1
    11    19    20    1
    12    20    21   am
    13    21    22    2
    14    21    23    1
    15    18    24    1
    16    23    24    1
    17    19    25    1
    18     2     3   ar
    19     3     4   ar
    20     4     5   ar
    21     5     6   ar
    22     6     7   ar
    23     1     2   ar
    24     2     7   ar
    25     7    13   ar
    26    13    12   ar
    27    12     9   ar
    28     9     1   ar
