@<TRIPOS>MOLECULE
No_2032-gen_results/8p0m/2024-11-26-14-13-15/
 7 7 0 0 0
SMALL
GASTEIGER

@<TRIPOS>ATOM
      1 C         -28.0162   -0.8135   28.8779 C.ar    1  UNL1        0.0114
      2 C         -28.4690   -0.7850   29.8287 C.ar    1  UNL1        0.0009
      3 C         -27.1356    0.2359   28.5352 C.ar    1  UNL1        0.0577
      4 C         -26.8050    1.0509   29.2763 C.ar    1  UNL1        0.0114
      5 C         -27.3158    1.1492   30.6054 C.ar    1  UNL1        0.0009
      6 C         -28.1917    0.1430   30.9488 C.ar    1  UNL1        0.0001
      7 CL        -26.3950    0.1862   26.9215 Cl      1  UNL1       -0.0822
@<TRIPOS>BOND
     1     3     7    1
     2     1     2   ar
     3     2     6   ar
     4     6     5   ar
     5     5     4   ar
     6     4     3   ar
     7     3     1   ar
