@<TRIPOS>MOLECULE
No_2033-gen_results/8p0m/2024-11-26-14-13-15/
 16 16 0 0 0
SMALL
GASTEIGER

@<TRIPOS>ATOM
      1 C         -28.0162   -0.8135   28.8779 C.1     1  UNL1       -0.0642
      2 C         -28.4690   -0.7850   29.8287 C.1     1  UNL1       -0.0803
      3 C         -27.2166   -0.0832   27.9639 C.ar    1  UNL1        0.0416
      4 C         -26.5094   -0.3500   26.9456 C.ar    1  UNL1        0.0082
      5 C         -25.8221    0.6874   26.0575 C.ar    1  UNL1        0.0006
      6 C         -25.4640    1.5136   26.5058 C.ar    1  UNL1        0.0000
      7 C         -25.8992    2.1115   27.7469 C.ar    1  UNL1        0.0006
      8 C         -26.6964    1.2230   28.4855 C.ar    1  UNL1        0.0082
      9 C         -29.2312   -1.2794   30.6845 C.3     1  UNL1        0.1517
     10 C         -29.6835   -2.5774   30.3743 C.3     1  UNL1        0.3608
     11 C         -28.7268   -3.5028   30.1886 C.3     1  UNL1        0.4555
     12 F         -29.3698   -4.6894   29.8390 F       1  UNL1       -0.1649
     13 F         -27.9827   -3.9127   31.3209 F       1  UNL1       -0.1649
     14 F         -30.4463   -3.0613   31.4603 F       1  UNL1       -0.1940
     15 F         -27.7656   -3.3378   29.2882 F       1  UNL1       -0.1649
     16 F         -30.4285   -2.5558   29.3164 F       1  UNL1       -0.1940
@<TRIPOS>BOND
     1     1     2    3
     2     1     3    1
     3     2     9    1
     4     9    10    1
     5    10    11    1
     6    11    12    1
     7    11    13    1
     8    10    14    1
     9    11    15    1
    10    10    16    1
    11     3     4   ar
    12     4     5   ar
    13     5     6   ar
    14     6     7   ar
    15     7     8   ar
    16     8     3   ar
