@<TRIPOS>MOLECULE
No_2034-gen_results/8p0m/2024-11-26-14-13-15/
 13 13 0 0 0
SMALL
GASTEIGER

@<TRIPOS>ATOM
      1 C         -28.0162   -0.8135   28.8779 C.ar    1  UNL1        0.0104
      2 C         -27.0636   -0.1189   28.6079 C.ar    1  UNL1        0.0716
      3 C         -25.7923   -0.4302   29.0761 C.ar    1  UNL1        0.0039
      4 C         -25.5756   -1.5654   29.9363 C.ar    1  UNL1        0.0002
      5 C         -26.7354   -2.3004   30.2173 C.ar    1  UNL1        0.0066
      6 C         -27.9184   -1.9537   29.7629 C.ar    1  UNL1        0.0797
      7 C         -29.0732   -2.7835   30.1783 C.2     1  UNL1        0.3877
      8 O         -29.3220   -2.7952   31.3885 O.co2   1  UNL1       -0.2406
      9 O         -29.6146   -3.5998   29.3746 O.co2   1  UNL1       -0.2406
     10 C         -27.0862    1.1079   27.7480 C.3     1  UNL1        0.4186
     11 F         -26.3913    1.1729   26.8867 F       1  UNL1       -0.1659
     12 F         -28.3844    1.1497   27.2189 F       1  UNL1       -0.1659
     13 F         -27.0578    2.2019   28.5273 F       1  UNL1       -0.1659
@<TRIPOS>BOND
     1     6     7    1
     2     7     8   ar
     3     7     9   ar
     4     2    10    1
     5    10    11    1
     6    10    12    1
     7    10    13    1
     8     1     2   ar
     9     2     3   ar
    10     3     4   ar
    11     4     5   ar
    12     5     6   ar
    13     6     1   ar
