@<TRIPOS>MOLECULE
No_2035-gen_results/8p0m/2024-11-26-14-13-15/
 11 11 0 0 0
SMALL
GASTEIGER

@<TRIPOS>ATOM
      1 C         -28.0162   -0.8135   28.8779 C.ar    1  UNL1       -0.0034
      2 C         -28.4690   -0.7850   29.8287 C.ar    1  UNL1       -0.0003
      3 C         -28.1816    0.4277   28.1134 C.ar    1  UNL1       -0.0118
      4 C         -28.9841    1.4155   28.5154 C.ar    1  UNL1       -0.0034
      5 C         -29.3802    0.1384   30.4612 C.ar    1  UNL1       -0.0000
      6 C         -29.5415    1.2736   29.7242 C.ar    1  UNL1       -0.0003
      7 C         -27.4452    0.4872   26.7726 C.3     1  UNL1        0.0807
      8 BR        -25.9703    1.0792   26.7715 Br      1  UNL1       -0.0768
      9 C         -28.0965    0.2222   25.5382 C.3     1  UNL1        0.0363
     10 C         -29.3913   -0.1818   25.5230 C.3     1  UNL1        0.1105
     11 N         -29.8562   -0.5159   24.2399 N.3     1  UNL1       -0.1313
@<TRIPOS>BOND
     1     3     7    1
     2     7     8    1
     3     7     9    1
     4     9    10    1
     5    10    11    1
     6     1     2   ar
     7     2     5   ar
     8     5     6   ar
     9     6     4   ar
    10     4     3   ar
    11     3     1   ar
