@<TRIPOS>MOLECULE
No_2036-gen_results/8p0m/2024-11-26-14-13-15/
 25 26 0 0 0
SMALL
GASTEIGER

@<TRIPOS>ATOM
      1 C         -28.0162   -0.8135   28.8779 C.ar    1  UNL1        0.0064
      2 C         -28.4690   -0.7850   29.8287 C.ar    1  UNL1        0.0758
      3 C         -26.5042   -0.7777   28.8766 C.ar    1  UNL1        0.0002
      4 C         -25.8103   -0.8531   30.1028 C.ar    1  UNL1        0.0000
      5 C         -27.9906   -0.8916   31.2257 C.ar    1  UNL1        0.0064
      6 C         -24.3976   -0.8364   30.1775 C.ar    1  UNL1        0.0000
      7 C         -26.5754   -0.8899   31.2661 C.ar    1  UNL1        0.0002
      8 C         -23.7708   -0.9176   31.0960 C.ar    1  UNL1        0.0000
      9 C         -22.3018   -0.8444   31.2151 C.ar    1  UNL1        0.0000
     10 C         -21.6829   -0.5879   30.0577 C.ar    1  UNL1        0.0000
     11 C         -23.6382   -0.6309   28.9339 C.ar    1  UNL1        0.0000
     12 C         -22.3460   -0.4649   28.8964 C.ar    1  UNL1        0.0000
     13 C         -30.0872   -0.7699   29.8523 C.2     1  UNL1        0.3448
     14 O         -30.7677   -1.5824   30.3042 O.2     1  UNL1       -0.2448
     15 O         -30.5952    0.2336   29.2043 O.3     1  UNL1       -0.3929
     16 C         -31.8394    0.2717   28.7014 C.3     1  UNL1        0.4772
     17 C         -32.0112   -0.1265   27.4394 C.3     1  UNL1        0.4425
     18 C         -31.0415    0.2761   26.4909 C.3     1  UNL1        0.4644
     19 F         -30.0107    0.5825   26.9983 F       1  UNL1       -0.1647
     20 F         -30.8158   -0.7494   25.5275 F       1  UNL1       -0.1647
     21 F         -31.7419    1.0011   25.4772 F       1  UNL1       -0.1647
     22 F         -33.2460    0.1912   27.0011 F       1  UNL1       -0.1854
     23 F         -31.9442   -1.5401   27.5335 F       1  UNL1       -0.1854
     24 F         -32.1281    1.6558   28.8519 F       1  UNL1       -0.1577
     25 F         -32.7614   -0.1381   29.6303 F       1  UNL1       -0.1577
@<TRIPOS>BOND
     1     4     6    1
     2     2    13    1
     3    13    14    2
     4    13    15    1
     5    15    16    1
     6    16    17    1
     7    17    18    1
     8    18    19    1
     9    18    20    1
    10    18    21    1
    11    17    22    1
    12    17    23    1
    13    16    24    1
    14    16    25    1
    15     6     8   ar
    16     8     9   ar
    17     9    10   ar
    18    10    12   ar
    19    12    11   ar
    20    11     6   ar
    21     1     2   ar
    22     2     5   ar
    23     5     7   ar
    24     7     4   ar
    25     4     3   ar
    26     3     1   ar
