@<TRIPOS>MOLECULE
No_2037-gen_results/8p0m/2024-11-26-14-13-15/
 15 16 0 0 0
SMALL
GASTEIGER

@<TRIPOS>ATOM
      1 C         -28.0162   -0.8135   28.8779 C.ar    1  UNL1        0.0257
      2 C         -27.0636   -0.1189   28.6079 C.ar    1  UNL1       -0.0162
      3 C         -26.9287    1.1713   29.0083 C.ar    1  UNL1       -0.0038
      4 C         -27.9560    1.7411   29.7840 C.ar    1  UNL1        0.0020
      5 C         -29.0569   -0.3271   29.7466 C.ar    1  UNL1        0.1398
      6 C         -28.9828    0.9722   30.1516 C.ar    1  UNL1        0.0296
      7 C         -25.8907   -0.6263   27.7857 C.3     1  UNL1        0.0447
      8 C         -24.7183   -1.0610   28.6129 C.ar    1  UNL1       -0.0153
      9 C         -23.5950   -0.2827   28.8125 C.ar    1  UNL1        0.0167
     10 C         -22.5044   -0.8064   29.5509 C.ar    1  UNL1        0.0986
     11 C         -24.5481   -2.4308   28.9357 C.ar    1  UNL1        0.0167
     12 C         -23.4521   -2.9200   29.5715 C.ar    1  UNL1        0.0986
     13 N         -22.4239   -2.0479   29.8652 N.ar    1  UNL1       -0.2423
     14 F         -30.0459   -1.1385   30.0807 F       1  UNL1       -0.2042
     15 C         -25.7834   -0.3883   26.4561 C.3     1  UNL1        0.0094
@<TRIPOS>BOND
     1     2     7    1
     2     7     8    1
     3     5    14    1
     4     7    15    1
     5     8     9   ar
     6     9    10   ar
     7    10    13   ar
     8    13    12   ar
     9    12    11   ar
    10    11     8   ar
    11     1     2   ar
    12     2     3   ar
    13     3     4   ar
    14     4     6   ar
    15     6     5   ar
    16     5     1   ar
