@<TRIPOS>MOLECULE
No_2038-gen_results/8p0m/2024-11-26-14-13-15/
 20 21 0 0 0
SMALL
GASTEIGER

@<TRIPOS>ATOM
      1 C         -28.0162   -0.8135   28.8779 C.ar    1  UNL1        0.0578
      2 C         -28.4690   -0.7850   29.8287 C.ar    1  UNL1        0.0114
      3 CL        -28.4333    0.3351   27.6491 Cl      1  UNL1       -0.0822
      4 C         -27.9093   -1.5473   30.9293 C.ar    1  UNL1        0.0010
      5 C         -26.8187   -2.4356   30.6847 C.ar    1  UNL1        0.0046
      6 C         -26.2227   -2.3199   29.4371 C.ar    1  UNL1        0.0562
      7 C         -26.7077   -1.3954   28.5891 C.ar    1  UNL1        0.0160
      8 C         -24.9858   -3.0669   29.2000 C.2     1  UNL1        0.2690
      9 N         -23.8385   -2.4395   29.0781 N.am    1  UNL1       -0.1755
     10 O         -25.0184   -4.3300   29.0790 O.2     1  UNL1       -0.2680
     11 C         -23.5156   -1.0774   29.2943 C.ar    1  UNL1        0.0736
     12 C         -22.2863   -0.6244   29.2797 C.ar    1  UNL1        0.0166
     13 C         -22.0487    0.7989   29.0079 C.ar    1  UNL1        0.0013
     14 C         -23.1160    1.6625   28.9049 C.ar    1  UNL1        0.0039
     15 C         -24.3880    1.1135   28.8451 C.ar    1  UNL1        0.0727
     16 C         -24.5603   -0.1988   28.9934 C.ar    1  UNL1        0.0205
     17 C         -25.5098    2.0953   28.6739 C.3     1  UNL1        0.4186
     18 F         -26.5175    2.0184   28.6311 F       1  UNL1       -0.1659
     19 F         -25.2332    3.0851   29.6845 F       1  UNL1       -0.1659
     20 F         -25.0472    2.6049   27.5273 F       1  UNL1       -0.1659
@<TRIPOS>BOND
     1     1     3    1
     2     6     8    1
     3     8     9   am
     4     8    10    2
     5     9    11    1
     6    15    17    1
     7    17    18    1
     8    17    19    1
     9    17    20    1
    10    11    12   ar
    11    12    13   ar
    12    13    14   ar
    13    14    15   ar
    14    15    16   ar
    15    16    11   ar
    16     1     2   ar
    17     2     4   ar
    18     4     5   ar
    19     5     6   ar
    20     6     7   ar
    21     7     1   ar
