@<TRIPOS>MOLECULE
No_2039-gen_results/8p0m/2024-11-26-14-13-15/
 30 34 0 0 0
SMALL
GASTEIGER

@<TRIPOS>ATOM
      1 C         -28.0162   -0.8135   28.8779 C.ar    1  UNL1       -0.0043
      2 C         -28.4690   -0.7850   29.8287 C.ar    1  UNL1       -0.0003
      3 C         -27.1356    0.2359   28.5352 C.ar    1  UNL1       -0.0220
      4 C         -26.8745    1.2825   29.3982 C.ar    1  UNL1       -0.0043
      5 C         -27.5070    1.2380   30.6295 C.ar    1  UNL1       -0.0003
      6 C         -28.3293    0.1745   30.9350 C.ar    1  UNL1       -0.0000
      7 C         -26.4077    0.3070   27.2259 C.3     1  UNL1        0.0314
      8 C         -25.0105    0.3902   27.3228 C.3     1  UNL1        0.0122
      9 C         -27.0459    0.3288   26.0049 C.3     1  UNL1        0.0833
     10 C         -28.4008    0.3616   25.8738 C.2     1  UNL1        0.1743
     11 C         -29.2070    0.7224   26.9188 C.ar    1  UNL1        0.0347
     12 C         -30.6633    0.8078   26.5344 C.ar    1  UNL1        0.0028
     13 C         -31.5912    1.0950   27.5603 C.ar    1  UNL1        0.0001
     14 C         -31.0640    1.3873   28.8147 C.ar    1  UNL1        0.0000
     15 C         -29.7724    1.5226   29.1227 C.ar    1  UNL1        0.0001
     16 C         -28.9822    1.4743   27.9525 C.ar    1  UNL1        0.0028
     17 C         -29.3077    3.0112   27.4087 C.ar    1  UNL1        0.0001
     18 C         -26.1343   -0.0005   24.9448 C.3     1  UNL1        0.0967
     19 C         -28.1743    3.8900   27.3290 C.ar    1  UNL1        0.0000
     20 C         -28.3552    5.1594   26.8984 C.ar    1  UNL1        0.0000
     21 O         -28.8146   -0.2195   24.7607 O.2     1  UNL1       -0.2913
     22 C         -29.6491    5.6031   26.4610 C.ar    1  UNL1        0.0000
     23 C         -30.6898    4.7376   26.4571 C.ar    1  UNL1        0.0000
     24 C         -30.5153    3.4886   26.9538 C.ar    1  UNL1        0.0000
     25 C         -24.2035    1.3262   26.7843 C.3     1  UNL1        0.0593
     26 C         -23.9558    2.4561   27.0186 C.2     1  UNL1        0.0679
     27 N         -23.2591    3.2265   26.0373 N.2     1  UNL1       -0.2720
     28 C         -24.4487    1.0545   25.2393 C.3     1  UNL1        0.1026
     29 N         -24.8641    0.3047   24.8042 N.3     1  UNL1       -0.2166
     30 C         -23.6239    2.2595   24.7771 C.3     1  UNL1        0.1428
@<TRIPOS>BOND
     1     3     7    1
     2     7     8    1
     3     7     9    1
     4     9    10    1
     5    10    11    1
     6    16    17    1
     7     9    18    1
     8    10    21    2
     9     8    25    1
    10    25    26    1
    11    26    27    2
    12    25    28    1
    13    18    29    1
    14    28    29    1
    15    27    30    1
    16    28    30    1
    17    11    12   ar
    18    12    13   ar
    19    13    14   ar
    20    14    15   ar
    21    15    16   ar
    22    16    11   ar
    23     1     2   ar
    24     2     6   ar
    25     6     5   ar
    26     5     4   ar
    27     4     3   ar
    28     3     1   ar
    29    17    19   ar
    30    19    20   ar
    31    20    22   ar
    32    22    23   ar
    33    23    24   ar
    34    24    17   ar
