@<TRIPOS>MOLECULE
No_204-gen_results/8p0m/2024-11-26-14-13-15/
 28 30 0 0 0
SMALL
GASTEIGER

@<TRIPOS>ATOM
      1 C         -28.0162   -0.8135   28.8779 C.ar    1  UNL1        0.0023
      2 C         -28.4690   -0.7850   29.8287 C.ar    1  UNL1        0.0795
      3 C         -27.0871    0.2903   28.6377 C.ar    1  UNL1       -0.0217
      4 C         -26.8317    1.2487   29.5869 C.ar    1  UNL1       -0.0043
      5 C         -28.3914    0.0801   31.0065 C.ar    1  UNL1        0.0066
      6 C         -27.4940    1.1521   30.7841 C.ar    1  UNL1       -0.0001
      7 C         -26.3172    0.3994   27.3653 C.3     1  UNL1        0.0307
      8 C         -26.8815    0.9711   26.3721 C.3     1  UNL1        0.0267
      9 C         -25.0088   -0.0567   27.3826 C.3     1  UNL1        0.0304
     10 C         -28.1703    1.4323   26.2851 C.ar    1  UNL1       -0.0222
     11 C         -28.7118    1.8207   25.0621 C.ar    1  UNL1       -0.0043
     12 C         -29.9921    2.3582   24.9725 C.ar    1  UNL1       -0.0003
     13 C         -30.6831    2.7187   26.1200 C.ar    1  UNL1       -0.0000
     14 C         -30.1148    2.4124   27.3582 C.ar    1  UNL1       -0.0003
     15 C         -28.9133    1.8652   27.4716 C.ar    1  UNL1       -0.0043
     16 C         -26.0865    1.0020   25.1060 C.3     1  UNL1        0.0050
     17 C         -30.9503    2.7567   28.5743 C.ar    1  UNL1       -0.0000
     18 C         -31.5152    1.6726   29.2209 C.ar    1  UNL1       -0.0000
     19 C         -32.7401    1.7074   29.3668 C.ar    1  UNL1       -0.0000
     20 C         -30.9951    4.0466   29.0742 C.ar    1  UNL1       -0.0000
     21 C         -32.2657    4.2325   29.8189 C.ar    1  UNL1       -0.0000
     22 C         -33.4400    2.8572   29.6161 C.ar    1  UNL1        0.0000
     23 C         -29.5245   -1.9512   30.2530 C.2     1  UNL1        0.3877
     24 O         -29.4262   -2.5823   31.1511 O.co2   1  UNL1       -0.2406
     25 O         -30.5681   -1.9484   29.4671 O.co2   1  UNL1       -0.2406
     26 C         -24.1110    0.5225   28.3688 C.2     1  UNL1       -0.0303
     27 C         -23.5490    0.0600   29.3056 C.2     1  UNL1       -0.0303
     28 C         -22.7341    0.2292   29.9229 C.3     1  UNL1        0.0303
@<TRIPOS>BOND
     1     3     7    1
     2     7     8    1
     3     7     9    1
     4     8    10    1
     5     8    16    1
     6    14    17    1
     7     2    23    1
     8    23    24   ar
     9    23    25   ar
    10     9    26    1
    11    26    27    2
    12    27    28    1
    13    17    18   ar
    14    18    19   ar
    15    19    22   ar
    16    22    21   ar
    17    21    20   ar
    18    20    17   ar
    19     1     2   ar
    20     2     5   ar
    21     5     6   ar
    22     6     4   ar
    23     4     3   ar
    24     3     1   ar
    25    10    11   ar
    26    11    12   ar
    27    12    13   ar
    28    13    14   ar
    29    14    15   ar
    30    15    10   ar
