@<TRIPOS>MOLECULE
No_2041-gen_results/8p0m/2024-11-26-14-13-15/
 18 19 0 0 0
SMALL
GASTEIGER

@<TRIPOS>ATOM
      1 C         -28.0162   -0.8135   28.8779 C.ar    1  UNL1       -0.0003
      2 C         -27.0636   -0.1189   28.6079 C.ar    1  UNL1       -0.0039
      3 C         -25.7647   -0.3897   29.0360 C.ar    1  UNL1       -0.0106
      4 C         -24.5516    0.4058   28.7646 C.3     1  UNL1        0.1758
      5 C         -23.2300    0.1178   29.2575 C.3     1  UNL1        0.0215
      6 C         -23.0942   -1.1309   29.8730 C.3     1  UNL1        0.0058
      7 C         -27.7980   -1.9341   29.8560 C.ar    1  UNL1       -0.0003
      8 C         -26.5420   -2.3269   30.2580 C.ar    1  UNL1       -0.0046
      9 C         -25.4514   -1.5516   29.9079 C.ar    1  UNL1       -0.0254
     10 C         -24.1562   -1.9097   30.2809 C.3     1  UNL1        0.0261
     11 C         -24.6450    1.6582   27.9464 C.3     1  UNL1        0.4083
     12 F         -24.7048    2.6251   28.6027 F       1  UNL1       -0.1692
     13 F         -23.4397    1.7715   27.2011 F       1  UNL1       -0.1692
     14 F         -25.5334    1.4010   26.9377 F       1  UNL1       -0.1692
     15 C         -24.1961    0.0553   27.6544 C.2     1  UNL1        0.2524
     16 N         -24.8225   -0.1016   26.6405 N.am    1  UNL1       -0.2030
     17 O         -23.0808   -0.7712   27.4801 O.2     1  UNL1       -0.2727
     18 C         -25.0110   -0.2192   25.3517 C.3     1  UNL1        0.1385
@<TRIPOS>BOND
     1     3     4    1
     2     4     5    1
     3     6    10    1
     4     9    10    1
     5     4    11    1
     6    11    12    1
     7    11    13    1
     8    11    14    1
     9     4    15    1
    10    15    16   am
    11    15    17    2
    12    16    18    1
    13     6     5    1
    14     1     2   ar
    15     2     3   ar
    16     3     9   ar
    17     9     8   ar
    18     8     7   ar
    19     7     1   ar
