@<TRIPOS>MOLECULE
No_2042-gen_results/8p0m/2024-11-26-14-13-15/
 24 26 0 0 0
SMALL
GASTEIGER

@<TRIPOS>ATOM
      1 C         -28.0162   -0.8135   28.8779 C.ar    1  UNL1        0.0000
      2 C         -28.4690   -0.7850   29.8287 C.ar    1  UNL1        0.0000
      3 C         -27.0871    0.2903   28.6377 C.ar    1  UNL1        0.0006
      4 C         -26.8317    1.2487   29.5869 C.ar    1  UNL1        0.0000
      5 C         -28.3914    0.0801   31.0065 C.ar    1  UNL1        0.0000
      6 C         -27.4940    1.1521   30.7841 C.ar    1  UNL1        0.0000
      7 C         -26.3172    0.3994   27.3653 C.ar    1  UNL1        0.0076
      8 C         -26.8815    0.9711   26.3721 C.ar    1  UNL1        0.0003
      9 C         -26.1464    0.9703   25.0973 C.ar    1  UNL1        0.0000
     10 C         -24.7793    0.5609   25.1117 C.ar    1  UNL1        0.0006
     11 C         -25.0074   -0.1159   27.2986 C.ar    1  UNL1        0.0416
     12 C         -24.2881    0.0057   26.2234 C.ar    1  UNL1        0.0082
     13 C         -24.3938   -0.7225   28.5385 C.1     1  UNL1       -0.0644
     14 C         -23.6294   -1.1921   29.0847 C.1     1  UNL1       -0.0864
     15 C         -22.6661   -0.8816   30.1069 C.3     1  UNL1        0.0764
     16 C         -28.2845    1.4715   26.2625 C.ar    1  UNL1       -0.0042
     17 C         -28.4268    2.7923   26.4776 C.ar    1  UNL1       -0.0219
     18 C         -29.3461    0.5744   26.1012 C.ar    1  UNL1       -0.0046
     19 C         -30.3927    1.1218   25.3995 C.ar    1  UNL1       -0.0219
     20 C         -27.5477    3.7001   26.9905 C.3     1  UNL1        0.0310
     21 C         -29.8007    3.3146   26.3558 C.ar    1  UNL1       -0.0046
     22 C         -30.8782    2.4351   25.9198 C.ar    1  UNL1       -0.0046
     23 C         -22.5553    0.5334   30.3990 C.3     1  UNL1        0.0150
     24 C         -31.6247    0.1132   25.4398 C.3     1  UNL1        0.0310
@<TRIPOS>BOND
     1     3     7    1
     2    11    13    1
     3    13    14    3
     4    14    15    1
     5     8    16    1
     6    17    20    1
     7    15    23    1
     8    19    24    1
     9     7     8   ar
    10     8     9   ar
    11     9    10   ar
    12    10    12   ar
    13    12    11   ar
    14    11     7   ar
    15    16    17   ar
    16    17    21   ar
    17    21    22   ar
    18    22    19   ar
    19    19    18   ar
    20    18    16   ar
    21     1     2   ar
    22     2     5   ar
    23     5     6   ar
    24     6     4   ar
    25     4     3   ar
    26     3     1   ar
