@<TRIPOS>MOLECULE
No_2043-gen_results/8p0m/2024-11-26-14-13-15/
 28 31 0 0 0
SMALL
GASTEIGER

@<TRIPOS>ATOM
      1 C         -28.0162   -0.8135   28.8779 C.ar    1  UNL1        0.0208
      2 C         -27.0636   -0.1189   28.6079 C.ar    1  UNL1        0.0440
      3 C         -26.9287    1.1713   29.0083 C.ar    1  UNL1       -0.0085
      4 C         -27.9560    1.7411   29.7840 C.ar    1  UNL1       -0.0028
      5 C         -29.0569   -0.3271   29.7466 C.ar    1  UNL1        0.0810
      6 C         -28.9828    0.9722   30.1516 C.ar    1  UNL1        0.0063
      7 N         -25.8680   -0.3972   27.8399 N.pl3   1  UNL1       -0.3069
      8 C         -25.2421    0.4832   27.1754 C.3     1  UNL1        0.1002
      9 C         -25.1084    1.7388   27.5723 C.3     1  UNL1        0.1021
     10 C         -26.1219    2.1638   28.4318 C.3     1  UNL1        0.0384
     11 C         -24.1036    2.5931   26.9123 C.2     1  UNL1        0.2452
     12 N         -23.9683    3.7854   27.4190 N.am    1  UNL1       -0.1728
     13 O         -23.1262    2.1515   26.2353 O.2     1  UNL1       -0.2732
     14 C         -30.1042   -1.3065   30.1968 C.2     1  UNL1        0.3878
     15 O         -30.7239   -0.9753   31.2737 O.co2   1  UNL1       -0.2406
     16 O         -30.2912   -2.3192   29.6062 O.co2   1  UNL1       -0.2406
     17 C         -25.0647    4.4165   28.1619 C.3     1  UNL1        0.2558
     18 C         -26.0025    3.5905   28.7854 C.3     1  UNL1        0.0632
     19 F         -24.9626    5.6402   28.4338 F       1  UNL1       -0.2131
     20 C         -25.3426   -1.7972   28.0800 C.3     1  UNL1        0.0955
     21 C         -24.0818   -1.7274   28.8269 C.3     1  UNL1        0.0507
     22 C         -24.1367   -1.4692   30.2318 C.ar    1  UNL1        0.0144
     23 C         -24.9769   -1.9292   31.0162 C.ar    1  UNL1        0.0002
     24 C         -25.0970   -1.3705   32.3860 C.ar    1  UNL1        0.0205
     25 C         -24.1714   -0.4334   32.7267 C.ar    1  UNL1        0.1004
     26 C         -23.1137   -0.5359   30.8571 C.ar    1  UNL1        0.1657
     27 N         -23.2494   -0.0723   32.0427 N.ar    1  UNL1       -0.2262
     28 N         -22.1029   -0.0959   29.9924 N.pl3   1  UNL1       -0.1075
@<TRIPOS>BOND
     1     2     7    1
     2     7     8    1
     3     3    10    1
     4     9    10    1
     5     9    11    1
     6    11    12   am
     7    11    13    2
     8     5    14    1
     9    14    15   ar
    10    14    16   ar
    11    12    17    1
    12    10    18    1
    13    17    19    1
    14     7    20    1
    15    20    21    1
    16    21    22    1
    17    26    28    1
    18     9     8    1
    19    18    17    1
    20     1     2   ar
    21     2     3   ar
    22     3     4   ar
    23     4     6   ar
    24     6     5   ar
    25     5     1   ar
    26    22    23   ar
    27    23    24   ar
    28    24    25   ar
    29    25    27   ar
    30    27    26   ar
    31    26    22   ar
