@<TRIPOS>MOLECULE
No_2044-gen_results/8p0m/2024-11-26-14-13-15/
 16 17 0 0 0
SMALL
GASTEIGER

@<TRIPOS>ATOM
      1 C         -28.0162   -0.8135   28.8779 C.ar    1  UNL1        0.0043
      2 C         -28.4690   -0.7850   29.8287 C.ar    1  UNL1        0.0001
      3 C         -26.5042   -0.7777   28.8766 C.ar    1  UNL1        0.0513
      4 C         -25.6540   -0.6597   27.7191 C.2     1  UNL1        0.2668
      5 C         -27.9180   -0.9374   31.1824 C.ar    1  UNL1       -0.0003
      6 C         -26.5423   -0.9399   31.2606 C.ar    1  UNL1       -0.0040
      7 C         -25.7832   -0.8935   30.1201 C.ar    1  UNL1       -0.0130
      8 N         -24.3670   -0.4566   27.8592 N.am    1  UNL1       -0.1654
      9 O         -26.1835   -0.5619   26.5872 O.2     1  UNL1       -0.2683
     10 C         -23.5826   -0.5396   29.0217 C.3     1  UNL1        0.3019
     11 C         -24.3466   -0.7283   30.1654 C.3     1  UNL1        0.0890
     12 C         -22.2033   -0.3461   29.0076 C.3     1  UNL1        0.4432
     13 F         -21.7671   -0.2053   28.0338 F       1  UNL1       -0.1657
     14 F         -21.5927   -1.4090   29.6979 F       1  UNL1       -0.1657
     15 F         -21.9632    0.7531   29.8608 F       1  UNL1       -0.1657
     16 F         -23.5116   -1.9472   28.8092 F       1  UNL1       -0.2084
@<TRIPOS>BOND
     1     3     4    1
     2     4     8   am
     3     4     9    2
     4     8    10    1
     5     7    11    1
     6    10    11    1
     7    10    12    1
     8    12    13    1
     9    12    14    1
    10    12    15    1
    11    10    16    1
    12     1     2   ar
    13     2     5   ar
    14     5     6   ar
    15     6     7   ar
    16     7     3   ar
    17     3     1   ar
