@<TRIPOS>MOLECULE
No_2045-gen_results/8p0m/2024-11-26-14-13-15/
 13 14 0 0 0
SMALL
GASTEIGER

@<TRIPOS>ATOM
      1 C         -28.0162   -0.8135   28.8779 C.ar    1  UNL1        0.0000
      2 C         -27.0636   -0.1189   28.6079 C.ar    1  UNL1        0.0000
      3 C         -25.7647   -0.3897   29.0360 C.ar    1  UNL1        0.0001
      4 C         -25.5296   -1.5302   29.9014 C.ar    1  UNL1        0.0000
      5 C         -26.6577   -2.2915   30.2035 C.ar    1  UNL1        0.0000
      6 C         -27.8548   -1.9555   29.7630 C.ar    1  UNL1        0.0000
      7 C         -24.5441    0.4126   28.7379 C.ar    1  UNL1        0.0046
      8 C         -23.3231    0.0476   29.0499 C.ar    1  UNL1        0.0567
      9 C         -23.2018   -1.2373   29.7566 C.ar    1  UNL1        0.0046
     10 C         -24.2259   -1.9647   30.2122 C.ar    1  UNL1        0.0001
     11 C         -22.1144    0.7738   28.7208 C.2     1  UNL1        0.2842
     12 O         -21.0754    0.4811   29.1052 O.2     1  UNL1       -0.2667
     13 N         -22.1538    1.6212   27.5730 N.am    1  UNL1       -0.0837
@<TRIPOS>BOND
     1     8    11    1
     2    11    12    2
     3    11    13   am
     4     1     2   ar
     5     2     3   ar
     6     4     5   ar
     7     5     6   ar
     8     6     1   ar
     9     3     4   ar
    10     4    10   ar
    11    10     9   ar
    12     9     8   ar
    13     8     7   ar
    14     7     3   ar
