@<TRIPOS>MOLECULE
No_2047-gen_results/8p0m/2024-11-26-14-13-15/
 22 23 0 0 0
SMALL
GASTEIGER

@<TRIPOS>ATOM
      1 C         -28.0162   -0.8135   28.8779 C.3     1  UNL1        0.3410
      2 C         -27.0636   -0.1190   28.6079 C.ar    1  UNL1        0.0433
      3 C         -26.8756    1.1325   28.9134 C.ar    1  UNL1       -0.0026
      4 C         -25.6883    1.9515   28.5672 C.ar    1  UNL1       -0.0116
      5 C         -24.6394    1.2834   27.8753 C.ar    1  UNL1        0.0761
      6 C         -24.8068   -0.0513   27.6040 C.ar    1  UNL1        0.0061
      7 C         -25.9019   -0.7670   27.9511 C.ar    1  UNL1        0.0013
      8 F         -29.0651   -0.4171   28.3436 F       1  UNL1       -0.1933
      9 F         -28.2631   -0.8466   30.2895 F       1  UNL1       -0.1933
     10 C         -23.4268    1.9693   27.5073 C.2     1  UNL1        0.3875
     11 O         -23.2879    2.6916   26.6461 O.co2   1  UNL1       -0.2406
     12 O         -22.2782    1.5552   28.2171 O.co2   1  UNL1       -0.2406
     13 C         -25.5453    3.3674   28.9265 C.3     1  UNL1        0.0530
     14 C         -26.4435    4.2611   28.2694 C.ar    1  UNL1       -0.0114
     15 C         -27.4353    4.7560   28.9753 C.ar    1  UNL1        0.0761
     16 C         -28.4970    5.3583   28.3652 C.ar    1  UNL1        0.0063
     17 C         -28.3706    5.6463   26.9671 C.ar    1  UNL1        0.0002
     18 C         -27.3057    5.1286   26.2365 C.ar    1  UNL1       -0.0003
     19 C         -26.3228    4.4126   26.8610 C.ar    1  UNL1       -0.0037
     20 C         -27.5785    4.5287   30.4385 C.2     1  UNL1        0.3875
     21 O         -28.3053    3.6431   30.8267 O.co2   1  UNL1       -0.2406
     22 O         -26.8294    5.1834   31.2459 O.co2   1  UNL1       -0.2406
@<TRIPOS>BOND
     1     1     8    1
     2     1     9    1
     3     5    10    1
     4    10    11   ar
     5    10    12   ar
     6     4    13    1
     7    13    14    1
     8    15    20    1
     9    20    21   ar
    10    20    22   ar
    11     1     2    1
    12     2     3   ar
    13     3     4   ar
    14     4     5   ar
    15     5     6   ar
    16     6     7   ar
    17     7     2   ar
    18    14    15   ar
    19    15    16   ar
    20    16    17   ar
    21    17    18   ar
    22    18    19   ar
    23    19    14   ar
