@<TRIPOS>MOLECULE
No_2048-gen_results/8p0m/2024-11-26-14-13-15/
 14 15 0 0 0
SMALL
GASTEIGER

@<TRIPOS>ATOM
      1 C         -28.0162   -0.8135   28.8779 C.ar    1  UNL1       -0.0003
      2 C         -27.0636   -0.1189   28.6079 C.ar    1  UNL1       -0.0028
      3 C         -26.9716    0.7139   27.5060 C.ar    1  UNL1       -0.0034
      4 C         -28.1053    0.7744   26.6421 C.ar    1  UNL1       -0.0028
      5 C         -29.2041    0.1179   27.0477 C.ar    1  UNL1       -0.0003
      6 C         -29.2127   -0.6088   28.1281 C.ar    1  UNL1       -0.0000
      7 C         -25.7106    1.4518   27.1380 C.3     1  UNL1        0.1242
      8 C         -25.2074    2.4128   27.9320 C.ar    1  UNL1       -0.0034
      9 C         -25.7865    2.9013   29.1063 C.ar    1  UNL1       -0.0028
     10 C         -25.3934    2.2363   30.1592 C.ar    1  UNL1       -0.0003
     11 C         -24.2046    1.5238   30.2163 C.ar    1  UNL1       -0.0000
     12 C         -23.3511    1.5311   29.1120 C.ar    1  UNL1       -0.0003
     13 C         -23.6210    2.0239   28.2626 C.ar    1  UNL1       -0.0028
     14 CL        -24.8557    0.7804   26.0098 Cl      1  UNL1       -0.1053
@<TRIPOS>BOND
     1     3     7    1
     2     7    14    1
     3     7     8    1
     4     1     2   ar
     5     2     3   ar
     6     3     4   ar
     7     4     5   ar
     8     5     6   ar
     9     6     1   ar
    10     8     9   ar
    11     9    10   ar
    12    10    11   ar
    13    11    12   ar
    14    12    13   ar
    15    13     8   ar
