@<TRIPOS>MOLECULE
No_2049-gen_results/8p0m/2024-11-26-14-13-15/
 35 37 0 0 0
SMALL
GASTEIGER

@<TRIPOS>ATOM
      1 O         -28.1229   -1.3353   28.4874 O.2     1  UNL1       -0.2660
      2 C         -28.5208   -0.4363   29.0779 C.2     1  UNL1        0.2922
      3 C         -28.5894    0.5916   28.9464 C.2     1  UNL1        0.2491
      4 N         -28.7866   -0.8872   30.4874 N.am    1  UNL1       -0.2483
      5 C         -27.7841    1.2822   27.9869 C.2     1  UNL1        0.0468
      6 C         -28.0838    1.5823   26.7801 C.2     1  UNL1        0.0034
      7 C         -29.4226    1.3802   26.4063 C.ar    1  UNL1        0.0004
      8 C         -29.7147    0.7172   25.3765 C.ar    1  UNL1        0.0080
      9 C         -31.0777    0.3771   25.1000 C.ar    1  UNL1        0.0975
     10 C         -32.0573    0.7529   25.9678 C.ar    1  UNL1        0.0080
     11 C         -31.7405    1.4998   27.0425 C.ar    1  UNL1        0.0003
     12 C         -30.4056    1.8169   27.3252 C.ar    1  UNL1        0.0000
     13 C         -28.8251   -2.2818   30.8338 C.3     1  UNL1        0.1252
     14 C         -28.6120   -0.1510   31.6729 C.ar    1  UNL1        0.0545
     15 O         -29.4153    1.5069   29.5383 O.2     1  UNL1       -0.2817
     16 C         -30.0303   -2.9493   30.5230 C.ar    1  UNL1        0.0007
     17 C         -30.6215   -3.2283   31.6463 C.ar    1  UNL1       -0.0067
     18 C         -31.9619   -3.7873   31.5189 C.ar    1  UNL1       -0.0191
     19 C         -32.4462   -4.0810   30.2279 C.ar    1  UNL1        0.0326
     20 C         -31.6921   -3.7619   29.1159 C.ar    1  UNL1        0.1388
     21 C         -30.4623   -3.1794   29.2651 C.ar    1  UNL1        0.0343
     22 O         -32.2418   -3.9667   27.9099 O.3     1  UNL1       -0.4637
     23 C         -32.5904   -2.9437   27.1140 C.3     1  UNL1        0.3186
     24 C         -33.7990   -3.0826   26.4601 C.2     1  UNL1        0.4084
     25 O         -34.2446   -2.0663   25.9878 O.co2   1  UNL1       -0.2415
     26 O         -34.2937   -4.2224   26.3906 O.co2   1  UNL1       -0.2415
     27 C         -31.4311   -0.3945   23.8691 C.2     1  UNL1        0.4766
     28 N         -32.5426   -0.3875   23.4615 N.pl3   1  UNL1        0.2047
     29 N         -30.4939   -1.3312   23.5247 N.pl3   1  UNL1        0.2047
     30 C         -29.7813    0.3785   32.2116 C.ar    1  UNL1        0.0149
     31 C         -29.7075    1.2259   33.0761 C.ar    1  UNL1        0.0013
     32 C         -28.4907    1.7400   33.5728 C.ar    1  UNL1        0.0001
     33 C         -27.6563   -0.3713   32.5343 C.ar    1  UNL1        0.0149
     34 C         -27.3479    0.7444   33.4416 C.ar    1  UNL1        0.0013
     35 C         -32.7800   -4.1797   32.7160 C.3     1  UNL1        0.0311
@<TRIPOS>BOND
     1     1     2    2
     2     2     3    1
     3     2     4   am
     4     3     5    1
     5     5     6    2
     6     6     7    1
     7     4    13    1
     8     4    14    1
     9     3    15    2
    10    13    16    1
    11    20    22    1
    12    22    23    1
    13    23    24    1
    14    24    25   ar
    15    24    26   ar
    16     9    27    1
    17    27    28    1
    18    27    29    2
    19    18    35    1
    20    14    30   ar
    21    30    31   ar
    22    31    32   ar
    23    32    34   ar
    24    34    33   ar
    25    33    14   ar
    26     7     8   ar
    27     8     9   ar
    28     9    10   ar
    29    10    11   ar
    30    11    12   ar
    31    12     7   ar
    32    16    17   ar
    33    17    18   ar
    34    18    19   ar
    35    19    20   ar
    36    20    21   ar
    37    21    16   ar
