@<TRIPOS>MOLECULE
No_205-gen_results/8p0m/2024-11-26-14-13-15/
 18 19 0 0 0
SMALL
GASTEIGER

@<TRIPOS>ATOM
      1 C         -28.0162   -0.8135   28.8779 C.ar    1  UNL1        0.0013
      2 C         -27.0636   -0.1189   28.6079 C.ar    1  UNL1        0.0145
      3 C         -25.7647   -0.3897   29.0360 C.ar    1  UNL1        0.0481
      4 C         -25.5296   -1.5302   29.9014 C.ar    1  UNL1        0.0145
      5 C         -26.6888   -2.2893   30.1810 C.ar    1  UNL1        0.0013
      6 C         -27.8727   -1.9508   29.7373 C.ar    1  UNL1        0.0001
      7 N         -24.6274    0.3693   28.7540 N.pl3   1  UNL1       -0.3015
      8 C         -24.0465    1.2310   29.5023 C.3     1  UNL1        0.1515
      9 C         -22.8434    1.8801   29.0241 C.3     1  UNL1        0.0293
     10 C         -24.1186    0.3776   27.4341 C.3     1  UNL1        0.0912
     11 C         -23.0393    1.0587   26.9722 C.3     1  UNL1        0.0215
     12 C         -22.3805    1.9186   27.8661 C.3     1  UNL1        0.0040
     13 C         -24.4421    1.2981   30.9511 C.2     1  UNL1        0.2603
     14 O         -24.5097    0.4714   31.7299 O.2     1  UNL1       -0.2715
     15 N         -24.7404    2.6857   31.3371 N.am    1  UNL1       -0.1896
     16 C         -25.2123    2.9714   32.6795 C.3     1  UNL1        0.1912
     17 C         -26.5579    3.6228   32.6295 C.1     1  UNL1       -0.0539
     18 C         -27.2203    3.5226   33.6114 C.1     1  UNL1       -0.0123
@<TRIPOS>BOND
     1     3     7    1
     2     7     8    1
     3     7    10    1
     4     9    12    1
     5    11    12    1
     6     8    13    1
     7    13    14    2
     8    13    15   am
     9    15    16    1
    10    16    17    1
    11    17    18    3
    12     8     9    1
    13    11    10    1
    14     1     2   ar
    15     2     3   ar
    16     3     4   ar
    17     4     5   ar
    18     5     6   ar
    19     6     1   ar
