@<TRIPOS>MOLECULE
No_2052-gen_results/8p0m/2024-11-26-14-13-15/
 10 10 0 0 0
SMALL
GASTEIGER

@<TRIPOS>ATOM
      1 C         -28.0162   -0.8135   28.8779 C.3     1  UNL1        0.0359
      2 C         -28.4690   -0.7850   29.8287 C.3     1  UNL1        0.1821
      3 C         -26.5042   -0.7777   28.8766 C.3     1  UNL1        0.0071
      4 C         -25.8305   -1.6807   29.6849 C.3     1  UNL1        0.0247
      5 C         -28.1490   -1.8854   30.9031 C.3     1  UNL1        0.1824
      6 C         -26.6460   -1.9561   31.0330 C.3     1  UNL1        0.0399
      7 O         -28.6274   -1.7308   32.1858 O.3     1  UNL1       -0.2204
      8 O         -28.3743    0.3791   30.6885 O.3     1  UNL1       -0.2204
      9 C         -24.6856   -2.3306   29.3529 C.2     1  UNL1       -0.0264
     10 C         -23.4854   -1.5742   29.2501 C.2     1  UNL1       -0.0049
@<TRIPOS>BOND
     1     1     2    1
     2     1     3    1
     3     3     4    1
     4     2     5    1
     5     4     6    1
     6     5     6    1
     7     5     7    1
     8     2     8    1
     9     4     9    1
    10     9    10    2
