@<TRIPOS>MOLECULE
No_2053-gen_results/8p0m/2024-11-26-14-13-15/
 23 24 0 0 0
SMALL
GASTEIGER

@<TRIPOS>ATOM
      1 C         -28.0162   -0.8135   28.8779 C.3     1  UNL1        0.0635
      2 C         -27.0636   -0.1189   28.6079 C.3     1  UNL1        0.1047
      3 C         -27.0010    0.6913   27.4910 C.2     1  UNL1       -0.0212
      4 C         -27.1778    1.9037   27.5632 C.2     1  UNL1       -0.0253
      5 C         -29.3113   -0.2245   28.4756 C.2     1  UNL1       -0.0205
      6 C         -28.7654    2.1211   27.8478 C.3     1  UNL1        0.0584
      7 C         -29.6074    1.1032   28.3182 C.2     1  UNL1        0.0577
      8 C         -25.6837   -0.6984   29.0834 C.2     1  UNL1        0.2298
      9 O         -24.7138   -0.1645   28.7213 O.2     1  UNL1       -0.2745
     10 N         -25.6359   -1.7976   29.8576 N.am    1  UNL1       -0.2750
     11 C         -24.3464   -2.3418   30.2719 C.3     1  UNL1        0.1149
     12 C         -26.7647   -2.5324   30.2537 C.3     1  UNL1        0.1232
     13 C         -28.0546   -1.9283   29.8769 C.3     1  UNL1        0.1398
     14 C         -30.9784    1.5739   28.5314 C.2     1  UNL1        0.3839
     15 O         -31.4170    2.4283   28.2111 O.co2   1  UNL1       -0.2409
     16 O         -31.6461    0.6231   29.2918 O.co2   1  UNL1       -0.2409
     17 O         -29.1832   -2.4229   30.3468 O.3     1  UNL1       -0.3502
     18 C         -29.1866   -3.2352   31.4280 C.3     1  UNL1        0.1893
     19 C         -30.0682   -2.7073   32.4777 C.3     1  UNL1        0.2374
     20 O         -30.1436   -1.6124   32.6845 O.2     1  UNL1       -0.4700
     21 C         -30.4414   -1.0686   33.9153 C.2     1  UNL1        0.1678
     22 C         -30.1445    0.2599   34.1476 C.2     1  UNL1        0.0142
     23 C         -30.4186    0.8222   35.2718 C.3     1  UNL1        0.0341
@<TRIPOS>BOND
     1     1     2    1
     2     2     3    1
     3     3     4    2
     4     1     5    1
     5     4     6    1
     6     5     7    2
     7     6     7    1
     8     2     8    1
     9     8     9    2
    10     8    10   am
    11    10    11    1
    12    10    12    1
    13     1    13    1
    14     7    14    1
    15    14    15   ar
    16    14    16   ar
    17    13    17    1
    18    17    18    1
    19    18    19    1
    20    19    20    1
    21    20    21    1
    22    21    22    2
    23    22    23    1
    24    13    12    1
