@<TRIPOS>MOLECULE
No_2054-gen_results/8p0m/2024-11-26-14-13-15/
 26 27 0 0 0
SMALL
GASTEIGER

@<TRIPOS>ATOM
      1 C         -28.0162   -0.8135   28.8779 C.ar    1  UNL1        0.0147
      2 C         -27.0636   -0.1190   28.6079 C.ar    1  UNL1        0.0522
      3 N         -26.9849    0.5972   27.5218 N.pl3   1  UNL1       -0.2597
      4 C         -27.9606   -1.5421   30.1660 C.ar    1  UNL1        0.0013
      5 C         -26.8633   -1.6702   30.6613 C.ar    1  UNL1       -0.0002
      6 C         -25.6309   -1.1471   30.3294 C.ar    1  UNL1       -0.0004
      7 C         -25.7307   -0.3002   29.1969 C.ar    1  UNL1        0.0265
      8 C         -26.6932    1.9442   27.4779 C.2     1  UNL1        0.0673
      9 C         -26.0521    2.6977   27.1006 C.2     1  UNL1        0.0160
     10 C         -24.7959    2.3870   26.2751 C.2     1  UNL1        0.0022
     11 C         -24.2279    1.2210   26.2707 C.2     1  UNL1        0.0418
     12 C         -27.0276    0.0215   26.1869 C.3     1  UNL1        0.2413
     13 C         -24.3569    0.4591   27.2858 C.3     1  UNL1        0.3130
     14 C         -24.4982   -0.0354   28.5380 C.3     1  UNL1        0.2289
     15 F         -24.9998   -0.7626   26.6860 F       1  UNL1       -0.1965
     16 C         -28.1872    0.5407   25.4845 C.3     1  UNL1        0.0616
     17 F         -26.2461   -0.6681   25.7678 F       1  UNL1       -0.2145
     18 C         -23.1877    0.1307   29.2838 C.3     1  UNL1        0.3095
     19 F         -23.0581   -0.1151   27.1527 F       1  UNL1       -0.1965
     20 O         -23.7167   -0.8810   28.5370 O.3     1  UNL1       -0.3412
     21 C         -23.4459   -1.7713   29.5046 C.3     1  UNL1        0.1748
     22 C         -22.3757    1.1824   29.1214 C.2     1  UNL1        0.2687
     23 O         -23.3594   -0.0828   30.7775 O.3     1  UNL1       -0.1837
     24 O         -22.2423   -0.2164   29.2936 O.3     1  UNL1       -0.3218
     25 C         -21.6740   -0.9417   28.4909 C.3     1  UNL1        0.1773
     26 O         -21.4283    1.4553   28.2418 O.2     1  UNL1       -0.2828
@<TRIPOS>BOND
     1     2     3    1
     2     3     8    1
     3     8     9    2
     4     9    10    1
     5    10    11    2
     6     3    12    1
     7    11    13    1
     8     7    14    1
     9    13    14    1
    10    13    15    1
    11    12    16    1
    12    12    17    1
    13    14    18    1
    14    13    19    1
    15    14    20    1
    16    20    21    1
    17    18    22    1
    18    18    23    1
    19    18    24    1
    20    24    25    1
    21    22    26    2
    22     1     2   ar
    23     2     7   ar
    24     7     6   ar
    25     6     5   ar
    26     5     4   ar
    27     4     1   ar
