@<TRIPOS>MOLECULE
No_2055-gen_results/8p0m/2024-11-26-14-13-15/
 10 10 0 0 0
SMALL
GASTEIGER

@<TRIPOS>ATOM
      1 C         -28.0162   -0.8135   28.8779 C.2     1  UNL1        0.0117
      2 C         -27.0636   -0.1189   28.6079 C.2     1  UNL1       -0.0427
      3 C         -26.9716    0.7139   27.5060 C.3     1  UNL1        0.0221
      4 C         -25.8206    1.4910   27.1160 C.3     1  UNL1        0.0044
      5 C         -24.6562    1.4242   27.9180 C.3     1  UNL1        0.0007
      6 C         -24.6847    0.5901   29.0659 C.3     1  UNL1        0.0044
      7 C         -25.8099   -0.1265   29.3338 C.3     1  UNL1        0.0221
      8 C         -29.2186   -0.0422   29.3127 C.2     1  UNL1        0.0926
      9 N         -29.7153    0.7229   28.6403 N.2     1  UNL1       -0.2668
     10 C         -30.8179    1.4497   28.9956 C.3     1  UNL1        0.1517
@<TRIPOS>BOND
     1     1     2    2
     2     2     3    1
     3     3     4    1
     4     4     5    1
     5     5     6    1
     6     2     7    1
     7     6     7    1
     8     1     8    1
     9     8     9    2
    10     9    10    1
