@<TRIPOS>MOLECULE
No_2057-gen_results/8p0m/2024-11-26-14-13-15/
 12 13 0 0 0
SMALL
GASTEIGER

@<TRIPOS>ATOM
      1 C         -28.0162   -0.8135   28.8779 C.ar    1  UNL1        0.0000
      2 C         -27.0636   -0.1189   28.6079 C.ar    1  UNL1        0.0000
      3 C         -25.7923   -0.4302   29.0761 C.ar    1  UNL1        0.0000
      4 C         -25.5756   -1.5654   29.9363 C.ar    1  UNL1        0.0000
      5 C         -26.7354   -2.3004   30.2173 C.ar    1  UNL1        0.0000
      6 C         -27.9184   -1.9537   29.7629 C.ar    1  UNL1        0.0000
      7 C         -27.1057    1.1023   27.7593 C.ar    1  UNL1        0.0000
      8 C         -26.7157    2.2350   27.9945 C.ar    1  UNL1        0.0000
      9 C         -26.6929    3.3459   27.0337 C.ar    1  UNL1        0.0000
     10 C         -27.1962    3.0779   25.7437 C.ar    1  UNL1        0.0000
     11 C         -27.3870    1.0224   26.2986 C.ar    1  UNL1        0.0000
     12 C         -27.4848    1.8986   25.4317 C.ar    1  UNL1        0.0000
@<TRIPOS>BOND
     1     2     7    1
     2     7     8   ar
     3     8     9   ar
     4     9    10   ar
     5    10    12   ar
     6    12    11   ar
     7    11     7   ar
     8     1     2   ar
     9     2     3   ar
    10     3     4   ar
    11     4     5   ar
    12     5     6   ar
    13     6     1   ar
