@<TRIPOS>MOLECULE
No_2058-gen_results/8p0m/2024-11-26-14-13-15/
 17 18 0 0 0
SMALL
GASTEIGER

@<TRIPOS>ATOM
      1 C         -28.0162   -0.8135   28.8779 C.ar    1  UNL1        0.0296
      2 C         -27.0636   -0.1189   28.6079 C.ar    1  UNL1        0.0023
      3 C         -25.7647   -0.3897   29.0360 C.ar    1  UNL1        0.0001
      4 C         -25.5296   -1.5302   29.9014 C.ar    1  UNL1        0.0023
      5 C         -26.6888   -2.2893   30.1810 C.ar    1  UNL1        0.0296
      6 C         -27.8727   -1.9508   29.7373 C.ar    1  UNL1        0.1401
      7 C         -24.5491    0.4100   28.7341 C.ar    1  UNL1        0.0039
      8 C         -24.0931    1.3779   29.5761 C.ar    1  UNL1        0.0714
      9 C         -22.9754    2.1437   29.2395 C.ar    1  UNL1        0.0039
     10 C         -22.2571    1.9096   28.0218 C.ar    1  UNL1       -0.0001
     11 C         -23.7980    0.2733   27.5521 C.ar    1  UNL1       -0.0001
     12 C         -22.7107    1.0013   27.2291 C.ar    1  UNL1       -0.0000
     13 F         -28.9242   -2.7106   30.0688 F       1  UNL1       -0.2042
     14 C         -24.7406    1.6280   30.9090 C.3     1  UNL1        0.4186
     15 F         -26.1252    1.5444   30.7757 F       1  UNL1       -0.1659
     16 F         -24.3635    0.6991   31.8079 F       1  UNL1       -0.1659
     17 F         -24.4821    2.8231   31.3664 F       1  UNL1       -0.1659
@<TRIPOS>BOND
     1     3     7    1
     2     6    13    1
     3     8    14    1
     4    14    15    1
     5    14    16    1
     6    14    17    1
     7     7     8   ar
     8     8     9   ar
     9     9    10   ar
    10    10    12   ar
    11    12    11   ar
    12    11     7   ar
    13     1     2   ar
    14     2     3   ar
    15     3     4   ar
    16     4     5   ar
    17     5     6   ar
    18     6     1   ar
