@<TRIPOS>MOLECULE
No_2059-gen_results/8p0m/2024-11-26-14-13-15/
 19 21 0 0 0
SMALL
GASTEIGER

@<TRIPOS>ATOM
      1 C         -28.0162   -0.8135   28.8779 C.ar    1  UNL1       -0.0039
      2 C         -27.0636   -0.1190   28.6079 C.ar    1  UNL1       -0.0178
      3 C         -26.9287    1.1713   29.0083 C.ar    1  UNL1       -0.0039
      4 C         -27.9560    1.7411   29.7840 C.ar    1  UNL1       -0.0003
      5 C         -29.0569   -0.3271   29.7466 C.ar    1  UNL1       -0.0003
      6 C         -28.9828    0.9722   30.1516 C.ar    1  UNL1       -0.0000
      7 C         -25.8815   -0.6260   27.7945 C.3     1  UNL1        0.0526
      8 C         -24.5472   -0.2311   28.2390 C.ar    1  UNL1       -0.0178
      9 C         -23.6883   -0.7975   28.8778 C.ar    1  UNL1       -0.0039
     10 C         -22.3307   -0.2315   29.1698 C.ar    1  UNL1       -0.0003
     11 C         -22.0692    0.9887   28.5559 C.ar    1  UNL1       -0.0000
     12 C         -24.1245    1.1500   27.7519 C.ar    1  UNL1       -0.0039
     13 C         -22.9730    1.7101   27.9529 C.ar    1  UNL1       -0.0003
     14 C         -30.1243    1.5099   31.0111 C.ar    1  UNL1       -0.0000
     15 C         -29.7843    2.3298   31.9559 C.ar    1  UNL1       -0.0000
     16 C         -31.4025    1.1398   30.6929 C.ar    1  UNL1       -0.0000
     17 C         -30.7443    2.8874   32.8514 C.ar    1  UNL1        0.0000
     18 C         -32.4132    1.6713   31.5554 C.ar    1  UNL1        0.0000
     19 C         -32.0688    2.5337   32.5959 C.ar    1  UNL1        0.0000
@<TRIPOS>BOND
     1     2     7    1
     2     7     8    1
     3     6    14    1
     4     1     2   ar
     5     2     3   ar
     6     3     4   ar
     7     4     6   ar
     8     6     5   ar
     9     5     1   ar
    10    14    15   ar
    11    15    17   ar
    12    17    19   ar
    13    19    18   ar
    14    18    16   ar
    15    16    14   ar
    16     8     9   ar
    17     9    10   ar
    18    10    11   ar
    19    11    13   ar
    20    13    12   ar
    21    12     8   ar
