@<TRIPOS>MOLECULE
No_2060-gen_results/8p0m/2024-11-26-14-13-15/
 18 18 0 0 0
SMALL
GASTEIGER

@<TRIPOS>ATOM
      1 C         -28.0162   -0.8135   28.8779 C.ar    1  UNL1        0.0335
      2 C         -28.4690   -0.7850   29.8287 C.ar    1  UNL1        0.1398
      3 C         -27.0871    0.2903   28.6377 C.ar    1  UNL1        0.0734
      4 C         -26.8317    1.2487   29.5869 C.ar    1  UNL1        0.0009
      5 C         -28.3914    0.0801   31.0065 C.ar    1  UNL1        0.0265
      6 C         -27.4940    1.1521   30.7841 C.ar    1  UNL1       -0.0057
      7 C         -26.3109    0.3918   27.3640 C.3     1  UNL1        0.4186
      8 F         -25.5530   -0.4068   27.2285 F       1  UNL1       -0.1659
      9 F         -25.6173    1.6102   27.2977 F       1  UNL1       -0.1659
     10 F         -27.1940    0.4864   26.2871 F       1  UNL1       -0.1659
     11 F         -29.3442   -1.9117   30.1754 F       1  UNL1       -0.2042
     12 C         -27.2819    2.1968   31.8535 C.3     1  UNL1        0.1012
     13 BR        -26.1798    3.3597   32.1439 Br      1  UNL1       -0.0720
     14 C         -28.3731    2.2230   32.9477 C.2     1  UNL1       -0.0107
     15 C         -28.2021    2.7938   33.8782 C.2     1  UNL1       -0.0037
     16 C         -29.0597    2.7025   35.0713 C.2     1  UNL1       -0.0049
     17 C         -30.1655    1.9252   34.8991 C.2     1  UNL1       -0.0258
     18 C         -30.3514    1.2307   33.7329 C.3     1  UNL1        0.0307
@<TRIPOS>BOND
     1     3     7    1
     2     7     8    1
     3     7     9    1
     4     7    10    1
     5     2    11    1
     6     6    12    1
     7    12    13    1
     8    12    14    1
     9    14    15    2
    10    15    16    1
    11    16    17    2
    12    17    18    1
    13     1     2   ar
    14     2     5   ar
    15     5     6   ar
    16     6     4   ar
    17     4     3   ar
    18     3     1   ar
