@<TRIPOS>MOLECULE
No_2062-gen_results/8p0m/2024-11-26-14-13-15/
 11 11 0 0 0
SMALL
GASTEIGER

@<TRIPOS>ATOM
      1 C         -28.0162   -0.8135   28.8779 C.ar    1  UNL1        0.2140
      2 C         -27.0636   -0.1190   28.6079 C.ar    1  UNL1        0.1198
      3 C         -27.0010    0.6913   27.4910 C.ar    1  UNL1        0.0232
      4 C         -28.1373    0.7363   26.6350 C.ar    1  UNL1        0.0131
      5 C         -29.2360    0.0765   27.0690 C.ar    1  UNL1        0.0610
      6 C         -29.2177   -0.6429   28.1747 C.ar    1  UNL1        0.0550
      7 O         -28.0326   -1.5744   30.0419 O.3     1  UNL1       -0.2849
      8 CL        -30.7181    0.1126   26.2445 Cl      1  UNL1       -0.0821
      9 N         -25.6838   -0.0798   29.1898 N.2     1  UNL1       -0.2452
     10 C         -24.6936    0.5459   28.8265 C.2     1  UNL1        0.0729
     11 C         -24.7476    1.3315   27.6811 C.3     1  UNL1        0.0534
@<TRIPOS>BOND
     1     1     7    1
     2     5     8    1
     3     2     9    1
     4     9    10    2
     5    10    11    1
     6     1     2   ar
     7     2     3   ar
     8     3     4   ar
     9     4     5   ar
    10     5     6   ar
    11     6     1   ar
