@<TRIPOS>MOLECULE
No_2063-gen_results/8p0m/2024-11-26-14-13-15/
 19 21 0 0 0
SMALL
GASTEIGER

@<TRIPOS>ATOM
      1 C         -28.0162   -0.8135   28.8779 C.ar    1  UNL1        0.0375
      2 C         -27.0636   -0.1189   28.6079 C.ar    1  UNL1        0.0031
      3 C         -25.7647   -0.3897   29.0360 C.ar    1  UNL1        0.0002
      4 C         -25.5296   -1.5302   29.9014 C.ar    1  UNL1        0.0031
      5 C         -26.6577   -2.2915   30.2035 C.ar    1  UNL1        0.0375
      6 C         -27.8548   -1.9555   29.7630 C.ar    1  UNL1        0.1453
      7 C         -24.5441    0.4126   28.7379 C.ar    1  UNL1        0.0000
      8 C         -23.3232    0.0476   29.0499 C.ar    1  UNL1        0.0000
      9 C         -22.1997    0.8411   28.7194 C.ar    1  UNL1        0.0000
     10 C         -22.3632    1.8394   27.7172 C.ar    1  UNL1        0.0000
     11 C         -24.6043    1.5165   27.8119 C.ar    1  UNL1        0.0000
     12 C         -23.5582    2.1898   27.3588 C.ar    1  UNL1        0.0000
     13 O         -28.9356   -2.7093   30.1249 O.3     1  UNL1       -0.4535
     14 C         -30.0587   -2.1592   30.5881 C.ar    1  UNL1        0.1453
     15 C         -31.1331   -2.8029   30.1792 C.ar    1  UNL1        0.0375
     16 C         -32.4168   -2.1920   30.3361 C.ar    1  UNL1        0.0031
     17 C         -32.4591   -0.9867   31.0854 C.ar    1  UNL1        0.0002
     18 C         -31.3202   -0.4124   31.5266 C.ar    1  UNL1        0.0031
     19 C         -30.0618   -0.9582   31.2440 C.ar    1  UNL1        0.0375
@<TRIPOS>BOND
     1     3     7    1
     2     6    13    1
     3    13    14    1
     4     7     8   ar
     5     8     9   ar
     6     9    10   ar
     7    10    12   ar
     8    12    11   ar
     9    11     7   ar
    10     1     2   ar
    11     2     3   ar
    12     3     4   ar
    13     4     5   ar
    14     5     6   ar
    15     6     1   ar
    16    14    15   ar
    17    15    16   ar
    18    16    17   ar
    19    17    18   ar
    20    18    19   ar
    21    19    14   ar
