@<TRIPOS>MOLECULE
No_2064-gen_results/8p0m/2024-11-26-14-13-15/
 21 22 0 0 0
SMALL
GASTEIGER

@<TRIPOS>ATOM
      1 C         -28.0162   -0.8135   28.8779 C.ar    1  UNL1        0.0051
      2 C         -28.4690   -0.7850   29.8287 C.ar    1  UNL1        0.0754
      3 C         -27.1356    0.2359   28.5352 C.ar    1  UNL1        0.0143
      4 C         -26.8745    1.2825   29.3982 C.ar    1  UNL1       -0.0013
      5 C         -27.5070    1.2380   30.6295 C.ar    1  UNL1       -0.0000
      6 C         -29.4093   -1.9436   30.2887 C.2     1  UNL1        0.3417
      7 C         -28.3221    0.1318   30.9672 C.ar    1  UNL1        0.0064
      8 O         -29.1335   -3.1787   30.3560 O.2     1  UNL1       -0.2449
      9 O         -30.4919   -1.6785   31.0262 O.3     1  UNL1       -0.4341
     10 C         -26.3867    0.3015   27.2150 C.3     1  UNL1        0.2056
     11 C         -25.2390    0.8023   26.9944 C.ar    1  UNL1        0.0141
     12 C         -24.4509    1.2300   28.1101 C.ar    1  UNL1       -0.0013
     13 C         -23.1023    1.7737   27.7375 C.ar    1  UNL1       -0.0002
     14 C         -22.7780    2.0708   26.4660 C.ar    1  UNL1       -0.0000
     15 C         -23.6152    1.7668   25.4365 C.ar    1  UNL1       -0.0002
     16 C         -24.8248    1.1093   25.6945 C.ar    1  UNL1       -0.0013
     17 F         -27.0906   -0.2658   26.2604 F       1  UNL1       -0.2275
     18 C         -31.6239   -2.3288   30.7042 C.3     1  UNL1        0.3084
     19 C         -32.2401   -1.9794   29.5472 C.2     1  UNL1        0.3544
     20 O         -32.1983   -2.6644   28.6370 O.2     1  UNL1       -0.2550
     21 F         -32.5971   -0.7978   29.3876 F       1  UNL1       -0.1595
@<TRIPOS>BOND
     1     2     6    1
     2     6     8    2
     3     6     9    1
     4     3    10    1
     5    10    17    1
     6     9    18    1
     7    18    19    1
     8    19    20    2
     9    19    21    1
    10    10    11    1
    11     1     2   ar
    12     2     7   ar
    13     7     5   ar
    14     5     4   ar
    15     4     3   ar
    16     3     1   ar
    17    11    12   ar
    18    12    13   ar
    19    13    14   ar
    20    14    15   ar
    21    15    16   ar
    22    16    11   ar
