@<TRIPOS>MOLECULE
No_2065-gen_results/8p0m/2024-11-26-14-13-15/
 13 13 0 0 0
SMALL
GASTEIGER

@<TRIPOS>ATOM
      1 C         -28.0162   -0.8135   28.8779 C.ar    1  UNL1        0.0104
      2 C         -28.4690   -0.7850   29.8287 C.ar    1  UNL1        0.0797
      3 C         -27.0871    0.2903   28.6377 C.ar    1  UNL1        0.0716
      4 C         -26.8317    1.2487   29.5869 C.ar    1  UNL1        0.0039
      5 C         -28.3914    0.0801   31.0065 C.ar    1  UNL1        0.0066
      6 C         -27.4940    1.1521   30.7841 C.ar    1  UNL1        0.0002
      7 C         -26.3172    0.3994   27.3653 C.3     1  UNL1        0.4186
      8 F         -25.4556   -0.3605   27.3146 F       1  UNL1       -0.1659
      9 F         -27.2053    0.2310   26.3179 F       1  UNL1       -0.1659
     10 F         -25.8182    1.6689   27.0937 F       1  UNL1       -0.1659
     11 C         -29.4499   -2.0232   30.2391 C.2     1  UNL1        0.3877
     12 O         -30.4936   -1.9020   29.8745 O.co2   1  UNL1       -0.2406
     13 O         -28.9813   -3.0542   30.9055 O.co2   1  UNL1       -0.2406
@<TRIPOS>BOND
     1     3     7    1
     2     7     8    1
     3     7     9    1
     4     7    10    1
     5     2    11    1
     6    11    12   ar
     7    11    13   ar
     8     1     2   ar
     9     2     5   ar
    10     5     6   ar
    11     6     4   ar
    12     4     3   ar
    13     3     1   ar
