@<TRIPOS>MOLECULE
No_2066-gen_results/8p0m/2024-11-26-14-13-15/
 19 20 0 0 0
SMALL
GASTEIGER

@<TRIPOS>ATOM
      1 C         -28.0162   -0.8135   28.8779 C.ar    1  UNL1        0.0436
      2 C         -27.0636   -0.1189   28.6079 C.ar    1  UNL1        0.1397
      3 C         -25.7647   -0.3897   29.0360 C.ar    1  UNL1        0.0341
      4 C         -24.5517    0.4058   28.7646 C.ar    1  UNL1        0.0061
      5 C         -23.2300    0.1178   29.2575 C.ar    1  UNL1        0.0003
      6 C         -22.1393    0.9427   28.9224 C.ar    1  UNL1        0.0033
      7 C         -27.8294   -1.9287   29.8545 C.ar    1  UNL1        0.0376
      8 C         -26.5882   -2.3272   30.2682 C.ar    1  UNL1        0.0069
      9 C         -25.4565   -1.5432   29.9146 C.ar    1  UNL1        0.0035
     10 C         -22.2302    1.9089   27.8723 C.ar    1  UNL1        0.0420
     11 C         -24.5538    1.4700   27.7617 C.ar    1  UNL1        0.0421
     12 C         -23.4471    2.1666   27.3764 C.ar    1  UNL1        0.1957
     13 BR        -29.3061   -2.9886   30.3564 Br      1  UNL1       -0.0489
     14 O         -23.6068    3.1002   26.4113 O.3     1  UNL1       -0.2866
     15 O         -27.2020    0.9343   27.7467 O.3     1  UNL1       -0.4646
     16 C         -28.4763    1.3188   27.3809 C.3     1  UNL1        0.3052
     17 C         -29.1865    2.1352   28.1375 C.2     1  UNL1        0.3543
     18 O         -28.5389    2.8956   28.9070 O.2     1  UNL1       -0.2550
     19 F         -30.3902    2.0133   28.2179 F       1  UNL1       -0.1595
@<TRIPOS>BOND
     1     3     4    1
     2     7    13    1
     3    12    14    1
     4     2    15    1
     5    15    16    1
     6    16    17    1
     7    17    18    2
     8    17    19    1
     9     1     2   ar
    10     2     3   ar
    11     3     9   ar
    12     9     8   ar
    13     8     7   ar
    14     7     1   ar
    15     4     5   ar
    16     5     6   ar
    17     6    10   ar
    18    10    12   ar
    19    12    11   ar
    20    11     4   ar
