@<TRIPOS>MOLECULE
No_2067-gen_results/8p0m/2024-11-26-14-13-15/
 15 16 0 0 0
SMALL
GASTEIGER

@<TRIPOS>ATOM
      1 C         -28.0162   -0.8135   28.8779 C.ar    1  UNL1        0.0376
      2 C         -28.4690   -0.7850   29.8287 C.ar    1  UNL1        0.0031
      3 C         -26.5455   -0.8762   28.8500 C.ar    1  UNL1        0.1488
      4 C         -25.8041   -1.0324   30.0571 C.ar    1  UNL1        0.0376
      5 C         -26.5373   -1.0386   31.2171 C.ar    1  UNL1        0.0031
      6 C         -27.8929   -0.9601   31.1743 C.ar    1  UNL1        0.0002
      7 O         -25.8001   -0.8259   27.7108 O.3     1  UNL1       -0.4210
      8 C         -25.7838    0.3630   27.0424 C.2     1  UNL1        0.3457
      9 C         -24.5590    0.8791   26.9823 C.ar    1  UNL1        0.0760
     10 C         -24.2281    1.8214   27.5279 C.ar    1  UNL1        0.0065
     11 C         -22.7980    2.4384   27.4412 C.ar    1  UNL1        0.0002
     12 C         -21.9724    1.7822   26.5702 C.ar    1  UNL1        0.0000
     13 C         -22.5059    0.9306   25.7697 C.ar    1  UNL1        0.0002
     14 C         -23.8175    0.5159   25.8013 C.ar    1  UNL1        0.0065
     15 O         -26.8667    0.7753   26.5694 O.2     1  UNL1       -0.2445
@<TRIPOS>BOND
     1     3     7    1
     2     7     8    1
     3     8     9    1
     4     8    15    2
     5     1     2   ar
     6     2     6   ar
     7     6     5   ar
     8     5     4   ar
     9     4     3   ar
    10     3     1   ar
    11     9    10   ar
    12    10    11   ar
    13    11    12   ar
    14    12    13   ar
    15    13    14   ar
    16    14     9   ar
