@<TRIPOS>MOLECULE
No_2068-gen_results/8p0m/2024-11-26-14-13-15/
 35 37 0 0 0
SMALL
GASTEIGER

@<TRIPOS>ATOM
      1 C         -28.0162   -0.8135   28.8779 C.ar    1  UNL1        0.0064
      2 C         -28.4690   -0.7850   29.8287 C.ar    1  UNL1        0.0757
      3 C         -26.5042   -0.7777   28.8766 C.ar    1  UNL1        0.0002
      4 C         -25.6540   -0.6597   27.7191 C.ar    1  UNL1        0.0003
      5 C         -27.9180   -0.9374   31.1824 C.ar    1  UNL1        0.0064
      6 C         -26.5424   -0.9399   31.2606 C.ar    1  UNL1        0.0002
      7 C         -25.7832   -0.8935   30.1201 C.ar    1  UNL1        0.0000
      8 C         -25.9419    0.2435   26.7160 C.ar    1  UNL1        0.0022
      9 C         -25.6520    1.4271   26.7255 C.ar    1  UNL1        0.0277
     10 C         -24.6801    1.9120   27.6972 C.ar    1  UNL1        0.0088
     11 C         -23.6388    1.0067   27.9946 C.ar    1  UNL1        0.0798
     12 C         -24.0880   -0.1746   28.3256 C.ar    1  UNL1        0.0066
     13 C         -22.3869    1.4301   28.5314 C.2     1  UNL1        0.3878
     14 O         -21.5214    0.5776   28.9098 O.co2   1  UNL1       -0.2406
     15 O         -22.1120    2.6601   28.6640 O.co2   1  UNL1       -0.2406
     16 C         -30.0728   -0.8014   29.8823 C.2     1  UNL1        0.3417
     17 O         -30.6878   -0.1151   29.1467 O.2     1  UNL1       -0.2449
     18 O         -30.7016   -1.5591   30.7266 O.3     1  UNL1       -0.4352
     19 C         -26.4079    2.4691   25.9621 C.2     1  UNL1        0.1401
     20 C         -27.4071    2.1810   25.1249 C.2     1  UNL1        0.0296
     21 C         -28.6134    1.9500   25.5364 C.ar    1  UNL1        0.0022
     22 C         -29.6901    1.4365   24.7152 C.ar    1  UNL1        0.0039
     23 C         -30.9577    1.1228   25.1547 C.ar    1  UNL1        0.0714
     24 C         -31.3163    1.6698   26.3912 C.ar    1  UNL1        0.0039
     25 C         -30.4279    2.3745   27.1967 C.ar    1  UNL1       -0.0001
     26 C         -29.1242    2.5459   26.8263 C.ar    1  UNL1        0.0001
     27 F         -26.0661    3.7378   26.1326 F       1  UNL1       -0.2042
     28 C         -31.8839    0.4693   24.3041 C.3     1  UNL1        0.4186
     29 F         -32.4808    1.0819   23.5710 F       1  UNL1       -0.1659
     30 F         -31.1027   -0.5408   23.6489 F       1  UNL1       -0.1659
     31 F         -32.7641   -0.3187   25.0567 F       1  UNL1       -0.1659
     32 C         -32.0154   -1.8097   30.5519 C.3     1  UNL1        0.2962
     33 C         -32.8716   -0.9839   31.1198 C.2     1  UNL1        0.3053
     34 O         -33.9533   -0.7986   30.7378 O.2     1  UNL1       -0.2676
     35 N         -32.3935   -0.1511   32.1448 N.am    1  UNL1       -0.0845
@<TRIPOS>BOND
     1     3     4    1
     2    11    13    1
     3    13    14   ar
     4    13    15   ar
     5     2    16    1
     6    16    17    2
     7    16    18    1
     8     9    19    1
     9    19    20    2
    10    20    21    1
    11    19    27    1
    12    23    28    1
    13    28    29    1
    14    28    30    1
    15    28    31    1
    16    18    32    1
    17    32    33    1
    18    33    34    2
    19    33    35   am
    20     4     8   ar
    21     8     9   ar
    22     9    10   ar
    23    10    11   ar
    24    11    12   ar
    25    12     4   ar
    26     1     2   ar
    27     2     5   ar
    28     5     6   ar
    29     6     7   ar
    30     7     3   ar
    31     3     1   ar
    32    21    22   ar
    33    22    23   ar
    34    23    24   ar
    35    24    25   ar
    36    25    26   ar
    37    26    21   ar
