@<TRIPOS>MOLECULE
No_2069-gen_results/8p0m/2024-11-26-14-13-15/
 18 19 0 0 0
SMALL
GASTEIGER

@<TRIPOS>ATOM
      1 C         -28.0162   -0.8135   28.8779 C.2     1  UNL1        0.1955
      2 C         -27.0636   -0.1189   28.6079 C.ar    1  UNL1        0.0389
      3 C         -27.0010    0.6913   27.4910 C.ar    1  UNL1        0.0031
      4 C         -25.8548    1.4825   27.0830 C.ar    1  UNL1        0.0040
      5 C         -24.9008    1.3894   27.5922 C.ar    1  UNL1        0.0714
      6 C         -24.6783    0.5764   28.8299 C.ar    1  UNL1        0.0040
      7 C         -25.7704   -0.2051   29.2800 C.ar    1  UNL1        0.0031
      8 C         -29.2813   -0.1474   29.2516 C.ar    1  UNL1        0.0390
      9 C         -29.7907    0.6699   28.5881 C.ar    1  UNL1        0.0032
     10 C         -31.0872    1.1458   28.8962 C.ar    1  UNL1        0.0001
     11 C         -31.7357    0.5855   29.9906 C.ar    1  UNL1        0.0000
     12 C         -30.1019   -0.7457   30.3501 C.ar    1  UNL1        0.0032
     13 C         -31.2414   -0.3412   30.6826 C.ar    1  UNL1        0.0001
     14 C         -23.5684    2.1354   27.2855 C.3     1  UNL1        0.4186
     15 F         -23.2575    3.0128   28.0194 F       1  UNL1       -0.1659
     16 F         -23.7600    2.8759   26.0519 F       1  UNL1       -0.1659
     17 F         -22.5235    1.3034   27.0126 F       1  UNL1       -0.1659
     18 O         -27.8078   -2.0274   29.3343 O.2     1  UNL1       -0.2866
@<TRIPOS>BOND
     1     1     2    1
     2     1     8    1
     3     5    14    1
     4    14    15    1
     5    14    16    1
     6    14    17    1
     7     1    18    2
     8     2     3   ar
     9     3     4   ar
    10     4     5   ar
    11     5     6   ar
    12     6     7   ar
    13     7     2   ar
    14     8     9   ar
    15     9    10   ar
    16    10    11   ar
    17    11    13   ar
    18    13    12   ar
    19    12     8   ar
