@<TRIPOS>MOLECULE
No_207-gen_results/8p0m/2024-11-26-14-13-15/
 19 19 0 0 0
SMALL
GASTEIGER

@<TRIPOS>ATOM
      1 C         -28.0162   -0.8135   28.8779 C.3     1  UNL1        0.1519
      2 C         -27.0636   -0.1190   28.6079 C.ar    1  UNL1        0.0020
      3 C         -26.9716    0.7139   27.5060 C.ar    1  UNL1       -0.0024
      4 C         -25.8205    1.4909   27.1160 C.ar    1  UNL1        0.0036
      5 C         -24.8579    1.3421   27.6008 C.ar    1  UNL1        0.0714
      6 C         -24.6224    0.5295   28.8144 C.ar    1  UNL1        0.0036
      7 C         -25.7344   -0.1811   29.1908 C.ar    1  UNL1       -0.0024
      8 N         -28.6149   -0.5622   30.1538 N.2     1  UNL1       -0.2641
      9 C         -23.5208    2.1265   27.2931 C.3     1  UNL1        0.4186
     10 F         -23.4121    2.4126   26.1656 F       1  UNL1       -0.1659
     11 F         -23.4062    3.2838   28.0440 F       1  UNL1       -0.1659
     12 F         -22.3437    1.4419   27.6630 F       1  UNL1       -0.1659
     13 C         -29.4789   -0.3368   30.6131 C.2     1  UNL1        0.0935
     14 C         -30.6133    0.0191   29.7806 C.2     1  UNL1        0.0202
     15 C         -30.5162    0.5865   28.7380 C.2     1  UNL1        0.0016
     16 C         -31.6289    0.9270   27.8480 C.2     1  UNL1        0.0000
     17 C         -31.4250    1.5595   26.6367 C.2     1  UNL1        0.0000
     18 C         -30.1141    1.9389   26.2668 C.2     1  UNL1        0.0000
     19 C         -29.1096    1.7405   27.0804 C.2     1  UNL1        0.0000
@<TRIPOS>BOND
     1     1     8    1
     2     5     9    1
     3     9    10    1
     4     9    11    1
     5     9    12    1
     6     8    13    2
     7    13    14    1
     8    14    15    2
     9    15    16    1
    10    16    17    2
    11    17    18    1
    12    18    19    2
    13     1     2    1
    14     2     3   ar
    15     3     4   ar
    16     4     5   ar
    17     5     6   ar
    18     6     7   ar
    19     7     2   ar
