@<TRIPOS>MOLECULE
No_2070-gen_results/8p0m/2024-11-26-14-13-15/
 18 19 0 0 0
SMALL
GASTEIGER

@<TRIPOS>ATOM
      1 C         -28.0162   -0.8135   28.8779 C.2     1  UNL1        0.2490
      2 C         -27.0636   -0.1189   28.6079 C.ar    1  UNL1        0.0536
      3 C         -27.0010    0.6913   27.4910 C.ar    1  UNL1        0.0045
      4 C         -25.8548    1.4825   27.0830 C.ar    1  UNL1        0.0040
      5 C         -24.6901    1.4526   27.8807 C.ar    1  UNL1        0.0714
      6 C         -24.7379    0.6010   29.0416 C.ar    1  UNL1        0.0040
      7 C         -25.8234   -0.1688   29.3887 C.ar    1  UNL1        0.0045
      8 N         -29.2150   -0.1726   29.0132 N.am    1  UNL1       -0.2761
      9 C         -29.7200    0.5474   28.3236 C.3     1  UNL1        0.0937
     10 C         -30.9742    1.0608   28.6662 C.3     1  UNL1        0.0216
     11 C         -30.0997   -0.6583   30.1305 C.3     1  UNL1        0.0937
     12 C         -31.2715   -0.1909   30.4043 C.3     1  UNL1        0.0216
     13 C         -31.7506    0.7487   29.6127 C.3     1  UNL1        0.0035
     14 C         -23.5007    2.1662   27.5526 C.3     1  UNL1        0.4186
     15 F         -23.7204    3.2555   27.0077 F       1  UNL1       -0.1659
     16 F         -22.6373    1.4576   26.7086 F       1  UNL1       -0.1659
     17 F         -22.7724    2.4410   28.6814 F       1  UNL1       -0.1659
     18 O         -27.7878   -1.8365   29.6138 O.2     1  UNL1       -0.2699
@<TRIPOS>BOND
     1     1     2    1
     2     1     8   am
     3     8     9    1
     4     8    11    1
     5    10    13    1
     6    12    13    1
     7     5    14    1
     8    14    15    1
     9    14    16    1
    10    14    17    1
    11     1    18    2
    12     9    10    1
    13    12    11    1
    14     2     3   ar
    15     3     4   ar
    16     4     5   ar
    17     5     6   ar
    18     6     7   ar
    19     7     2   ar
