@<TRIPOS>MOLECULE
No_2073-gen_results/8p0m/2024-11-26-14-13-15/
 27 30 0 0 0
SMALL
GASTEIGER

@<TRIPOS>ATOM
      1 C         -28.0162   -0.8135   28.8779 C.ar    1  UNL1        0.0030
      2 C         -28.4690   -0.7850   29.8287 C.ar    1  UNL1        0.0001
      3 C         -28.1816    0.4277   28.1134 C.ar    1  UNL1        0.0340
      4 C         -27.4498    0.6435   26.8500 C.ar    1  UNL1        0.1390
      5 C         -27.8596    1.4573   25.9076 C.ar    1  UNL1        0.0369
      6 C         -29.4263    0.1097   30.4178 C.ar    1  UNL1        0.0000
      7 C         -29.6233    1.2198   29.7351 C.ar    1  UNL1        0.0001
      8 C         -28.9609    1.4529   28.5513 C.ar    1  UNL1        0.0029
      9 C         -28.7869    2.5467   26.3167 C.ar    1  UNL1        0.0031
     10 C         -29.4265    2.4288   27.5639 C.ar    1  UNL1        0.0002
     11 O         -26.5515   -0.2951   26.4177 O.3     1  UNL1       -0.4706
     12 C         -25.1731    0.2028   26.5187 C.3     1  UNL1        0.2320
     13 C         -24.6781    0.8646   27.6287 C.ar    1  UNL1        0.0208
     14 C         -24.8653    0.5755   28.7201 C.ar    1  UNL1       -0.0050
     15 C         -24.2276    1.2675   29.8546 C.ar    1  UNL1       -0.0224
     16 C         -23.5836    1.8176   27.3341 C.ar    1  UNL1       -0.0007
     17 C         -24.7272    1.0550   31.2240 C.3     1  UNL1        0.0267
     18 C         -23.1454    2.0955   29.6563 C.ar    1  UNL1       -0.0043
     19 C         -22.8085    2.3778   28.3249 C.ar    1  UNL1       -0.0005
     20 C         -25.5483    2.0115   31.8257 C.3     1  UNL1        0.0307
     21 C         -26.0316    3.1437   31.2157 C.ar    1  UNL1       -0.0219
     22 C         -25.7783    3.4197   29.9025 C.ar    1  UNL1       -0.0043
     23 C         -26.4564    4.6640   29.3758 C.ar    1  UNL1       -0.0003
     24 C         -27.3111    5.3285   30.1930 C.ar    1  UNL1       -0.0000
     25 C         -27.5802    4.9827   31.4896 C.ar    1  UNL1       -0.0003
     26 C         -27.0032    3.9052   32.0281 C.ar    1  UNL1       -0.0043
     27 C         -24.3145   -0.1804   31.8249 C.3     1  UNL1        0.0050
@<TRIPOS>BOND
     1     4    11    1
     2    11    12    1
     3    12    13    1
     4    15    17    1
     5    17    20    1
     6    17    27    1
     7    20    21    1
     8    13    14   ar
     9    14    15   ar
    10    15    18   ar
    11    18    19   ar
    12    19    16   ar
    13    16    13   ar
    14     3     4   ar
    15     4     5   ar
    16     5     9   ar
    17     9    10   ar
    18    10     8   ar
    19     1     2   ar
    20     2     6   ar
    21     6     7   ar
    22     7     8   ar
    23     8     3   ar
    24     3     1   ar
    25    21    22   ar
    26    22    23   ar
    27    23    24   ar
    28    24    25   ar
    29    25    26   ar
    30    26    21   ar
