@<TRIPOS>MOLECULE
No_2075-gen_results/8p0m/2024-11-26-14-13-15/
 12 13 0 0 0
SMALL
GASTEIGER

@<TRIPOS>ATOM
      1 C         -28.0162   -0.8135   28.8779 C.ar    1  UNL1        0.0000
      2 C         -27.0636   -0.1189   28.6079 C.ar    1  UNL1        0.0000
      3 C         -26.9287    1.1713   29.0083 C.ar    1  UNL1        0.0000
      4 C         -27.9560    1.7411   29.7840 C.ar    1  UNL1        0.0000
      5 C         -29.0569   -0.3271   29.7466 C.ar    1  UNL1        0.0000
      6 C         -28.9828    0.9722   30.1516 C.ar    1  UNL1        0.0000
      7 C         -25.8815   -0.6260   27.7945 C.ar    1  UNL1        0.0000
      8 C         -25.4215    0.1302   26.7096 C.ar    1  UNL1        0.0000
      9 C         -24.6114   -0.9697   28.6213 C.ar    1  UNL1        0.0000
     10 C         -23.5089   -0.2074   28.7059 C.ar    1  UNL1        0.0000
     11 C         -23.1111    0.5934   27.5447 C.ar    1  UNL1        0.0000
     12 C         -24.2093    0.8812   26.6602 C.ar    1  UNL1        0.0000
@<TRIPOS>BOND
     1     2     7    1
     2     1     2   ar
     3     2     3   ar
     4     3     4   ar
     5     4     6   ar
     6     6     5   ar
     7     5     1   ar
     8     7     8   ar
     9     8    12   ar
    10    12    11   ar
    11    11    10   ar
    12    10     9   ar
    13     9     7   ar
