@<TRIPOS>MOLECULE
No_2076-gen_results/8p0m/2024-11-26-14-13-15/
 21 22 0 0 0
SMALL
GASTEIGER

@<TRIPOS>ATOM
      1 O         -28.1229   -1.3353   28.4874 O.2     1  UNL1       -0.2728
      2 C         -27.0637   -0.8242   28.8687 C.2     1  UNL1        0.2517
      3 C         -26.9592    0.0926   29.7582 C.3     1  UNL1        0.1772
      4 N         -25.8472   -1.5491   28.6589 N.am    1  UNL1       -0.2045
      5 C         -27.8673    0.9590   30.1109 C.2     1  UNL1        0.3254
      6 C         -24.6693   -1.1847   28.9782 C.3     1  UNL1        0.1243
      7 C         -24.4807   -0.0529   29.7207 C.3     1  UNL1        0.1025
      8 C         -25.5750    0.6619   30.1337 C.3     1  UNL1        0.0314
      9 O         -28.7202    1.3487   29.5057 O.2     1  UNL1       -0.2496
     10 O         -28.0742    1.0934   31.5544 O.3     1  UNL1       -0.4478
     11 C         -23.0751    0.3469   30.0767 C.2     1  UNL1        0.2620
     12 N         -22.9067    1.4902   30.5280 N.am    1  UNL1       -0.0877
     13 O         -22.0661   -0.3837   29.8668 O.2     1  UNL1       -0.2716
     14 C         -29.0737    1.6275   32.1062 C.3     1  UNL1        0.2131
     15 C         -29.1798    1.3647   33.4851 C.3     1  UNL1        0.0737
     16 C         -28.0688    0.8985   34.0922 C.ar    1  UNL1       -0.0184
     17 C         -27.3783    1.0171   34.8096 C.ar    1  UNL1       -0.0041
     18 C         -26.1690    0.2373   35.2426 C.ar    1  UNL1       -0.0003
     19 C         -25.7376   -0.7002   34.2861 C.ar    1  UNL1       -0.0000
     20 C         -26.4402   -0.8701   33.1364 C.ar    1  UNL1       -0.0003
     21 C         -27.5822   -0.1761   33.0309 C.ar    1  UNL1       -0.0041
@<TRIPOS>BOND
     1     1     2    2
     2     2     3    1
     3     2     4   am
     4     3     5    1
     5     6     7    1
     6     3     8    1
     7     5     9    2
     8     5    10    1
     9     7    11    1
    10    11    12   am
    11    11    13    2
    12    10    14    1
    13    14    15    1
    14    15    16    1
    15     8     7    1
    16     6     4    1
    17    16    17   ar
    18    17    18   ar
    19    18    19   ar
    20    19    20   ar
    21    20    21   ar
    22    21    16   ar
