@<TRIPOS>MOLECULE
No_2077-gen_results/8p0m/2024-11-26-14-13-15/
 10 11 0 0 0
SMALL
GASTEIGER

@<TRIPOS>ATOM
      1 C         -28.0162   -0.8135   28.8779 C.ar    1  UNL1        0.0000
      2 C         -28.4690   -0.7850   29.8287 C.ar    1  UNL1        0.0000
      3 C         -27.0871    0.2903   28.6377 C.ar    1  UNL1        0.0000
      4 C         -26.2516    0.4114   27.4222 C.ar    1  UNL1        0.0000
      5 C         -28.3141   -0.1267   30.7102 C.ar    1  UNL1        0.0000
      6 C         -27.4825    1.0076   30.8097 C.ar    1  UNL1        0.0000
      7 C         -26.7770    1.1718   29.6871 C.ar    1  UNL1        0.0000
      8 C         -25.7918    1.6548   27.0856 C.ar    1  UNL1        0.0000
      9 C         -25.5011    2.5971   28.1579 C.ar    1  UNL1        0.0000
     10 C         -26.1450    2.4451   29.3816 C.ar    1  UNL1        0.0000
@<TRIPOS>BOND
     1     1     2   ar
     2     2     5   ar
     3     5     6   ar
     4     6     7   ar
     5     3     1   ar
     6     3     4   ar
     7     4     8   ar
     8     8     9   ar
     9     9    10   ar
    10    10     7   ar
    11     7     3   ar
