@<TRIPOS>MOLECULE
No_2078-gen_results/8p0m/2024-11-26-14-13-15/
 10 10 0 0 0
SMALL
GASTEIGER

@<TRIPOS>ATOM
      1 C         -28.0162   -0.8135   28.8779 C.ar    1  UNL1       -0.0000
      2 C         -27.0636   -0.1190   28.6079 C.ar    1  UNL1       -0.0003
      3 C         -26.9287    1.1713   29.0083 C.ar    1  UNL1       -0.0043
      4 C         -25.7702    2.0341   28.6884 C.2     1  UNL1       -0.0261
      5 C         -24.7141    1.4431   27.9188 C.2     1  UNL1       -0.0300
      6 C         -23.5566    2.1673   27.5933 C.3     1  UNL1        0.0304
      7 C         -29.0912   -0.2748   29.7317 C.ar    1  UNL1       -0.0000
      8 C         -29.0503    0.9872   30.1426 C.ar    1  UNL1       -0.0000
      9 C         -27.9501    1.7660   29.8118 C.ar    1  UNL1       -0.0003
     10 C         -24.9503    2.6075   29.8002 C.3     1  UNL1        0.0307
@<TRIPOS>BOND
     1     3     4    1
     2     4     5    2
     3     5     6    1
     4     4    10    1
     5     1     2   ar
     6     2     3   ar
     7     3     9   ar
     8     9     8   ar
     9     8     7   ar
    10     7     1   ar
