@<TRIPOS>MOLECULE
No_2079-gen_results/8p0m/2024-11-26-14-13-15/
 17 18 0 0 0
SMALL
GASTEIGER

@<TRIPOS>ATOM
      1 C         -28.0162   -0.8135   28.8779 C.ar    1  UNL1        0.0045
      2 C         -27.0636   -0.1189   28.6079 C.ar    1  UNL1        0.0001
      3 C         -25.7647   -0.3897   29.0360 C.ar    1  UNL1        0.0000
      4 C         -25.5296   -1.5302   29.9014 C.ar    1  UNL1        0.0001
      5 C         -26.6888   -2.2893   30.1810 C.ar    1  UNL1        0.0045
      6 C         -27.8727   -1.9508   29.7373 C.ar    1  UNL1        0.0536
      7 C         -29.0016   -2.8142   30.1793 C.2     1  UNL1        0.2491
      8 N         -30.1410   -2.4192   30.1450 N.am    1  UNL1       -0.2726
      9 O         -28.7277   -4.0070   30.5931 O.2     1  UNL1       -0.2699
     10 C         -30.5717   -1.1120   29.8959 C.3     1  UNL1        0.1152
     11 C         -31.0577   -3.2790   31.0107 C.3     1  UNL1        0.1152
     12 C         -24.5335    0.3846   28.6487 C.ar    1  UNL1        0.0000
     13 C         -23.2943    0.1375   29.1892 C.ar    1  UNL1        0.0000
     14 C         -22.1620    0.8382   28.7257 C.ar    1  UNL1        0.0000
     15 C         -22.3087    1.7482   27.6141 C.ar    1  UNL1        0.0000
     16 C         -24.5348    1.2328   27.5133 C.ar    1  UNL1        0.0000
     17 C         -23.4659    1.9036   27.0558 C.ar    1  UNL1        0.0000
@<TRIPOS>BOND
     1     6     7    1
     2     7     8   am
     3     7     9    2
     4     8    10    1
     5     8    11    1
     6     3    12    1
     7    12    13   ar
     8    13    14   ar
     9    14    15   ar
    10    15    17   ar
    11    17    16   ar
    12    16    12   ar
    13     1     2   ar
    14     2     3   ar
    15     3     4   ar
    16     4     5   ar
    17     5     6   ar
    18     6     1   ar
