@<TRIPOS>MOLECULE
No_2080-gen_results/8p0m/2024-11-26-14-13-15/
 24 26 0 0 0
SMALL
GASTEIGER

@<TRIPOS>ATOM
      1 O         -28.1229   -1.3353   28.4874 O.2     1  UNL1       -0.2718
      2 C         -27.0637   -0.8242   28.8687 C.2     1  UNL1        0.2576
      3 C         -26.9592    0.0926   29.7582 C.3     1  UNL1        0.1552
      4 N         -25.8472   -1.5491   28.6589 N.am    1  UNL1       -0.2022
      5 N         -25.7558    0.6393   30.1761 N.3     1  UNL1       -0.1986
      6 C         -24.5860   -1.0916   29.0662 C.3     1  UNL1        0.1440
      7 CA        -24.5689    0.0233   29.8409 C.3     1  UNL1        0.1979
      8 C         -28.1653    0.8767   30.1547 C.3     1  UNL1        0.0516
      9 C         -28.6991    1.7519   29.2398 C.ar    1  UNL1       -0.0203
     10 C         -29.9320    1.9938   29.3069 C.ar    1  UNL1       -0.0042
     11 C         -30.5688    2.8087   28.2595 C.ar    1  UNL1       -0.0003
     12 C         -29.9939    3.0548   27.3243 C.ar    1  UNL1       -0.0000
     13 C         -27.9851    2.3776   28.1157 C.ar    1  UNL1       -0.0042
     14 C         -28.5705    3.0166   27.1543 C.ar    1  UNL1       -0.0003
     15 C         -23.2890    0.5427   30.3575 C.2     1  UNL1        0.3821
     16 O         -22.1946   -0.0463   30.0913 O.co2   1  UNL1       -0.2440
     17 OXT       -23.2771    1.6717   31.0426 O.co2   1  UNL1       -0.2440
     18 C         -28.5698    0.7339   31.4852 C.3     1  UNL1        0.0326
     19 C         -28.0373    0.1214   32.5282 C.ar    1  UNL1       -0.0218
     20 C         -26.8753   -0.0042   32.7034 C.ar    1  UNL1       -0.0043
     21 C         -26.1050    0.2792   33.8949 C.ar    1  UNL1       -0.0003
     22 C         -26.8426   -0.0282   35.0562 C.ar    1  UNL1       -0.0000
     23 C         -28.2769    0.0301   34.9783 C.ar    1  UNL1       -0.0003
     24 C         -28.9126    0.1350   33.7511 C.ar    1  UNL1       -0.0043
@<TRIPOS>BOND
     1     1     2    2
     2     2     3    1
     3     2     4   am
     4     4     6    1
     5     5     7    1
     6     6     7    1
     7     3     8    1
     8     8     9    1
     9     7    15    1
    10    15    16   ar
    11    15    17   ar
    12     8    18    1
    13    18    19    1
    14     3     5    1
    15    19    20   ar
    16    20    21   ar
    17    21    22   ar
    18    22    23   ar
    19    23    24   ar
    20    24    19   ar
    21     9    10   ar
    22    10    11   ar
    23    11    12   ar
    24    12    14   ar
    25    14    13   ar
    26    13     9   ar
