@<TRIPOS>MOLECULE
No_2081-gen_results/8p0m/2024-11-26-14-13-15/
 11 12 0 0 0
SMALL
GASTEIGER

@<TRIPOS>ATOM
      1 C         -28.0162   -0.8135   28.8779 C.ar    1  UNL1       -0.0161
      2 C         -28.4690   -0.7850   29.8287 C.3     1  UNL1        0.0733
      3 C         -26.5042   -0.7777   28.8766 C.ar    1  UNL1       -0.0020
      4 C         -25.8305   -1.6807   29.6849 C.2     1  UNL1        0.0203
      5 C         -28.1490   -1.8854   30.9031 C.2     1  UNL1        0.0772
      6 N         -27.4248   -2.6437   30.5774 N.2     1  UNL1       -0.2466
      7 C         -26.1542   -2.6322   30.3975 C.2     1  UNL1        0.0985
      8 C         -28.4563    0.3449   27.9621 C.ar    1  UNL1       -0.0039
      9 C         -27.7803    0.5273   26.7263 C.ar    1  UNL1       -0.0003
     10 C         -26.3405    0.2500   26.6743 C.ar    1  UNL1       -0.0000
     11 C         -25.7113   -0.4228   27.6640 C.ar    1  UNL1       -0.0003
@<TRIPOS>BOND
     1     1     2    1
     2     3     4    1
     3     2     5    1
     4     5     6    2
     5     4     7    2
     6     6     7    1
     7     1     3   ar
     8     3    11   ar
     9    11    10   ar
    10    10     9   ar
    11     9     8   ar
    12     8     1   ar
