@<TRIPOS>MOLECULE
No_2083-gen_results/8p0m/2024-11-26-14-13-15/
 16 16 0 0 0
SMALL
GASTEIGER

@<TRIPOS>ATOM
      1 C         -28.0162   -0.8135   28.8779 C.ar    1  UNL1        0.0045
      2 C         -28.4690   -0.7850   29.8287 C.ar    1  UNL1        0.0796
      3 C         -26.5455   -0.8762   28.8500 C.ar    1  UNL1        0.0059
      4 C         -25.8041   -1.0324   30.0571 C.ar    1  UNL1        0.1361
      5 C         -26.5373   -1.0386   31.2171 C.ar    1  UNL1        0.0295
      6 C         -27.8843   -0.9532   31.1862 C.ar    1  UNL1        0.0089
      7 F         -24.5255   -1.0850   30.0372 F       1  UNL1       -0.2045
      8 C         -30.0667   -0.7185   29.9317 C.2     1  UNL1        0.3877
      9 O         -30.7621   -1.5351   30.1867 O.co2   1  UNL1       -0.2406
     10 O         -30.5164    0.3679   29.1974 O.co2   1  UNL1       -0.2406
     11 C         -25.6821   -0.7911   27.6022 C.3     1  UNL1        0.0349
     12 C         -24.5191    0.0210   27.6918 C.3     1  UNL1        0.0522
     13 C         -23.8005   -0.3851   28.9647 C.2     1  UNL1        0.0900
     14 C         -22.3700   -0.1261   29.1728 C.1     1  UNL1        0.0280
     15 CL        -23.2946    0.2822   29.5572 Cl      1  UNL1       -0.0770
     16 N         -21.4252   -0.6803   29.5565 N.2     1  UNL1       -0.0948
@<TRIPOS>BOND
     1     4     7    1
     2     2     8    1
     3     8     9   ar
     4     8    10   ar
     5     3    11    1
     6    11    12    1
     7    12    13    1
     8    13    14    2
     9    13    15    1
    10    14    16    2
    11     1     2   ar
    12     2     6   ar
    13     6     5   ar
    14     5     4   ar
    15     4     3   ar
    16     3     1   ar
