@<TRIPOS>MOLECULE
No_2084-gen_results/8p0m/2024-11-26-14-13-15/
 15 16 0 0 0
SMALL
GASTEIGER

@<TRIPOS>ATOM
      1 C         -28.0162   -0.8135   28.8779 C.ar    1  UNL1       -0.0178
      2 C         -28.4690   -0.7850   29.8287 C.ar    1  UNL1       -0.0039
      3 C         -28.1816    0.4277   28.1134 C.3     1  UNL1        0.0523
      4 C         -27.4498    0.6435   26.8500 C.2     1  UNL1       -0.0217
      5 C         -26.4529    0.9939   26.6681 C.2     1  UNL1       -0.0218
      6 C         -25.1811    0.8624   26.8164 C.2     1  UNL1       -0.0088
      7 C         -24.2188    1.6769   26.2404 C.2     1  UNL1       -0.0261
      8 C         -28.2845   -2.0061   30.8379 C.ar    1  UNL1       -0.0003
      9 C         -27.4848   -3.0044   30.3225 C.ar    1  UNL1       -0.0000
     10 C         -26.6705   -2.8299   29.2831 C.ar    1  UNL1       -0.0003
     11 C         -26.8656   -1.6136   28.5481 C.ar    1  UNL1       -0.0039
     12 C         -23.5791    2.6321   26.1021 C.3     1  UNL1        0.0307
     13 C         -28.5368    0.6321   25.8429 C.2     1  UNL1       -0.0085
     14 C         -27.8569    1.0755   24.7077 C.2     1  UNL1       -0.0217
     15 C         -26.4969    1.3430   25.1170 C.3     1  UNL1        0.0520
@<TRIPOS>BOND
     1     3     4    1
     2     4     5    2
     3     5     6    1
     4     6     7    2
     5     7    12    1
     6     4    13    1
     7    13    14    2
     8     5    15    1
     9    14    15    1
    10     3     1    1
    11     1     2   ar
    12     2     8   ar
    13     8     9   ar
    14     9    10   ar
    15    10    11   ar
    16    11     1   ar
