@<TRIPOS>MOLECULE
No_2085-gen_results/8p0m/2024-11-26-14-13-15/
 13 13 0 0 0
SMALL
GASTEIGER

@<TRIPOS>ATOM
      1 CL        -28.1493   -0.8198   28.9079 Cl      1  UNL1       -0.0822
      2 C         -27.8339    0.4961   29.0598 C.ar    1  UNL1        0.0577
      3 C         -27.5135    1.2383   28.0485 C.ar    1  UNL1        0.0115
      4 C         -27.0548    2.6251   28.1330 C.ar    1  UNL1        0.0054
      5 C         -26.7073    3.0143   29.0058 C.ar    1  UNL1        0.0551
      6 C         -26.8144    2.3668   30.3191 C.ar    1  UNL1        0.0054
      7 C         -27.2778    1.0889   30.2510 C.ar    1  UNL1        0.0115
      8 C         -26.1683    4.5025   29.2423 C.2     1  UNL1        0.2651
      9 N         -25.6290    4.8801   30.2772 N.am    1  UNL1       -0.1968
     10 O         -26.1194    5.2521   28.1739 O.2     1  UNL1       -0.2684
     11 C         -25.0897    6.2945   30.4615 C.3     1  UNL1        0.1415
     12 C         -25.4847    7.1542   29.4569 C.2     1  UNL1       -0.0029
     13 C         -25.1360    8.5796   29.5640 C.2     1  UNL1       -0.0031
@<TRIPOS>BOND
     1     1     2    1
     2     5     8    1
     3     8     9   am
     4     8    10    2
     5     9    11    1
     6    11    12    1
     7    12    13    2
     8     2     3   ar
     9     3     4   ar
    10     4     5   ar
    11     5     6   ar
    12     6     7   ar
    13     7     2   ar
