@<TRIPOS>MOLECULE
No_2086-gen_results/8p0m/2024-11-26-14-13-15/
 30 33 0 0 0
SMALL
GASTEIGER

@<TRIPOS>ATOM
      1 O         -28.1229   -1.3353   28.4874 O.2     1  UNL1       -0.2726
      2 C         -27.4806   -0.4044   28.7094 C.2     1  UNL1        0.2511
      3 C         -27.1904    0.2460   29.5268 C.3     1  UNL1        0.1089
      4 N         -26.6871   -0.0001   27.4423 N.am    1  UNL1       -0.1604
      5 C         -26.3501    1.4331   29.7417 C.3     1  UNL1        0.0601
      6 C         -25.8648    1.0936   27.4148 C.ar    1  UNL1        0.1508
      7 C         -25.6589    1.8314   28.5720 C.ar    1  UNL1        0.0158
      8 C         -27.8532   -0.1055   30.9653 C.ar    1  UNL1       -0.0132
      9 C         -29.0578    0.7168   31.1953 C.ar    1  UNL1       -0.0038
     10 C         -29.7429    0.3242   32.1618 C.ar    1  UNL1       -0.0003
     11 C         -29.3862   -0.7932   33.0448 C.ar    1  UNL1       -0.0000
     12 C         -28.2625   -1.4883   32.7354 C.ar    1  UNL1       -0.0003
     13 C         -27.4879   -1.1871   31.6596 C.ar    1  UNL1       -0.0038
     14 N         -25.2147    1.4173   26.2973 N.ar    1  UNL1       -0.2276
     15 C         -24.2690    2.4294   26.2731 C.ar    1  UNL1        0.1004
     16 C         -24.1234    3.2374   27.4026 C.ar    1  UNL1        0.0205
     17 C         -24.7703    2.9586   28.5463 C.ar    1  UNL1        0.0005
     18 C         -26.1932    2.2112   31.0358 C.ar    1  UNL1       -0.0176
     19 C         -25.5868    2.0442   31.8699 C.ar    1  UNL1       -0.0042
     20 C         -25.5106    2.9399   33.0980 C.ar    1  UNL1       -0.0032
     21 C         -27.0289    3.4562   31.0237 C.ar    1  UNL1       -0.0042
     22 C         -27.0170    4.3622   31.9989 C.ar    1  UNL1       -0.0032
     23 C         -26.2039    4.0627   33.1120 C.ar    1  UNL1       -0.0048
     24 C         -26.1279    4.9821   34.2907 C.3     1  UNL1        0.1151
     25 N         -25.2965    5.7395   34.3181 N.3     1  UNL1       -0.2089
     26 C         -24.4199    5.9269   33.2957 C.3     1  UNL1        0.1397
     27 C         -24.4703    6.1401   32.2327 C.3     1  UNL1        0.0248
     28 C         -22.9236    6.2080   33.8889 C.3     1  UNL1        0.3341
     29 F         -22.0176    5.6494   33.2431 F       1  UNL1       -0.1969
     30 F         -22.6918    7.6090   33.8872 F       1  UNL1       -0.1969
@<TRIPOS>BOND
     1     1     2    2
     2     2     3    1
     3     2     4   am
     4     4     6    1
     5     5     7    1
     6     3     8    1
     7     5    18    1
     8    23    24    1
     9    24    25    1
    10    25    26    1
    11    26    27    1
    12    26    28    1
    13    28    29    1
    14    28    30    1
    15     3     5    1
    16     8     9   ar
    17     9    10   ar
    18    10    11   ar
    19    11    12   ar
    20    12    13   ar
    21    13     8   ar
    22     6    14   ar
    23    14    15   ar
    24    15    16   ar
    25    16    17   ar
    26    17     7   ar
    27     7     6   ar
    28    18    19   ar
    29    19    20   ar
    30    20    23   ar
    31    23    22   ar
    32    22    21   ar
    33    21    18   ar
