@<TRIPOS>MOLECULE
No_2087-gen_results/8p0m/2024-11-26-14-13-15/
 31 33 0 0 0
SMALL
GASTEIGER

@<TRIPOS>ATOM
      1 C         -28.0162   -0.8135   28.8779 C.ar    1  UNL1        0.0375
      2 C         -28.4690   -0.7850   29.8287 C.ar    1  UNL1        0.1453
      3 C         -26.5455   -0.8762   28.8500 C.ar    1  UNL1        0.0031
      4 C         -25.8041   -1.0324   30.0571 C.ar    1  UNL1        0.0002
      5 C         -27.9437   -0.9869   31.2075 C.ar    1  UNL1        0.0375
      6 C         -26.5825   -1.0386   31.2231 C.ar    1  UNL1        0.0031
      7 O         -29.9186   -0.6439   29.7328 O.3     1  UNL1       -0.4535
      8 C         -30.7547   -1.3912   30.2938 C.ar    1  UNL1        0.1449
      9 C         -24.3650   -1.1102   30.0904 C.ar    1  UNL1       -0.0003
     10 C         -23.6074   -1.0297   29.0407 C.ar    1  UNL1       -0.0043
     11 C         -22.4274   -0.3379   29.0186 C.ar    1  UNL1       -0.0222
     12 C         -21.7572    0.0540   27.8652 C.3     1  UNL1        0.0264
     13 C         -20.5924    0.9598   28.2749 C.3     1  UNL1        0.0050
     14 C         -31.9888   -0.8606   30.3795 C.ar    1  UNL1        0.0413
     15 C         -33.0345   -1.6609   30.9619 C.ar    1  UNL1        0.0741
     16 C         -32.6819   -2.9705   31.3939 C.ar    1  UNL1        0.0001
     17 C         -30.5836   -2.7334   30.8167 C.ar    1  UNL1        0.0335
     18 C         -31.4901   -3.4667   31.3139 C.ar    1  UNL1       -0.0148
     19 C         -23.6939   -1.3295   31.4111 C.ar    1  UNL1       -0.0000
     20 C         -22.3753   -0.7213   31.4842 C.ar    1  UNL1       -0.0003
     21 C         -21.7384   -0.2013   30.3197 C.ar    1  UNL1       -0.0043
     22 C         -34.4129   -1.1337   31.0692 C.3     1  UNL1        0.4187
     23 F         -34.5302    0.0490   31.2666 F       1  UNL1       -0.1659
     24 F         -35.0231   -1.8348   32.0964 F       1  UNL1       -0.1659
     25 F         -35.0071   -1.4926   29.8610 F       1  UNL1       -0.1659
     26 C         -31.1561   -4.8031   31.8290 C.3     1  UNL1        0.0522
     27 C         -30.3212   -4.8478   32.8703 C.2     1  UNL1       -0.0204
     28 C         -29.4176   -3.9275   32.9618 C.2     1  UNL1        0.0406
     29 C         -29.6469   -2.7994   33.5027 C.3     1  UNL1        0.3406
     30 F         -28.5817   -2.0123   33.7513 F       1  UNL1       -0.1933
     31 F         -30.7338   -2.2490   33.7208 F       1  UNL1       -0.1933
@<TRIPOS>BOND
     1     2     7    1
     2     7     8    1
     3     4     9    1
     4    11    12    1
     5    12    13    1
     6    15    22    1
     7    22    23    1
     8    22    24    1
     9    22    25    1
    10    18    26    1
    11    26    27    1
    12    27    28    2
    13    28    29    1
    14    29    30    1
    15    29    31    1
    16     8    14   ar
    17    14    15   ar
    18    15    16   ar
    19    16    18   ar
    20    18    17   ar
    21    17     8   ar
    22     1     2   ar
    23     2     5   ar
    24     5     6   ar
    25     6     4   ar
    26     4     3   ar
    27     3     1   ar
    28     9    10   ar
    29    10    11   ar
    30    11    21   ar
    31    21    20   ar
    32    20    19   ar
    33    19     9   ar
