@<TRIPOS>MOLECULE
No_2088-gen_results/8p0m/2024-11-26-14-13-15/
 11 11 0 0 0
SMALL
GASTEIGER

@<TRIPOS>ATOM
      1 C         -28.0162   -0.8135   28.8779 C.ar    1  UNL1       -0.0003
      2 C         -27.0636   -0.1190   28.6079 C.ar    1  UNL1       -0.0040
      3 C         -25.7647   -0.3897   29.0360 C.ar    1  UNL1       -0.0184
      4 C         -25.5296   -1.5302   29.9014 C.ar    1  UNL1       -0.0040
      5 C         -26.6888   -2.2893   30.1810 C.ar    1  UNL1       -0.0003
      6 C         -27.8727   -1.9508   29.7373 C.ar    1  UNL1       -0.0000
      7 C         -24.5491    0.4100   28.7341 C.3     1  UNL1        0.0439
      8 C         -24.4789    1.1871   27.6843 C.2     1  UNL1       -0.0266
      9 C         -23.2830    1.8356   27.3522 C.2     1  UNL1       -0.0300
     10 C         -23.1449    2.7223   26.2683 C.3     1  UNL1        0.0304
     11 C         -23.3294    0.2493   29.5438 C.3     1  UNL1        0.0094
@<TRIPOS>BOND
     1     3     7    1
     2     7     8    1
     3     8     9    2
     4     9    10    1
     5     7    11    1
     6     1     2   ar
     7     2     3   ar
     8     3     4   ar
     9     4     5   ar
    10     5     6   ar
    11     6     1   ar
