@<TRIPOS>MOLECULE
No_2089-gen_results/8p0m/2024-11-26-14-13-15/
 11 11 0 0 0
SMALL
GASTEIGER

@<TRIPOS>ATOM
      1 C         -28.0162   -0.8135   28.8779 C.ar    1  UNL1        0.0045
      2 C         -28.4690   -0.7850   29.8287 C.ar    1  UNL1        0.0536
      3 C         -26.5455   -0.8762   28.8500 C.ar    1  UNL1        0.0001
      4 C         -25.8974   -0.8267   29.8894 C.ar    1  UNL1        0.0000
      5 C         -27.9129   -0.8385   31.1942 C.ar    1  UNL1        0.0045
      6 C         -26.5519   -0.8324   31.1775 C.ar    1  UNL1        0.0001
      7 C         -30.0544   -0.7253   29.7401 C.2     1  UNL1        0.2491
      8 O         -30.4794   -0.3145   28.7967 O.2     1  UNL1       -0.2699
      9 N         -30.8093   -1.2221   30.8223 N.am    1  UNL1       -0.2726
     10 C         -30.4020   -1.7678   32.0164 C.3     1  UNL1        0.1152
     11 C         -32.2705   -1.1227   30.5988 C.3     1  UNL1        0.1152
@<TRIPOS>BOND
     1     2     7    1
     2     7     8    2
     3     7     9   am
     4     9    10    1
     5     9    11    1
     6     1     2   ar
     7     2     5   ar
     8     5     6   ar
     9     6     4   ar
    10     4     3   ar
    11     3     1   ar
