@<TRIPOS>MOLECULE
No_209-gen_results/8p0m/2024-11-26-14-13-15/
 30 33 0 0 0
SMALL
GASTEIGER

@<TRIPOS>ATOM
      1 C         -28.0162   -0.8135   28.8779 C.ar    1  UNL1        0.0006
      2 C         -28.4690   -0.7850   29.8287 C.ar    1  UNL1        0.0536
      3 C         -26.5042   -0.7777   28.8766 C.ar    1  UNL1       -0.0176
      4 C         -25.8103   -0.8531   30.1028 C.ar    1  UNL1       -0.0039
      5 C         -27.9906   -0.8916   31.2257 C.ar    1  UNL1        0.0045
      6 C         -26.6042   -0.8676   31.2652 C.ar    1  UNL1       -0.0002
      7 C         -30.0739   -0.8360   29.8615 C.2     1  UNL1        0.2530
      8 O         -30.6891   -1.6554   30.2229 O.2     1  UNL1       -0.2696
      9 N         -30.6139    0.2846   29.2227 N.am    1  UNL1       -0.2509
     10 C         -32.0200    0.3382   29.0215 C.3     1  UNL1        0.1250
     11 C         -29.8434    1.4263   28.7505 C.ar    1  UNL1        0.0544
     12 C         -30.0696    2.5922   29.5725 C.ar    1  UNL1        0.0146
     13 C         -29.3221    3.5645   29.2494 C.ar    1  UNL1       -0.0030
     14 C         -28.3501    3.6286   28.1794 C.ar    1  UNL1       -0.0218
     15 C         -28.2337    2.4801   27.4449 C.ar    1  UNL1       -0.0030
     16 C         -28.9437    1.3381   27.7818 C.ar    1  UNL1        0.0146
     17 C         -25.6587   -0.7042   27.6763 C.3     1  UNL1        0.0526
     18 C         -25.1522    0.6118   27.3420 C.ar    1  UNL1       -0.0178
     19 C         -24.9906    0.9843   26.0929 C.ar    1  UNL1       -0.0039
     20 C         -24.3285    2.2265   25.7748 C.ar    1  UNL1       -0.0003
     21 C         -23.8403    2.9847   26.8892 C.ar    1  UNL1       -0.0000
     22 C         -24.4633    1.5750   28.2175 C.ar    1  UNL1       -0.0039
     23 C         -23.9164    2.6853   28.0417 C.ar    1  UNL1       -0.0003
     24 C         -27.5540    4.8543   27.8774 C.3     1  UNL1        0.0310
     25 C         -32.5236    1.0881   28.3016 C.ar    1  UNL1       -0.0020
     26 C         -31.9823    1.9784   27.4321 C.ar    1  UNL1       -0.0026
     27 C         -32.7755    2.8362   26.4930 C.ar    1  UNL1       -0.0003
     28 C         -33.8441    2.5702   26.3852 C.ar    1  UNL1       -0.0000
     29 C         -34.6104    1.6154   27.1197 C.ar    1  UNL1       -0.0003
     30 C         -33.9671    0.8796   28.0678 C.ar    1  UNL1       -0.0026
@<TRIPOS>BOND
     1     2     7    1
     2     7     8    2
     3     7     9   am
     4     9    10    1
     5     9    11    1
     6     3    17    1
     7    17    18    1
     8    14    24    1
     9    10    25    1
    10    11    12   ar
    11    12    13   ar
    12    13    14   ar
    13    14    15   ar
    14    15    16   ar
    15    16    11   ar
    16    25    26   ar
    17    26    27   ar
    18    27    28   ar
    19    28    29   ar
    20    29    30   ar
    21    30    25   ar
    22    18    19   ar
    23    19    20   ar
    24    20    21   ar
    25    21    23   ar
    26    23    22   ar
    27    22    18   ar
    28     1     2   ar
    29     2     5   ar
    30     5     6   ar
    31     6     4   ar
    32     4     3   ar
    33     3     1   ar
