@<TRIPOS>MOLECULE
No_2090-gen_results/8p0m/2024-11-26-14-13-15/
 15 16 0 0 0
SMALL
GASTEIGER

@<TRIPOS>ATOM
      1 C         -28.0162   -0.8135   28.8779 C.2     1  UNL1        0.2723
      2 C         -27.0636   -0.1189   28.6079 C.2     1  UNL1        0.0310
      3 C         -26.9716    0.7139   27.5060 C.3     1  UNL1        0.1068
      4 C         -25.8205    1.4910   27.1160 C.3     1  UNL1        0.0411
      5 C         -24.6562    1.4242   27.9180 C.ar    1  UNL1       -0.0246
      6 C         -24.6847    0.5901   29.0659 C.ar    1  UNL1       -0.0218
      7 C         -25.8099   -0.1265   29.3338 C.3     1  UNL1        0.0538
      8 F         -27.8678   -1.9973   29.2855 F       1  UNL1       -0.1727
      9 F         -28.8029   -0.1899   29.8735 F       1  UNL1       -0.1727
     10 C         -23.4731    2.2179   27.6147 C.ar    1  UNL1       -0.0045
     11 C         -22.2200    1.4779   27.9614 C.ar    1  UNL1       -0.0003
     12 C         -22.0764    0.7142   29.0798 C.ar    1  UNL1       -0.0003
     13 C         -23.3790    0.1228   29.6685 C.ar    1  UNL1       -0.0043
     14 C         -25.8607    2.3764   25.9900 C.3     1  UNL1        0.0063
     15 CL        -28.2929    0.7388   26.3628 Cl      1  UNL1       -0.1100
@<TRIPOS>BOND
     1     1     2    2
     2     2     3    1
     3     3     4    1
     4     4     5    1
     5     2     7    1
     6     6     7    1
     7     1     8    1
     8     1     9    1
     9     4    14    1
    10     3    15    1
    11     5     6   ar
    12     6    13   ar
    13    13    12   ar
    14    12    11   ar
    15    11    10   ar
    16    10     5   ar
