@<TRIPOS>MOLECULE
No_2092-gen_results/8p0m/2024-11-26-14-13-15/
 28 30 0 0 0
SMALL
GASTEIGER

@<TRIPOS>ATOM
      1 C         -28.0162   -0.8135   28.8779 C.ar    1  UNL1       -0.0023
      2 C         -28.4690   -0.7850   29.8287 C.ar    1  UNL1        0.0207
      3 C         -28.1960    0.3478   28.0550 C.ar    1  UNL1       -0.0177
      4 C         -29.0191    1.3501   28.3782 C.ar    1  UNL1       -0.0039
      5 C         -29.4107    0.1803   30.3782 C.ar    1  UNL1        0.0016
      6 C         -29.6059    1.2495   29.6193 C.ar    1  UNL1       -0.0003
      7 C         -27.4597    0.3802   26.7091 C.3     1  UNL1        0.0526
      8 C         -26.4659    1.4084   26.5648 C.ar    1  UNL1       -0.0181
      9 C         -25.2424    1.0667   26.0698 C.ar    1  UNL1       -0.0082
     10 C         -24.1853    2.0319   25.9760 C.ar    1  UNL1       -0.0225
     11 C         -22.8301    1.7319   25.8384 C.3     1  UNL1        0.0264
     12 C         -24.6478    3.4005   26.3994 C.ar    1  UNL1       -0.0043
     13 C         -25.8894    3.7154   26.8183 C.ar    1  UNL1       -0.0006
     14 C         -26.8212    2.7035   26.9436 C.ar    1  UNL1       -0.0040
     15 C         -21.8084    2.3592   26.6304 C.3     1  UNL1        0.0050
     16 C         -20.7707    1.4477   27.0761 C.3     1  UNL1        0.0050
     17 C         -21.0628    0.2199   27.6184 C.3     1  UNL1        0.0264
     18 C         -22.2370    0.1253   28.5550 C.ar    1  UNL1       -0.0220
     19 C         -22.6288   -1.0830   29.0917 C.ar    1  UNL1       -0.0043
     20 C         -23.8373   -1.1738   29.8521 C.ar    1  UNL1       -0.0001
     21 C         -24.4282   -0.2894   30.0576 C.ar    1  UNL1        0.0066
     22 C         -24.1695    1.1106   29.6837 C.ar    1  UNL1        0.0795
     23 C         -23.0066    1.2903   28.8855 C.ar    1  UNL1        0.0023
     24 C         -24.9956    2.2755   30.0401 C.2     1  UNL1        0.3877
     25 O         -26.1467    2.0131   30.4599 O.co2   1  UNL1       -0.2406
     26 O         -24.4794    3.4081   30.3285 O.co2   1  UNL1       -0.2406
     27 C         -28.2837   -2.0202   30.8691 C.2     1  UNL1        0.1221
     28 N         -28.7267   -2.0653   31.9353 N.2     1  UNL1       -0.1464
@<TRIPOS>BOND
     1     3     7    1
     2     7     8    1
     3    11    15    1
     4    15    16    1
     5    16    17    1
     6    17    18    1
     7    22    24    1
     8    24    25   ar
     9    24    26   ar
    10     2    27    1
    11    27    28    2
    12    11    10    1
    13    18    19   ar
    14    19    20   ar
    15    20    21   ar
    16    21    22   ar
    17    22    23   ar
    18    23    18   ar
    19     8     9   ar
    20     9    10   ar
    21    10    12   ar
    22    12    13   ar
    23    13    14   ar
    24    14     8   ar
    25     1     2   ar
    26     2     5   ar
    27     5     6   ar
    28     6     4   ar
    29     4     3   ar
    30     3     1   ar
