@<TRIPOS>MOLECULE
No_2095-gen_results/8p0m/2024-11-26-14-13-15/
 12 12 0 0 0
SMALL
GASTEIGER

@<TRIPOS>ATOM
      1 C         -28.0162   -0.8135   28.8779 C.ar    1  UNL1        0.0458
      2 C         -28.4690   -0.7850   29.8287 C.ar    1  UNL1        0.0829
      3 C         -26.5042   -0.7777   28.8766 C.ar    1  UNL1        0.1662
      4 C         -25.8103   -0.8531   30.1028 C.ar    1  UNL1        0.1738
      5 C         -27.9906   -0.8916   31.2257 C.ar    1  UNL1        0.0091
      6 C         -26.6042   -0.8676   31.2652 C.ar    1  UNL1        0.0330
      7 F         -24.5534   -0.7870   30.1406 F       1  UNL1       -0.2010
      8 C         -30.0954   -0.8409   29.8497 C.2     1  UNL1        0.3879
      9 O         -30.7389   -1.6683   30.1743 O.co2   1  UNL1       -0.2406
     10 O         -30.6198    0.2351   29.2975 O.co2   1  UNL1       -0.2406
     11 O         -25.7354   -0.7330   27.7588 O.3     1  UNL1       -0.4692
     12 C         -24.5794   -0.0562   27.8610 C.3     1  UNL1        0.2526
@<TRIPOS>BOND
     1     4     7    1
     2     2     8    1
     3     8     9   ar
     4     8    10   ar
     5     3    11    1
     6    11    12    1
     7     1     2   ar
     8     2     5   ar
     9     5     6   ar
    10     6     4   ar
    11     4     3   ar
    12     3     1   ar
