@<TRIPOS>MOLECULE
No_2096-gen_results/8p0m/2024-11-26-14-13-15/
 9 9 0 0 0
SMALL
GASTEIGER

@<TRIPOS>ATOM
      1 C         -28.0162   -0.8135   28.8779 C.ar    1  UNL1        0.0000
      2 C         -28.4690   -0.7850   29.8287 C.ar    1  UNL1        0.0000
      3 C         -26.5455   -0.8762   28.8500 C.ar    1  UNL1        0.0015
      4 C         -25.8041   -1.0324   30.0571 C.ar    1  UNL1        0.0187
      5 C         -27.9437   -0.9869   31.2075 C.ar    1  UNL1        0.0000
      6 C         -24.4008   -1.0969   30.0965 C.2     1  UNL1        0.0932
      7 C         -26.5612   -1.0746   31.2270 C.ar    1  UNL1        0.0015
      8 N         -23.6885   -1.1224   29.1182 N.2     1  UNL1       -0.2668
      9 C         -22.2950   -1.0142   29.2555 C.3     1  UNL1        0.1517
@<TRIPOS>BOND
     1     4     6    1
     2     6     8    2
     3     8     9    1
     4     1     2   ar
     5     2     5   ar
     6     5     7   ar
     7     7     4   ar
     8     4     3   ar
     9     3     1   ar
