@<TRIPOS>MOLECULE
No_2098-gen_results/8p0m/2024-11-26-14-13-15/
 30 32 0 0 0
SMALL
GASTEIGER

@<TRIPOS>ATOM
      1 C         -28.0162   -0.8135   28.8779 C.ar    1  UNL1        0.0068
      2 C         -28.4690   -0.7850   29.8287 C.ar    1  UNL1        0.0573
      3 C         -26.5042   -0.7777   28.8766 C.ar    1  UNL1       -0.0246
      4 C         -25.8103   -0.8531   30.1028 C.ar    1  UNL1       -0.0215
      5 C         -27.9906   -0.8916   31.2257 C.ar    1  UNL1        0.0111
      6 C         -26.6042   -0.8676   31.2652 C.ar    1  UNL1       -0.0034
      7 CL        -30.2937   -0.8377   29.8355 Cl      1  UNL1       -0.0823
      8 C         -24.3700   -0.8208   30.1393 C.3     1  UNL1        0.0587
      9 C         -23.7914    0.5375   30.1250 C.2     1  UNL1        0.0580
     10 C         -24.1925    1.5531   30.5907 C.2     1  UNL1       -0.0188
     11 C         -24.5541    2.6008   30.4140 C.3     1  UNL1        0.0522
     12 C         -25.8097    3.5115   30.3222 C.ar    1  UNL1       -0.0178
     13 C         -25.7976    4.7999   30.0223 C.ar    1  UNL1       -0.0042
     14 C         -26.6222    5.5345   30.2763 C.ar    1  UNL1       -0.0034
     15 C         -27.9564    5.0618   30.6253 C.ar    1  UNL1       -0.0071
     16 C         -28.0778    3.6765   30.8524 C.ar    1  UNL1       -0.0034
     17 C         -26.9650    2.8694   30.8110 C.ar    1  UNL1       -0.0042
     18 C         -22.5780    0.5553   29.2116 C.2     1  UNL1        0.3839
     19 O         -22.4617    1.3799   28.3787 O.co2   1  UNL1       -0.2409
     20 O         -21.8735   -0.6062   29.1451 O.co2   1  UNL1       -0.2409
     21 C         -25.7293   -0.6522   27.6388 C.3     1  UNL1        0.0307
     22 C         -29.1859    5.9176   30.7819 C.3     1  UNL1        0.1064
     23 CL        -29.0899    7.3745   31.3628 Cl      1  UNL1       -0.1098
     24 C         -30.3864    5.3943   30.3081 C.3     1  UNL1        0.0470
     25 C         -31.0013    5.7471   29.4258 C.ar    1  UNL1       -0.0206
     26 C         -30.5929    6.8759   28.5669 C.ar    1  UNL1       -0.0042
     27 C         -31.4064    7.2130   27.3525 C.ar    1  UNL1       -0.0003
     28 C         -32.4774    6.3989   27.0367 C.ar    1  UNL1       -0.0000
     29 C         -32.8376    5.3314   27.7664 C.ar    1  UNL1       -0.0003
     30 C         -32.1457    5.0003   28.8679 C.ar    1  UNL1       -0.0042
@<TRIPOS>BOND
     1     2     7    1
     2     4     8    1
     3     8     9    1
     4     9    10    2
     5    10    11    1
     6     9    18    1
     7    18    19   ar
     8    18    20   ar
     9     3    21    1
    10    15    22    1
    11    22    23    1
    12    22    24    1
    13    24    25    1
    14    11    12    1
    15    12    13   ar
    16    13    14   ar
    17    14    15   ar
    18    15    16   ar
    19    16    17   ar
    20    17    12   ar
    21    25    26   ar
    22    26    27   ar
    23    27    28   ar
    24    28    29   ar
    25    29    30   ar
    26    30    25   ar
    27     1     2   ar
    28     2     5   ar
    29     5     6   ar
    30     6     4   ar
    31     4     3   ar
    32     3     1   ar
