@<TRIPOS>MOLECULE
No_2099-gen_results/8p0m/2024-11-26-14-13-15/
 12 12 0 0 0
SMALL
GASTEIGER

@<TRIPOS>ATOM
      1 C         -28.0162   -0.8135   28.8779 C.3     1  UNL1        0.1150
      2 C         -27.0636   -0.1189   28.6079 C.ar    1  UNL1       -0.0048
      3 C         -26.9716    0.7139   27.5060 C.ar    1  UNL1       -0.0026
      4 C         -25.8205    1.4909   27.1160 C.ar    1  UNL1        0.0077
      5 C         -24.6562    1.4242   27.9180 C.ar    1  UNL1        0.0975
      6 C         -24.6847    0.5901   29.0659 C.ar    1  UNL1        0.0077
      7 C         -25.8099   -0.1265   29.3338 C.ar    1  UNL1       -0.0026
      8 N         -29.1935   -0.1896   29.0164 N.3     1  UNL1       -0.2118
      9 C         -23.4634    2.1759   27.6079 C.2     1  UNL1        0.4766
     10 N         -22.2932    1.7705   28.1476 N.pl3   1  UNL1        0.2047
     11 N         -23.4454    3.0139   26.5671 N.pl3   1  UNL1        0.2047
     12 C         -30.2877   -0.7643   29.5856 C.3     1  UNL1        0.1079
@<TRIPOS>BOND
     1     1     8    1
     2     5     9    1
     3     9    10    2
     4     9    11    1
     5     8    12    1
     6     1     2    1
     7     2     3   ar
     8     3     4   ar
     9     4     5   ar
    10     5     6   ar
    11     6     7   ar
    12     7     2   ar
