@<TRIPOS>MOLECULE
No_21-gen_results/8p0m/2024-11-26-14-13-15/
 16 17 0 0 0
SMALL
GASTEIGER

@<TRIPOS>ATOM
      1 C         -28.0162   -0.8135   28.8779 C.ar    1  UNL1        0.0293
      2 C         -28.4690   -0.7850   29.8287 C.ar    1  UNL1        0.1401
      3 C         -26.5455   -0.8762   28.8500 C.ar    1  UNL1       -0.0020
      4 C         -25.8041   -1.0324   30.0571 C.ar    1  UNL1       -0.0217
      5 C         -27.9437   -0.9869   31.2075 C.ar    1  UNL1        0.0293
      6 C         -26.5825   -1.0386   31.2231 C.ar    1  UNL1       -0.0020
      7 C         -24.3810   -1.1082   30.0855 C.3     1  UNL1        0.0307
      8 C         -23.7054    0.0955   29.8440 C.3     1  UNL1        0.0267
      9 C         -23.3084    0.5206   28.6549 C.ar    1  UNL1       -0.0222
     10 C         -22.5967    1.6777   28.4108 C.ar    1  UNL1       -0.0043
     11 C         -22.2100    1.8997   27.0791 C.ar    1  UNL1       -0.0003
     12 C         -23.1693    1.7076   26.0249 C.ar    1  UNL1       -0.0000
     13 C         -24.1805    0.7238   26.3298 C.ar    1  UNL1       -0.0003
     14 C         -24.2870    0.1524   27.5986 C.ar    1  UNL1       -0.0043
     15 F         -29.9388   -0.7291   29.8524 F       1  UNL1       -0.2042
     16 C         -23.3279    0.8537   31.0604 C.3     1  UNL1        0.0050
@<TRIPOS>BOND
     1     4     7    1
     2     7     8    1
     3     8     9    1
     4     2    15    1
     5     8    16    1
     6     9    10   ar
     7    10    11   ar
     8    11    12   ar
     9    12    13   ar
    10    13    14   ar
    11    14     9   ar
    12     1     2   ar
    13     2     5   ar
    14     5     6   ar
    15     6     4   ar
    16     4     3   ar
    17     3     1   ar
