@<TRIPOS>MOLECULE
No_210-gen_results/8p0m/2024-11-26-14-13-15/
 21 21 0 0 0
SMALL
GASTEIGER

@<TRIPOS>ATOM
      1 C         -28.0162   -0.8135   28.8779 C.2     1  UNL1        0.2652
      2 C         -27.0636   -0.1189   28.6079 C.ar    1  UNL1        0.0551
      3 C         -25.7923   -0.4302   29.0761 C.ar    1  UNL1        0.0048
      4 C         -24.5456    0.3494   28.8225 C.ar    1  UNL1        0.0067
      5 C         -24.6586    1.4196   27.8878 C.ar    1  UNL1        0.0798
      6 C         -25.9471    1.6811   27.3792 C.ar    1  UNL1        0.0067
      7 C         -27.0439    0.9739   27.6871 C.ar    1  UNL1        0.0048
      8 N         -27.9736   -1.7264   29.9612 N.am    1  UNL1       -0.1915
      9 O         -29.2056   -0.3437   28.7182 O.2     1  UNL1       -0.2684
     10 CA        -29.0548   -2.5141   30.5112 C.3     1  UNL1        0.2023
     11 C         -23.4537    2.1668   27.6108 C.2     1  UNL1        0.3878
     12 O         -23.4808    3.1527   26.9330 O.co2   1  UNL1       -0.2406
     13 O         -22.1915    1.5503   27.7474 O.co2   1  UNL1       -0.2406
     14 C         -29.3134   -2.1069   31.7451 C.3     1  UNL1        0.0586
     15 C         -30.2117   -3.0769   32.4789 C.2     1  UNL1       -0.0322
     16 C         -30.3803   -4.2260   31.8926 C.2     1  UNL1       -0.0478
     17 C         -29.2424   -3.8732   30.3335 C.2     1  UNL1        0.3846
     18 O         -29.0890   -4.7339   29.5229 O.co2   1  UNL1       -0.2437
     19 OXT       -28.4077   -4.0421   31.2281 O.co2   1  UNL1       -0.2437
     20 C         -31.7739   -4.3177   31.3278 C.3     1  UNL1        0.0260
     21 C         -29.9290   -5.3784   32.4485 C.3     1  UNL1        0.0260
@<TRIPOS>BOND
     1     1     2    1
     2     1     8   am
     3     1     9    2
     4     8    10    1
     5     5    11    1
     6    11    12   ar
     7    11    13   ar
     8    10    14    1
     9    14    15    1
    10    15    16    2
    11    10    17    1
    12    17    18   ar
    13    17    19   ar
    14    16    20    1
    15    16    21    1
    16     2     3   ar
    17     3     4   ar
    18     4     5   ar
    19     5     6   ar
    20     6     7   ar
    21     7     2   ar
