@<TRIPOS>MOLECULE
No_2100-gen_results/8p0m/2024-11-26-14-13-15/
 16 17 0 0 0
SMALL
GASTEIGER

@<TRIPOS>ATOM
      1 O         -28.1229   -1.3353   28.4874 O.2     1  UNL1       -0.2726
      2 C         -27.4806   -0.4044   28.7094 C.2     1  UNL1        0.2500
      3 C         -26.3804   -0.0867   27.9394 C.3     1  UNL1        0.1135
      4 N         -27.6664    0.4468   29.8988 N.am    1  UNL1       -0.1789
      5 C         -25.1773   -0.4388   28.3946 C.ar    1  UNL1       -0.0130
      6 C         -23.9281   -0.2469   27.6677 C.ar    1  UNL1       -0.0038
      7 C         -22.6980   -0.4046   28.4363 C.ar    1  UNL1       -0.0003
      8 C         -22.7943   -1.0875   29.7065 C.ar    1  UNL1       -0.0000
      9 C         -23.9663   -1.4068   30.3034 C.ar    1  UNL1       -0.0003
     10 C         -25.1322   -1.0549   29.7159 C.ar    1  UNL1       -0.0038
     11 C         -28.5898    0.7152   30.3606 C.ar    1  UNL1        0.0734
     12 C         -29.2761    1.5439   30.3942 C.ar    1  UNL1        0.0166
     13 C         -30.5494    1.8168   31.1500 C.ar    1  UNL1        0.0013
     14 C         -29.0847   -0.4523   31.3275 C.ar    1  UNL1        0.0166
     15 C         -30.2754   -0.3426   32.0749 C.ar    1  UNL1        0.0013
     16 C         -30.9601    0.8315   31.9946 C.ar    1  UNL1        0.0001
@<TRIPOS>BOND
     1     1     2    2
     2     2     3    1
     3     2     4   am
     4     4    11    1
     5     3     5    1
     6     5     6   ar
     7     6     7   ar
     8     7     8   ar
     9     8     9   ar
    10     9    10   ar
    11    10     5   ar
    12    11    12   ar
    13    12    13   ar
    14    13    16   ar
    15    16    15   ar
    16    15    14   ar
    17    14    11   ar
