@<TRIPOS>MOLECULE
No_2101-gen_results/8p0m/2024-11-26-14-13-15/
 13 14 0 0 0
SMALL
GASTEIGER

@<TRIPOS>ATOM
      1 C         -28.0162   -0.8135   28.8779 C.ar    1  UNL1        0.0296
      2 C         -28.4690   -0.7850   29.8287 C.ar    1  UNL1        0.1401
      3 C         -26.5042   -0.7777   28.8766 C.ar    1  UNL1        0.0023
      4 C         -25.8103   -0.8531   30.1028 C.ar    1  UNL1        0.0001
      5 C         -27.9906   -0.8916   31.2257 C.ar    1  UNL1        0.0296
      6 C         -26.6042   -0.8676   31.2652 C.ar    1  UNL1        0.0023
      7 F         -29.9203   -0.8331   29.8239 F       1  UNL1       -0.2042
      8 C         -24.3796   -0.8022   30.1424 C.ar    1  UNL1        0.0000
      9 C         -23.6617   -1.3645   30.7155 C.ar    1  UNL1        0.0000
     10 C         -23.7471   -0.1693   28.9152 C.ar    1  UNL1        0.0000
     11 C         -22.3413   -0.0346   28.9173 C.ar    1  UNL1        0.0000
     12 C         -22.2181   -1.2751   30.9105 C.ar    1  UNL1        0.0000
     13 C         -21.6090   -0.6299   29.8390 C.ar    1  UNL1        0.0000
@<TRIPOS>BOND
     1     2     7    1
     2     4     8    1
     3     8     9   ar
     4     9    12   ar
     5    12    13   ar
     6    13    11   ar
     7    11    10   ar
     8    10     8   ar
     9     1     2   ar
    10     2     5   ar
    11     5     6   ar
    12     6     4   ar
    13     4     3   ar
    14     3     1   ar
