@<TRIPOS>MOLECULE
No_2102-gen_results/8p0m/2024-11-26-14-13-15/
 35 40 0 0 0
SMALL
GASTEIGER

@<TRIPOS>ATOM
      1 C         -28.0162   -0.8135   28.8779 C.ar    1  UNL1        0.0046
      2 C         -28.4690   -0.7850   29.8287 C.ar    1  UNL1       -0.0001
      3 C         -27.0871    0.2903   28.6377 C.ar    1  UNL1        0.0549
      4 C         -26.2516    0.4114   27.4223 C.ar    1  UNL1        0.1983
      5 C         -28.3913    0.1041   30.9805 C.ar    1  UNL1       -0.0025
      6 C         -27.5332    1.1666   30.7866 C.ar    1  UNL1       -0.0013
      7 C         -26.8281    1.2557   29.6454 C.ar    1  UNL1        0.0659
      8 C         -25.6444    1.6653   27.2216 C.ar    1  UNL1        0.0552
      9 C         -24.6323    1.7370   26.2648 C.ar    1  UNL1        0.0046
     10 C         -23.8428    2.9890   26.2421 C.ar    1  UNL1        0.0002
     11 C         -24.2582    4.0862   27.0216 C.ar    1  UNL1        0.0015
     12 C         -25.3587    3.9452   27.8294 C.ar    1  UNL1        0.0177
     13 C         -25.9857    2.7341   28.0164 C.ar    1  UNL1        0.0696
     14 N         -26.2763    2.4590   29.2807 N.ar    1  UNL1       -0.2778
     15 C         -26.1637    3.4825   30.3877 C.2     1  UNL1        0.2455
     16 C         -26.9822    3.5306   31.3791 C.3     1  UNL1        0.1121
     17 C         -27.3996    2.1610   31.8955 C.3     1  UNL1        0.0590
     18 O         -26.2536   -0.4880   26.5901 O.2     1  UNL1       -0.2865
     19 O         -25.4169    4.5054   30.1373 O.2     1  UNL1       -0.2712
     20 C         -27.4012    4.6864   32.1152 C.ar    1  UNL1        0.0145
     21 C         -28.3057    5.2918   31.8440 C.ar    1  UNL1        0.1366
     22 C         -28.6644    6.5319   32.4442 C.ar    1  UNL1        0.0293
     23 C         -27.8768    6.9897   33.4732 C.ar    1  UNL1        0.0023
     24 C         -26.4263    5.0488   33.1578 C.ar    1  UNL1       -0.0016
     25 C         -26.6959    6.2403   33.8816 C.ar    1  UNL1       -0.0002
     26 C         -28.0112    1.9725   33.2023 C.ar    1  UNL1       -0.0174
     27 C         -27.1756    1.4809   34.2060 C.ar    1  UNL1       -0.0039
     28 C         -29.3337    2.2403   33.4040 C.ar    1  UNL1        0.0007
     29 C         -29.8628    2.1243   34.7267 C.ar    1  UNL1        0.0564
     30 C         -27.6401    1.2982   35.5361 C.ar    1  UNL1       -0.0002
     31 C         -29.0038    1.6353   35.7777 C.ar    1  UNL1        0.0046
     32 F         -29.1903    5.0238   30.8829 F       1  UNL1       -0.2045
     33 C         -31.2449    2.4995   35.0382 C.2     1  UNL1        0.2842
     34 O         -32.1485    1.7824   34.8993 O.2     1  UNL1       -0.2667
     35 N         -31.4215    3.8491   35.4680 N.am    1  UNL1       -0.0837
@<TRIPOS>BOND
     1     3     4   ar
     2     4     8   ar
     3     7    14   ar
     4    13    14   ar
     5    14    15   am
     6    15    16    1
     7     6    17    1
     8     4    18    2
     9    15    19    2
    10    16    20    1
    11    17    26    1
    12    21    32    1
    13    29    33    1
    14    33    34    2
    15    33    35   am
    16    17    16    1
    17     1     2   ar
    18     2     5   ar
    19     5     6   ar
    20     6     7   ar
    21     7     3   ar
    22     3     1   ar
    23    20    21   ar
    24    21    22   ar
    25    22    23   ar
    26    23    25   ar
    27    25    24   ar
    28    24    20   ar
    29    26    27   ar
    30    27    30   ar
    31    30    31   ar
    32    31    29   ar
    33    29    28   ar
    34    28    26   ar
    35     8     9   ar
    36     9    10   ar
    37    10    11   ar
    38    11    12   ar
    39    12    13   ar
    40    13     8   ar
