@<TRIPOS>MOLECULE
No_2103-gen_results/8p0m/2024-11-26-14-13-15/
 11 11 0 0 0
SMALL
GASTEIGER

@<TRIPOS>ATOM
      1 C         -28.0162   -0.8135   28.8779 C.ar    1  UNL1        0.0296
      2 C         -28.4690   -0.7850   29.8287 C.ar    1  UNL1        0.1401
      3 C         -26.5455   -0.8762   28.8500 C.ar    1  UNL1        0.0062
      4 C         -25.8041   -1.0324   30.0571 C.ar    1  UNL1        0.0716
      5 C         -27.9437   -0.9869   31.2075 C.ar    1  UNL1        0.0296
      6 C         -26.5825   -1.0386   31.2231 C.ar    1  UNL1        0.0062
      7 F         -29.9086   -0.7397   29.8642 F       1  UNL1       -0.2042
      8 C         -24.3767   -1.0979   30.0689 C.3     1  UNL1        0.4186
      9 F         -23.8665    0.0247   30.5468 F       1  UNL1       -0.1659
     10 F         -23.7831   -1.2279   28.8541 F       1  UNL1       -0.1659
     11 F         -23.8853   -2.0919   30.8861 F       1  UNL1       -0.1659
@<TRIPOS>BOND
     1     2     7    1
     2     4     8    1
     3     8     9    1
     4     8    10    1
     5     8    11    1
     6     1     2   ar
     7     2     5   ar
     8     5     6   ar
     9     6     4   ar
    10     4     3   ar
    11     3     1   ar
