@<TRIPOS>MOLECULE
No_2104-gen_results/8p0m/2024-11-26-14-13-15/
 12 12 0 0 0
SMALL
GASTEIGER

@<TRIPOS>ATOM
      1 O         -28.1229   -1.3353   28.4874 O.2     1  UNL1       -0.2733
      2 C         -27.0637   -0.8242   28.8687 C.2     1  UNL1        0.2416
      3 N         -26.8938   -0.2656   29.6815 N.am    1  UNL1       -0.2021
      4 C         -25.7432   -1.2103   28.0363 C.3     1  UNL1        0.0901
      5 C         -24.4803   -0.7282   28.5465 C.3     1  UNL1        0.0511
      6 C         -24.4901    0.0865   29.6488 C.3     1  UNL1        0.1989
      7 C         -25.7163    0.3234   30.3074 C.3     1  UNL1        0.1546
      8 P         -23.0095    0.7455   30.2417 P.3     1  UNL1        0.1482
      9 O         -22.3870    1.5713   29.4108 O.3     1  UNL1       -0.3554
     10 O         -23.5034    1.5529   31.5018 O.3     1  UNL1       -0.3554
     11 O         -22.2591   -0.4394   30.7305 O.2     1  UNL1       -0.4575
     12 F         -24.6664    0.9618   29.0228 F       1  UNL1       -0.2308
@<TRIPOS>BOND
     1     1     2    2
     2     2     3   am
     3     2     4    1
     4     5     6    1
     5     6     7    1
     6     6     8    1
     7     8     9    1
     8     8    10    1
     9     8    11    2
    10     6    12    1
    11     3     7    1
    12     5     4    1
