@<TRIPOS>MOLECULE
No_2105-gen_results/8p0m/2024-11-26-14-13-15/
 10 10 0 0 0
SMALL
GASTEIGER

@<TRIPOS>ATOM
      1 C         -28.0162   -0.8135   28.8779 C.3     1  UNL1        0.0044
      2 C         -27.0636   -0.1189   28.6079 C.3     1  UNL1        0.0220
      3 C         -25.7923   -0.4302   29.0761 C.2     1  UNL1       -0.0443
      4 C         -24.6321    0.3096   28.7290 C.2     1  UNL1       -0.0088
      5 C         -27.8949   -1.8615   29.8946 C.3     1  UNL1        0.0007
      6 C         -26.6706   -2.2977   30.3374 C.3     1  UNL1        0.0044
      7 C         -25.5508   -1.5631   29.9406 C.3     1  UNL1        0.0220
      8 C         -24.5880    1.2414   27.7555 C.2     1  UNL1       -0.0052
      9 C         -23.3904    1.8726   27.3877 C.2     1  UNL1       -0.0258
     10 C         -22.2003    1.5878   27.9716 C.3     1  UNL1        0.0307
@<TRIPOS>BOND
     1     1     2    1
     2     2     3    1
     3     3     4    2
     4     1     5    1
     5     5     6    1
     6     3     7    1
     7     6     7    1
     8     4     8    1
     9     8     9    2
    10     9    10    1
