@<TRIPOS>MOLECULE
No_2107-gen_results/8p0m/2024-11-26-14-13-15/
 29 31 0 0 0
SMALL
GASTEIGER

@<TRIPOS>ATOM
      1 O         -28.1229   -1.3353   28.4874 O.2     1  UNL1       -0.2680
      2 C         -27.4806   -0.4044   28.7094 C.2     1  UNL1        0.2698
      3 C         -26.3804   -0.0867   27.9394 C.ar    1  UNL1        0.0559
      4 N         -27.4232    0.1749   30.0549 N.am    1  UNL1       -0.1639
      5 C         -26.1558    0.1159   26.9677 C.ar    1  UNL1        0.0046
      6 C         -24.8999    0.6041   26.2249 C.ar    1  UNL1        0.0007
      7 C         -23.8294    0.8007   27.0443 C.ar    1  UNL1        0.0067
      8 C         -23.9564    0.7540   28.2627 C.ar    1  UNL1        0.0347
      9 C         -25.0996    0.3398   28.9546 C.ar    1  UNL1        0.0113
     10 C         -28.5143    0.1774   30.7735 C.2     1  UNL1        0.1308
     11 BR        -22.4998    1.2565   29.4641 Br      1  UNL1       -0.0490
     12 C         -29.2142    1.1728   30.7639 C.2     1  UNL1        0.0283
     13 C         -28.7833    2.3750   30.1482 C.ar    1  UNL1        0.0037
     14 C         -28.8403    3.4572   30.6390 C.ar    1  UNL1        0.0002
     15 C         -28.1000    4.5723   30.0719 C.ar    1  UNL1        0.0015
     16 C         -27.3991    4.3999   28.8426 C.ar    1  UNL1        0.0191
     17 C         -27.3814    3.1424   28.3200 C.ar    1  UNL1        0.0813
     18 C         -27.9723    2.1350   28.9885 C.ar    1  UNL1        0.0192
     19 C         -29.0874    1.6666   27.9249 C.ar    1  UNL1        0.0206
     20 C         -29.0013    2.3857   26.6450 C.ar    1  UNL1        0.0813
     21 N         -27.9374    3.4264   26.9237 N.ar    1  UNL1       -0.2454
     22 C         -30.1890    3.1242   26.2380 C.2     1  UNL1        0.0191
     23 CL        -28.8098   -1.2431   31.7098 Cl      1  UNL1       -0.0641
     24 C         -30.7165    2.7436   25.0905 C.2     1  UNL1        0.0013
     25 C         -30.2101    1.6187   24.3721 C.2     1  UNL1       -0.0018
     26 C         -29.0986    0.9672   24.8464 C.2     1  UNL1        0.0084
     27 C         -28.5180    1.3516   26.0018 C.3     1  UNL1        0.1831
     28 F         -28.1025    0.4607   26.5987 F       1  UNL1       -0.2324
     29 C         -27.1166    1.9180   25.2800 C.3     1  UNL1        0.0431
@<TRIPOS>BOND
     1     1     2    2
     2     2     3    1
     3     2     4   am
     4     4    10    1
     5     8    11    1
     6    10    12    2
     7    12    13    1
     8    18    19   ar
     9    19    20   ar
    10    17    21   ar
    11    20    21   ar
    12    20    22    1
    13    10    23    1
    14    22    24    2
    15    24    25    1
    16    25    26    2
    17    26    27    1
    18    27    28    1
    19    27    29    1
    20    13    14   ar
    21    14    15   ar
    22    15    16   ar
    23    16    17   ar
    24    17    18   ar
    25    18    13   ar
    26     3     5   ar
    27     5     6   ar
    28     6     7   ar
    29     7     8   ar
    30     8     9   ar
    31     9     3   ar
