@<TRIPOS>MOLECULE
No_211-gen_results/8p0m/2024-11-26-14-13-15/
 18 19 0 0 0
SMALL
GASTEIGER

@<TRIPOS>ATOM
      1 C         -28.0162   -0.8135   28.8779 C.ar    1  UNL1        0.0046
      2 C         -28.4690   -0.7850   29.8287 C.ar    1  UNL1        0.0554
      3 C         -26.5042   -0.7777   28.8766 C.ar    1  UNL1        0.0001
      4 C         -25.8103   -0.8531   30.1028 C.ar    1  UNL1        0.0000
      5 C         -27.9906   -0.8916   31.2257 C.ar    1  UNL1        0.0046
      6 C         -26.6042   -0.8676   31.2652 C.ar    1  UNL1        0.0001
      7 C         -30.0739   -0.8360   29.8615 C.2     1  UNL1        0.2690
      8 O         -30.5608   -0.4417   28.9417 O.2     1  UNL1       -0.2680
      9 N         -30.7428   -1.0431   31.0560 N.am    1  UNL1       -0.1754
     10 C         -32.1782   -1.0348   31.0369 C.ar    1  UNL1        0.0737
     11 C         -32.7161   -1.5278   32.0196 C.ar    1  UNL1        0.0168
     12 C         -34.0379   -1.6002   32.2164 C.ar    1  UNL1        0.0079
     13 C         -34.8407   -1.0301   31.1335 C.ar    1  UNL1        0.0799
     14 C         -34.2208   -0.5063   30.0470 C.ar    1  UNL1        0.0079
     15 C         -32.8570   -0.4560   29.9727 C.ar    1  UNL1        0.0168
     16 C         -36.3090   -1.0518   31.2200 C.2     1  UNL1        0.3878
     17 O         -37.0829   -1.1613   30.5093 O.co2   1  UNL1       -0.2406
     18 O         -36.7358   -0.9179   32.5540 O.co2   1  UNL1       -0.2406
@<TRIPOS>BOND
     1     2     7    1
     2     7     8    2
     3     7     9   am
     4     9    10    1
     5    13    16    1
     6    16    17   ar
     7    16    18   ar
     8     1     2   ar
     9     2     5   ar
    10     5     6   ar
    11     6     4   ar
    12     4     3   ar
    13     3     1   ar
    14    10    11   ar
    15    11    12   ar
    16    12    13   ar
    17    13    14   ar
    18    14    15   ar
    19    15    10   ar
