@<TRIPOS>MOLECULE
No_2110-gen_results/8p0m/2024-11-26-14-13-15/
 13 13 0 0 0
SMALL
GASTEIGER

@<TRIPOS>ATOM
      1 C         -28.0162   -0.8135   28.8779 C.ar    1  UNL1        0.0104
      2 C         -27.0636   -0.1189   28.6079 C.ar    1  UNL1        0.0716
      3 C         -25.7923   -0.4302   29.0761 C.ar    1  UNL1        0.0039
      4 C         -25.5756   -1.5654   29.9363 C.ar    1  UNL1        0.0002
      5 C         -26.7354   -2.3004   30.2173 C.ar    1  UNL1        0.0066
      6 C         -27.9184   -1.9537   29.7629 C.ar    1  UNL1        0.0797
      7 C         -27.1057    1.1023   27.7593 C.3     1  UNL1        0.4186
      8 F         -26.3437    1.1720   26.9645 F       1  UNL1       -0.1659
      9 F         -27.0574    2.2431   28.5236 F       1  UNL1       -0.1659
     10 F         -28.4185    1.1780   27.2364 F       1  UNL1       -0.1659
     11 C         -29.0651   -2.7677   30.2051 C.2     1  UNL1        0.3877
     12 O         -28.9939   -3.9937   30.3002 O.co2   1  UNL1       -0.2406
     13 O         -30.0660   -2.2021   30.8296 O.co2   1  UNL1       -0.2406
@<TRIPOS>BOND
     1     2     7    1
     2     7     8    1
     3     7     9    1
     4     7    10    1
     5     6    11    1
     6    11    12   ar
     7    11    13   ar
     8     1     2   ar
     9     2     3   ar
    10     3     4   ar
    11     4     5   ar
    12     5     6   ar
    13     6     1   ar
