@<TRIPOS>MOLECULE
No_2111-gen_results/8p0m/2024-11-26-14-13-15/
 35 36 0 0 0
SMALL
GASTEIGER

@<TRIPOS>ATOM
      1 N         -28.0544   -1.0498   28.7246 N.am    1  UNL1       -0.1698
      2 C         -28.6544   -0.5669   29.5076 C.2     1  UNL1        0.3491
      3 C         -26.7777   -0.5807   28.6029 C.ar    1  UNL1        0.0736
      4 C         -25.7560   -1.0215   27.7024 C.ar    1  UNL1        0.0167
      5 C         -24.5818   -0.4731   27.6686 C.ar    1  UNL1        0.0056
      6 C         -24.1870    0.5888   28.5519 C.ar    1  UNL1        0.0512
      7 C         -22.8709    1.1612   28.4992 C.2     1  UNL1        0.2645
      8 C         -25.0808    1.1261   29.5364 C.ar    1  UNL1       -0.0164
      9 C         -26.3628    0.4713   29.5519 C.ar    1  UNL1        0.0125
     10 C         -30.1217   -1.1285   29.6365 C.2     1  UNL1        0.4422
     11 O         -28.6267    0.2208   30.5307 O.2     1  UNL1       -0.2607
     12 N         -21.7577    0.5935   28.8587 N.am    1  UNL1       -0.1998
     13 O         -22.7103    2.3307   27.8808 O.2     1  UNL1       -0.2684
     14 O         -30.9010   -0.6177   30.4786 O.co2   1  UNL1       -0.2353
     15 O         -30.5084   -2.0110   28.8686 O.co2   1  UNL1       -0.2353
     16 C         -21.7957   -0.7253   29.4965 C.3     1  UNL1        0.1388
     17 C         -24.7441    2.1384   30.4755 C.3     1  UNL1        0.0292
     18 C         -25.8075    2.6397   31.2957 C.3     1  UNL1        0.0381
     19 C         -25.5728    3.5661   32.2774 C.3     1  UNL1        0.1590
     20 C         -24.8270    4.6955   31.8246 C.3     1  UNL1        0.2346
     21 O         -25.5917    5.7762   31.6514 O.3     1  UNL1       -0.4728
     22 C         -25.2961    6.6638   30.7647 C.ar    1  UNL1        0.1387
     23 C         -25.8508    6.4303   29.4325 C.ar    1  UNL1        0.0369
     24 C         -25.1921    6.9466   28.3569 C.ar    1  UNL1        0.0031
     25 C         -25.5644    8.1221   31.0663 C.ar    1  UNL1        0.0369
     26 C         -24.9185    9.0360   30.0173 C.ar    1  UNL1        0.0031
     27 C         -25.3342    8.5777   28.5791 C.ar    1  UNL1        0.0002
     28 O         -26.7339    3.8712   33.0759 O.3     1  UNL1       -0.3524
     29 C         -27.0511    3.1555   34.0846 C.3     1  UNL1        0.1429
     30 C         -28.0158    2.2436   33.7441 C.3     1  UNL1        0.0408
     31 C         -29.3793    2.6213   33.8158 C.3     1  UNL1        0.0465
     32 C         -29.7454    3.6938   33.9731 C.2     1  UNL1       -0.0220
     33 C         -31.2046    4.0687   33.8873 C.2     1  UNL1       -0.0046
     34 C         -30.4069    1.5849   33.5445 C.2     1  UNL1       -0.0220
     35 C         -31.7251    1.8247   33.4275 C.2     1  UNL1       -0.0046
@<TRIPOS>BOND
     1     1     2   am
     2     6     7    1
     3     2    10    1
     4     2    11    2
     5     7    12   am
     6     7    13    2
     7    10    14   ar
     8    10    15   ar
     9    12    16    1
    10     8    17    1
    11    17    18    1
    12    18    19    1
    13    19    20    1
    14    20    21    1
    15    21    22    1
    16    19    28    1
    17    28    29    1
    18    29    30    1
    19    30    31    1
    20    31    32    1
    21    32    33    2
    22    31    34    1
    23    34    35    2
    24     1     3    1
    25     3     4   ar
    26     4     5   ar
    27     5     6   ar
    28     6     8   ar
    29     8     9   ar
    30     9     3   ar
    31    22    23   ar
    32    23    24   ar
    33    24    27   ar
    34    27    26   ar
    35    26    25   ar
    36    25    22   ar
