@<TRIPOS>MOLECULE
No_2112-gen_results/8p0m/2024-11-26-14-13-15/
 13 13 0 0 0
SMALL
GASTEIGER

@<TRIPOS>ATOM
      1 C         -28.0162   -0.8135   28.8779 C.3     1  UNL1        0.0006
      2 C         -28.4690   -0.7850   29.8287 C.3     1  UNL1        0.0085
      3 C         -26.5042   -0.7777   28.8766 C.3     1  UNL1        0.0040
      4 C         -25.8305   -1.6807   29.6849 C.3     1  UNL1        0.0189
      5 C         -28.1490   -1.8854   30.9031 C.3     1  UNL1        0.0955
      6 C         -28.9302   -2.0829   32.0356 C.3     1  UNL1        0.3975
      7 C         -26.5519   -1.6972   31.0407 C.3     1  UNL1        0.0125
      8 F         -28.9826   -3.3748   32.2983 F       1  UNL1       -0.1701
      9 F         -28.3637   -1.5509   33.1186 F       1  UNL1       -0.1701
     10 F         -30.1415   -1.5793   31.8655 F       1  UNL1       -0.1701
     11 C         -25.6258   -3.0422   29.0995 C.3     1  UNL1        0.0044
     12 C         -24.4281   -1.0366   30.0166 C.2     1  UNL1       -0.0268
     13 C         -23.4341   -1.3899   29.2576 C.2     1  UNL1       -0.0049
@<TRIPOS>BOND
     1     1     2    1
     2     1     3    1
     3     3     4    1
     4     2     5    1
     5     5     6    1
     6     4     7    1
     7     5     7    1
     8     6     8    1
     9     6     9    1
    10     6    10    1
    11     4    11    1
    12     4    12    1
    13    12    13    2
