@<TRIPOS>MOLECULE
No_2113-gen_results/8p0m/2024-11-26-14-13-15/
 21 22 0 0 0
SMALL
GASTEIGER

@<TRIPOS>ATOM
      1 C         -28.0162   -0.8135   28.8779 C.ar    1  UNL1       -0.0033
      2 C         -28.4690   -0.7850   29.8287 C.ar    1  UNL1       -0.0001
      3 C         -28.1960    0.3478   28.0550 C.ar    1  UNL1       -0.0042
      4 C         -29.0191    1.3501   28.3782 C.ar    1  UNL1        0.0033
      5 C         -29.6249    1.2683   29.6012 C.ar    1  UNL1        0.0795
      6 C         -29.3791    0.1470   30.3923 C.ar    1  UNL1        0.0066
      7 C         -27.5461    0.5105   26.6832 C.3     1  UNL1        0.1870
      8 C         -26.1247    0.4946   26.6987 C.2     1  UNL1        0.1876
      9 C         -25.3651    1.4415   27.2676 C.ar    1  UNL1        0.0356
     10 C         -25.6456    2.5782   27.4587 C.ar    1  UNL1        0.0029
     11 C         -25.3378    3.5100   27.9750 C.ar    1  UNL1        0.0001
     12 C         -23.9746    3.2946   28.6732 C.ar    1  UNL1        0.0000
     13 C         -23.4363    2.0143   28.5784 C.ar    1  UNL1        0.0001
     14 C         -24.1014    1.0183   27.8812 C.ar    1  UNL1        0.0029
     15 C         -28.2536    0.6455   25.5615 C.2     1  UNL1        0.3757
     16 O         -29.1932    1.3257   25.4650 O.co2   1  UNL1       -0.2448
     17 O         -27.8728   -0.0652   24.5566 O.co2   1  UNL1       -0.2448
     18 O         -25.5215   -0.1898   25.7338 O.2     1  UNL1       -0.2904
     19 C         -30.5606    2.3485   30.0856 C.2     1  UNL1        0.3877
     20 O         -30.5498    2.7556   31.1509 O.co2   1  UNL1       -0.2406
     21 O         -31.1275    2.9825   29.1091 O.co2   1  UNL1       -0.2406
@<TRIPOS>BOND
     1     3     7    1
     2     7     8    1
     3     8     9    1
     4     7    15    1
     5    15    16   ar
     6    15    17   ar
     7     8    18    2
     8     5    19    1
     9    19    20   ar
    10    19    21   ar
    11     1     2   ar
    12     2     6   ar
    13     6     5   ar
    14     5     4   ar
    15     4     3   ar
    16     3     1   ar
    17     9    10   ar
    18    10    11   ar
    19    11    12   ar
    20    12    13   ar
    21    13    14   ar
    22    14     9   ar
