@<TRIPOS>MOLECULE
No_2114-gen_results/8p0m/2024-11-26-14-13-15/
 25 26 0 0 0
SMALL
GASTEIGER

@<TRIPOS>ATOM
      1 O         -28.1229   -1.3353   28.4874 O.2     1  UNL1       -0.2749
      2 C         -27.4806   -0.4044   28.7094 C.2     1  UNL1        0.2259
      3 C         -26.3804   -0.0867   27.9394 C.3     1  UNL1        0.0857
      4 N         -27.4232    0.1749   30.0549 N.am    1  UNL1       -0.2704
      5 C         -25.8482    1.0048   27.9942 C.3     1  UNL1        0.0148
      6 C         -25.8111    1.7414   29.2835 C.3     1  UNL1        0.0223
      7 C         -26.7479    1.3152   30.2318 C.3     1  UNL1        0.0938
      8 C         -28.3986   -0.2714   30.9950 C.3     1  UNL1        0.2145
      9 C         -29.4819    0.6799   31.1985 C.3     1  UNL1        0.4174
     10 F         -29.3415    1.8110   31.0200 F       1  UNL1       -0.1681
     11 F         -29.9449    0.4551   32.5044 F       1  UNL1       -0.1681
     12 F         -30.4052    0.2499   30.1765 F       1  UNL1       -0.1681
     13 C         -24.7955    1.5055   27.0085 C.3     1  UNL1        0.0229
     14 C         -23.5347    1.6635   27.3560 C.ar    1  UNL1       -0.0225
     15 C         -22.9947    1.4576   28.6642 C.ar    1  UNL1       -0.0043
     16 C         -21.5479    1.4266   28.7663 C.ar    1  UNL1       -0.0003
     17 C         -20.9051    0.8240   27.9038 C.ar    1  UNL1       -0.0000
     18 C         -21.1857    1.1676   26.6288 C.ar    1  UNL1       -0.0003
     19 C         -22.5466    1.3234   26.3091 C.ar    1  UNL1       -0.0043
     20 C         -25.3477    1.9096   25.7838 C.3     1  UNL1        0.0047
     21 C         -27.4582   -0.4054   32.2831 C.3     1  UNL1        0.2333
     22 O         -26.2195   -0.7808   32.1786 O.2     1  UNL1       -0.4776
     23 C         -25.2934   -0.1870   32.9718 C.2     1  UNL1        0.1166
     24 C         -23.9860   -0.5385   32.5650 C.2     1  UNL1        0.0351
     25 C         -25.6341    0.3998   34.1942 C.3     1  UNL1        0.0718
@<TRIPOS>BOND
     1     1     2    2
     2     2     3    1
     3     2     4   am
     4     3     5    1
     5     4     7    1
     6     6     7    1
     7     4     8    1
     8     8     9    1
     9     9    10    1
    10     9    11    1
    11     9    12    1
    12     5    13    1
    13    13    14    1
    14    13    20    1
    15     8    21    1
    16    21    22    1
    17    22    23    1
    18    23    24    2
    19    23    25    1
    20     5     6    1
    21    14    15   ar
    22    15    16   ar
    23    16    17   ar
    24    17    18   ar
    25    18    19   ar
    26    19    14   ar
