@<TRIPOS>MOLECULE
No_2115-gen_results/8p0m/2024-11-26-14-13-15/
 14 15 0 0 0
SMALL
GASTEIGER

@<TRIPOS>ATOM
      1 C         -28.0162   -0.8135   28.8779 C.ar    1  UNL1       -0.0003
      2 C         -28.4690   -0.7850   29.8287 C.ar    1  UNL1       -0.0000
      3 C         -26.5042   -0.7777   28.8766 C.ar    1  UNL1       -0.0040
      4 C         -25.9150   -0.6580   29.9230 C.ar    1  UNL1       -0.0184
      5 C         -27.9691   -0.7243   31.2047 C.ar    1  UNL1       -0.0003
      6 C         -26.5847   -0.6393   31.2062 C.ar    1  UNL1       -0.0040
      7 C         -24.4026   -0.5847   30.0419 C.3     1  UNL1        0.0446
      8 C         -23.7439   -1.3708   30.5510 C.3     1  UNL1        0.0094
      9 C         -23.7804    0.5803   29.3840 C.ar    1  UNL1       -0.0184
     10 C         -24.4044    1.6915   28.8492 C.ar    1  UNL1       -0.0040
     11 C         -24.3738    2.0976   27.6736 C.ar    1  UNL1       -0.0003
     12 C         -23.1551    1.6640   26.9248 C.ar    1  UNL1       -0.0000
     13 C         -22.3031    0.8075   27.5092 C.ar    1  UNL1       -0.0003
     14 C         -22.5556    0.1406   28.6921 C.ar    1  UNL1       -0.0040
@<TRIPOS>BOND
     1     4     7    1
     2     7     8    1
     3     7     9    1
     4     9    10   ar
     5    10    11   ar
     6    11    12   ar
     7    12    13   ar
     8    13    14   ar
     9    14     9   ar
    10     1     2   ar
    11     2     5   ar
    12     5     6   ar
    13     6     4   ar
    14     4     3   ar
    15     3     1   ar
