@<TRIPOS>MOLECULE
No_2117-gen_results/8p0m/2024-11-26-14-13-15/
 13 14 0 0 0
SMALL
GASTEIGER

@<TRIPOS>ATOM
      1 C         -28.0162   -0.8135   28.8779 C.ar    1  UNL1        0.0000
      2 C         -27.0636   -0.1190   28.6079 C.ar    1  UNL1        0.0000
      3 C         -26.8756    1.1325   28.9134 C.ar    1  UNL1        0.0002
      4 C         -25.6883    1.9515   28.5672 C.ar    1  UNL1        0.0066
      5 C         -24.6394    1.2834   27.8753 C.ar    1  UNL1        0.0798
      6 C         -23.4556    1.9996   27.5653 C.2     1  UNL1        0.3878
      7 C         -25.8432   -0.7373   27.9210 C.ar    1  UNL1        0.0002
      8 C         -24.6903   -0.0521   27.5832 C.ar    1  UNL1        0.0066
      9 O         -22.3908    1.7594   27.5914 O.co2   1  UNL1       -0.2406
     10 O         -23.7359    3.2888   27.1098 O.co2   1  UNL1       -0.2406
     11 C         -29.2618   -0.1760   29.2653 C.ar    1  UNL1        0.0000
     12 C         -29.1782    1.1939   29.5172 C.ar    1  UNL1        0.0000
     13 C         -27.9911    1.8928   29.3703 C.ar    1  UNL1        0.0000
@<TRIPOS>BOND
     1     5     6    1
     2     6     9   ar
     3     6    10   ar
     4     3     4   ar
     5     4     5   ar
     6     5     8   ar
     7     8     7   ar
     8     7     2   ar
     9     1     2   ar
    10     2     3   ar
    11     3    13   ar
    12    13    12   ar
    13    12    11   ar
    14    11     1   ar
