@<TRIPOS>MOLECULE
No_2118-gen_results/8p0m/2024-11-26-14-13-15/
 21 24 0 0 0
SMALL
GASTEIGER

@<TRIPOS>ATOM
      1 C         -28.0162   -0.8135   28.8779 C.ar    1  UNL1        0.0066
      2 C         -27.0636   -0.1189   28.6079 C.ar    1  UNL1        0.0002
      3 C         -25.7923   -0.4302   29.0761 C.ar    1  UNL1        0.0000
      4 C         -24.5456    0.3494   28.8225 C.ar    1  UNL1        0.0000
      5 C         -24.6586    1.4196   27.8878 C.ar    1  UNL1        0.0000
      6 C         -25.9471    1.6811   27.3792 C.ar    1  UNL1        0.0000
      7 C         -27.1795    1.0029   27.7610 C.ar    1  UNL1        0.0000
      8 C         -28.0151   -1.6905   30.1149 C.ar    1  UNL1        0.0798
      9 C         -26.7106   -2.1310   30.5357 C.ar    1  UNL1        0.0066
     10 C         -25.5792   -1.4348   30.1142 C.ar    1  UNL1        0.0002
     11 C         -23.2155    0.0212   29.3039 C.ar    1  UNL1        0.0000
     12 C         -22.0933    0.4354   28.6192 C.ar    1  UNL1        0.0000
     13 C         -22.1979    1.5025   27.6844 C.ar    1  UNL1        0.0000
     14 C         -23.4834    2.0108   27.3047 C.ar    1  UNL1        0.0000
     15 C         -28.3993    1.3763   27.1283 C.ar    1  UNL1        0.0000
     16 C         -28.4090    2.0732   26.0433 C.ar    1  UNL1        0.0000
     17 C         -27.2504    2.9630   25.7241 C.ar    1  UNL1        0.0000
     18 C         -26.0454    2.7304   26.3509 C.ar    1  UNL1        0.0000
     19 C         -29.1655   -2.4746   30.4925 C.2     1  UNL1        0.3878
     20 O         -30.1814   -2.1088   30.5380 O.co2   1  UNL1       -0.2406
     21 O         -28.9100   -3.7241   30.9329 O.co2   1  UNL1       -0.2406
@<TRIPOS>BOND
     1     8    19    1
     2    19    20   ar
     3    19    21   ar
     4     5    14   ar
     5    14    13   ar
     6    13    12   ar
     7    12    11   ar
     8    11     4   ar
     9     3     4   ar
    10     4     5   ar
    11     5     6   ar
    12     7     2   ar
    13     1     2   ar
    14     2     3   ar
    15     3    10   ar
    16    10     9   ar
    17     9     8   ar
    18     8     1   ar
    19     6     7   ar
    20     7    15   ar
    21    15    16   ar
    22    16    17   ar
    23    17    18   ar
    24    18     6   ar
