@<TRIPOS>MOLECULE
No_2119-gen_results/8p0m/2024-11-26-14-13-15/
 15 17 0 0 0
SMALL
GASTEIGER

@<TRIPOS>ATOM
      1 C         -28.0162   -0.8135   28.8779 C.3     1  UNL1        0.0324
      2 C         -27.0636   -0.1189   28.6079 C.ar    1  UNL1       -0.0066
      3 C         -26.9716    0.7139   27.5060 C.ar    1  UNL1       -0.0030
      4 C         -25.8205    1.4909   27.1160 C.ar    1  UNL1       -0.0002
      5 C         -24.6562    1.4242   27.9180 C.ar    1  UNL1        0.0013
      6 C         -24.7114    0.5419   29.0507 C.ar    1  UNL1        0.0162
      7 C         -25.8042   -0.2058   29.3881 C.ar    1  UNL1        0.0665
      8 C         -28.6958   -0.4989   30.1325 C.3     1  UNL1        0.0324
      9 C         -28.5578    0.6415   30.6300 C.ar    1  UNL1       -0.0066
     10 C         -29.0340    1.2536   31.4975 C.ar    1  UNL1       -0.0030
     11 C         -28.7488    2.6375   32.0095 C.ar    1  UNL1       -0.0002
     12 C         -27.7302    3.3086   31.2739 C.ar    1  UNL1        0.0013
     13 C         -27.0548    2.6488   30.2889 C.ar    1  UNL1        0.0162
     14 C         -27.3631    1.4226   29.9957 C.ar    1  UNL1        0.0665
     15 N         -26.4590    0.9608   29.3231 N.pl3   1  UNL1       -0.2131
@<TRIPOS>BOND
     1     1     8    1
     2     7    15    1
     3    14    15    1
     4     1     2    1
     5     8     9    1
     6     2     3   ar
     7     3     4   ar
     8     4     5   ar
     9     5     6   ar
    10     6     7   ar
    11     7     2   ar
    12     9    10   ar
    13    10    11   ar
    14    11    12   ar
    15    12    13   ar
    16    13    14   ar
    17    14     9   ar
