@<TRIPOS>MOLECULE
No_2120-gen_results/8p0m/2024-11-26-14-13-15/
 20 20 0 0 0
SMALL
GASTEIGER

@<TRIPOS>ATOM
      1 C         -28.0162   -0.8135   28.8779 C.ar    1  UNL1        0.0103
      2 C         -28.4690   -0.7850   29.8287 C.ar    1  UNL1        0.0757
      3 C         -27.1356    0.2359   28.5352 C.ar    1  UNL1        0.0716
      4 C         -26.8745    1.2825   29.3982 C.ar    1  UNL1        0.0039
      5 C         -27.5070    1.2380   30.6295 C.ar    1  UNL1        0.0002
      6 C         -28.3293    0.1745   30.9350 C.ar    1  UNL1        0.0064
      7 C         -26.4077    0.3070   27.2259 C.3     1  UNL1        0.4186
      8 F         -27.0192    0.0345   26.2763 F       1  UNL1       -0.1659
      9 F         -25.2626   -0.5297   27.3240 F       1  UNL1       -0.1659
     10 F         -25.7624    1.5281   26.9439 F       1  UNL1       -0.1659
     11 C         -29.3864   -2.0224   30.3300 C.2     1  UNL1        0.3449
     12 O         -28.9350   -3.0145   30.5009 O.2     1  UNL1       -0.2448
     13 O         -30.4660   -1.7263   30.9270 O.3     1  UNL1       -0.3909
     14 C         -31.4458   -2.6540   30.9450 C.3     1  UNL1        0.5020
     15 C         -32.6983   -2.2223   30.8419 C.3     1  UNL1        0.4969
     16 F         -33.5680   -3.1381   30.9185 F       1  UNL1       -0.1619
     17 F         -32.9266   -1.6398   29.5817 F       1  UNL1       -0.1619
     18 F         -33.1244   -1.1968   31.6567 F       1  UNL1       -0.1619
     19 F         -31.2627   -3.1601   32.2946 F       1  UNL1       -0.1557
     20 F         -31.1820   -3.6624   30.0849 F       1  UNL1       -0.1557
@<TRIPOS>BOND
     1     3     7    1
     2     7     8    1
     3     7     9    1
     4     7    10    1
     5     2    11    1
     6    11    12    2
     7    11    13    1
     8    13    14    1
     9    14    15    1
    10    15    16    1
    11    15    17    1
    12    15    18    1
    13    14    19    1
    14    14    20    1
    15     1     2   ar
    16     2     6   ar
    17     6     5   ar
    18     5     4   ar
    19     4     3   ar
    20     3     1   ar
