@<TRIPOS>MOLECULE
No_2121-gen_results/8p0m/2024-11-26-14-13-15/
 12 12 0 0 0
SMALL
GASTEIGER

@<TRIPOS>ATOM
      1 C         -28.0162   -0.8135   28.8779 C.ar    1  UNL1        0.0031
      2 C         -27.0636   -0.1189   28.6079 C.ar    1  UNL1        0.0369
      3 C         -26.8756    1.1325   28.9134 C.ar    1  UNL1        0.1386
      4 C         -27.9014    1.8066   29.6436 C.ar    1  UNL1        0.0369
      5 C         -28.9449    1.0388   30.0360 C.ar    1  UNL1        0.0031
      6 C         -29.0273   -0.2890   29.7051 C.ar    1  UNL1        0.0002
      7 O         -25.7756    1.8718   28.5229 O.3     1  UNL1       -0.4751
      8 C         -24.9188    1.6551   27.7542 C.3     1  UNL1        0.2100
      9 C         -23.6453    1.3045   28.3056 C.3     1  UNL1        0.0730
     10 C         -23.3677    0.1625   28.9981 C.2     1  UNL1       -0.0268
     11 C         -24.2515   -0.4644   29.6547 C.2     1  UNL1       -0.0302
     12 C         -23.8910   -1.6140   30.4706 C.3     1  UNL1        0.0303
@<TRIPOS>BOND
     1     3     7    1
     2     7     8    1
     3     8     9    1
     4     9    10    1
     5    10    11    2
     6    11    12    1
     7     1     2   ar
     8     2     3   ar
     9     3     4   ar
    10     4     5   ar
    11     5     6   ar
    12     6     1   ar
