@<TRIPOS>MOLECULE
No_2122-gen_results/8p0m/2024-11-26-14-13-15/
 21 24 0 0 0
SMALL
GASTEIGER

@<TRIPOS>ATOM
      1 O         -28.1229   -1.3353   28.4874 O.2     1  UNL1       -0.2745
      2 C         -28.5208   -0.4363   29.0779 C.2     1  UNL1        0.2307
      3 C         -27.6655    0.1129   30.0346 C.3     1  UNL1        0.0991
      4 N         -29.5662    0.3302   28.6099 N.am    1  UNL1       -0.2592
      5 C         -27.6931    1.3673   30.4369 C.3     1  UNL1        0.0170
      6 C         -29.7947    1.5940   29.1820 C.3     1  UNL1        0.1693
      7 C         -28.9287    2.0790   30.1852 C.3     1  UNL1        0.0432
      8 N         -30.8333    2.2755   28.7644 N.pl3   1  UNL1       -0.2194
      9 C         -31.5968    2.0528   27.8159 C.ar    1  UNL1        0.0647
     10 C         -32.6735    2.9092   27.4155 C.ar    1  UNL1        0.0159
     11 C         -33.5148    2.6640   26.4192 C.ar    1  UNL1        0.0013
     12 C         -33.3178    1.4754   25.6514 C.ar    1  UNL1       -0.0002
     13 C         -32.2961    0.6067   25.9500 C.ar    1  UNL1       -0.0013
     14 C         -31.4705    0.8687   26.9827 C.ar    1  UNL1        0.0126
     15 C         -30.3652   -0.1602   27.5714 C.3     1  UNL1        0.1229
     16 C         -26.4901   -0.7506   30.4761 C.ar    1  UNL1       -0.0139
     17 C         -25.7618   -0.5242   31.5066 C.ar    1  UNL1       -0.0038
     18 C         -24.4100   -0.9944   31.5337 C.ar    1  UNL1       -0.0003
     19 C         -23.8150   -1.2181   30.4264 C.ar    1  UNL1       -0.0000
     20 C         -24.5692   -1.5828   29.2909 C.ar    1  UNL1       -0.0003
     21 C         -25.8233   -1.4358   29.3286 C.ar    1  UNL1       -0.0038
@<TRIPOS>BOND
     1     1     2    2
     2     2     3    1
     3     2     4   am
     4     3     5    1
     5     4     6    1
     6     6     8    1
     7     8     9    1
     8     4    15    1
     9    14    15    1
    10     3    16    1
    11     5     7    1
    12     7     6    1
    13     9    10   ar
    14    10    11   ar
    15    11    12   ar
    16    12    13   ar
    17    13    14   ar
    18    14     9   ar
    19    16    17   ar
    20    17    18   ar
    21    18    19   ar
    22    19    20   ar
    23    20    21   ar
    24    21    16   ar
