@<TRIPOS>MOLECULE
No_2123-gen_results/8p0m/2024-11-26-14-13-15/
 9 9 0 0 0
SMALL
GASTEIGER

@<TRIPOS>ATOM
      1 C         -28.0162   -0.8135   28.8779 C.3     1  UNL1        0.0260
      2 C         -28.4690   -0.7850   29.8287 C.2     1  UNL1       -0.0307
      3 C         -28.1816    0.4277   28.1134 C.3     1  UNL1        0.0090
      4 C         -29.3519    0.6041   27.4037 C.3     1  UNL1        0.0227
      5 C         -30.4853    0.3937   28.3041 C.3     1  UNL1        0.0090
      6 C         -29.4649   -0.4006   30.2875 C.2     1  UNL1       -0.0307
      7 C         -30.6349   -0.1104   29.4701 C.3     1  UNL1        0.0260
      8 C         -29.3653    1.1816   26.1888 C.2     1  UNL1       -0.0265
      9 C         -28.6402    2.0186   25.7008 C.2     1  UNL1       -0.0049
@<TRIPOS>BOND
     1     1     2    1
     2     1     3    1
     3     3     4    1
     4     4     5    1
     5     2     6    2
     6     5     7    1
     7     6     7    1
     8     4     8    1
     9     8     9    2
