@<TRIPOS>MOLECULE
No_2124-gen_results/8p0m/2024-11-26-14-13-15/
 15 16 0 0 0
SMALL
GASTEIGER

@<TRIPOS>ATOM
      1 C         -28.0162   -0.8135   28.8779 C.ar    1  UNL1       -0.0000
      2 C         -28.4690   -0.7850   29.8287 C.ar    1  UNL1        0.0000
      3 C         -27.0871    0.2903   28.6377 C.ar    1  UNL1       -0.0000
      4 C         -26.8317    1.2487   29.5869 C.ar    1  UNL1       -0.0000
      5 C         -28.3914    0.0801   31.0065 C.ar    1  UNL1        0.0000
      6 C         -27.4940    1.1521   30.7841 C.ar    1  UNL1        0.0000
      7 C         -26.3109    0.3918   27.3640 C.ar    1  UNL1       -0.0000
      8 C         -24.9686    0.2477   27.4806 C.ar    1  UNL1       -0.0003
      9 C         -26.9237    0.5760   26.1378 C.ar    1  UNL1       -0.0000
     10 C         -26.2090    0.4232   24.9761 C.ar    1  UNL1       -0.0000
     11 C         -24.2789    0.0342   28.7672 C.2     1  UNL1       -0.0046
     12 C         -24.7621    0.3433   25.0661 C.ar    1  UNL1       -0.0000
     13 C         -24.2006    0.3322   26.2739 C.ar    1  UNL1       -0.0000
     14 C         -23.9024   -1.1774   29.1892 C.2     1  UNL1       -0.0258
     15 C         -23.1731   -1.2919   30.4032 C.3     1  UNL1        0.0307
@<TRIPOS>BOND
     1     3     7    1
     2     8    11    1
     3    11    14    2
     4    14    15    1
     5     1     2   ar
     6     2     5   ar
     7     5     6   ar
     8     6     4   ar
     9     4     3   ar
    10     3     1   ar
    11     7     8   ar
    12     8    13   ar
    13    13    12   ar
    14    12    10   ar
    15    10     9   ar
    16     9     7   ar
