@<TRIPOS>MOLECULE
No_2126-gen_results/8p0m/2024-11-26-14-13-15/
 11 11 0 0 0
SMALL
GASTEIGER

@<TRIPOS>ATOM
      1 C         -28.0162   -0.8135   28.8779 C.ar    1  UNL1       -0.0038
      2 C         -27.0636   -0.1189   28.6079 C.ar    1  UNL1       -0.0003
      3 C         -26.8756    1.1325   28.9134 C.ar    1  UNL1       -0.0000
      4 C         -27.9014    1.8066   29.6436 C.ar    1  UNL1       -0.0003
      5 C         -29.0458   -0.2316   29.7181 C.ar    1  UNL1       -0.0149
      6 C         -28.9402    1.0517   30.0597 C.ar    1  UNL1       -0.0038
      7 C         -30.1632   -1.1170   30.1252 C.3     1  UNL1        0.0851
      8 P         -29.8566   -2.3725   31.2528 P.3     1  UNL1        0.1216
      9 O         -28.6380   -2.2605   31.6949 O.3     1  UNL1       -0.3569
     10 O         -30.8058   -2.1129   32.3921 O.3     1  UNL1       -0.3569
     11 O         -30.2031   -3.6619   30.5280 O.2     1  UNL1       -0.4598
@<TRIPOS>BOND
     1     5     7    1
     2     7     8    1
     3     8     9    1
     4     8    10    1
     5     8    11    2
     6     1     2   ar
     7     2     3   ar
     8     3     4   ar
     9     4     6   ar
    10     6     5   ar
    11     5     1   ar
