@<TRIPOS>MOLECULE
No_2127-gen_results/8p0m/2024-11-26-14-13-15/
 11 11 0 0 0
SMALL
GASTEIGER

@<TRIPOS>ATOM
      1 C         -28.0162   -0.8135   28.8779 C.ar    1  UNL1        0.0371
      2 C         -28.4690   -0.7850   29.8287 C.ar    1  UNL1        0.0821
      3 C         -26.5042   -0.7777   28.8766 C.ar    1  UNL1        0.1508
      4 C         -25.8103   -0.8531   30.1028 C.ar    1  UNL1        0.0850
      5 C         -27.9906   -0.8916   31.2257 C.ar    1  UNL1        0.0076
      6 C         -26.6042   -0.8676   31.2652 C.ar    1  UNL1        0.0139
      7 CL        -24.1648   -0.7915   30.1717 Cl      1  UNL1       -0.0799
      8 C         -30.0988   -0.8363   29.8511 C.2     1  UNL1        0.3878
      9 O         -30.5260   -0.4368   28.9158 O.co2   1  UNL1       -0.2406
     10 O         -30.7692   -1.2826   30.8597 O.co2   1  UNL1       -0.2406
     11 F         -25.7241   -0.7523   27.7794 F       1  UNL1       -0.2033
@<TRIPOS>BOND
     1     4     7    1
     2     2     8    1
     3     8     9   ar
     4     8    10   ar
     5     3    11    1
     6     1     2   ar
     7     2     5   ar
     8     5     6   ar
     9     6     4   ar
    10     4     3   ar
    11     3     1   ar
