@<TRIPOS>MOLECULE
No_2129-gen_results/8p0m/2024-11-26-14-13-15/
 26 26 0 0 0
SMALL
GASTEIGER

@<TRIPOS>ATOM
      1 C         -28.0162   -0.8135   28.8779 C.3     1  UNL1        0.0500
      2 C         -27.0636   -0.1189   28.6079 C.ar    1  UNL1       -0.0181
      3 C         -26.8756    1.1325   28.9134 C.ar    1  UNL1       -0.0040
      4 C         -25.6883    1.9515   28.5672 C.ar    1  UNL1        0.0035
      5 C         -24.6394    1.2834   27.8753 C.ar    1  UNL1        0.0714
      6 C         -24.8068   -0.0513   27.6040 C.ar    1  UNL1        0.0035
      7 C         -25.9020   -0.7670   27.9511 C.ar    1  UNL1       -0.0040
      8 C         -28.0678   -1.4475   30.2707 C.2     1  UNL1       -0.0185
      9 C         -28.8375   -1.5002   30.9687 C.2     1  UNL1       -0.0065
     10 C         -28.8365   -2.3418   32.2399 C.2     1  UNL1       -0.0006
     11 C         -23.4475    1.9899   27.4666 C.3     1  UNL1        0.4186
     12 F         -23.3022    2.4123   26.5251 F       1  UNL1       -0.1659
     13 F         -23.0765    2.9025   28.4898 F       1  UNL1       -0.1659
     14 F         -22.3122    1.0852   27.7100 F       1  UNL1       -0.1659
     15 C         -26.8268   -2.3071   30.5400 C.3     1  UNL1        0.1343
     16 N         -25.7389   -2.2114   29.7765 N.pl3   1  UNL1       -0.2374
     17 C         -24.9215   -3.0978   29.3413 C.2     1  UNL1        0.0438
     18 C         -25.1267   -4.4953   29.7736 C.2     1  UNL1        0.0127
     19 C         -29.9425   -2.1538   33.1281 C.2     1  UNL1       -0.0000
     20 C         -29.9716   -2.9033   34.2689 C.2     1  UNL1       -0.0000
     21 C         -23.8055   -2.9174   28.5271 C.3     1  UNL1        0.0488
     22 C         -30.8139   -3.6163   34.5634 C.2     1  UNL1       -0.0000
     23 C         -31.9676   -3.7238   33.7310 C.2     1  UNL1        0.0000
     24 C         -32.1487   -2.8721   32.6966 C.2     1  UNL1        0.0000
     25 C         -31.0081   -2.2285   32.2547 C.2     1  UNL1        0.0000
     26 C         -30.9373   -1.7075   30.9948 C.2     1  UNL1        0.0000
@<TRIPOS>BOND
     1     1     8    1
     2     8     9    2
     3     9    10    1
     4     5    11    1
     5    11    12    1
     6    11    13    1
     7    11    14    1
     8     8    15    1
     9    15    16    1
    10    16    17    1
    11    17    18    2
    12    10    19    2
    13    19    20    1
    14    17    21    1
    15    20    22    2
    16    22    23    1
    17    23    24    2
    18    24    25    1
    19    25    26    2
    20     1     2    1
    21     2     3   ar
    22     3     4   ar
    23     4     5   ar
    24     5     6   ar
    25     6     7   ar
    26     7     2   ar
