@<TRIPOS>MOLECULE
No_213-gen_results/8p0m/2024-11-26-14-13-15/
 17 18 0 0 0
SMALL
GASTEIGER

@<TRIPOS>ATOM
      1 C         -28.0162   -0.8135   28.8779 C.ar    1  UNL1        0.0369
      2 C         -27.0636   -0.1190   28.6079 C.ar    1  UNL1        0.0031
      3 C         -25.7647   -0.3897   29.0360 C.ar    1  UNL1        0.0002
      4 C         -25.5296   -1.5302   29.9014 C.ar    1  UNL1        0.0031
      5 C         -26.6888   -2.2893   30.1810 C.ar    1  UNL1        0.0369
      6 C         -27.8727   -1.9508   29.7373 C.ar    1  UNL1        0.1394
      7 O         -28.9304   -2.7298   30.1154 O.3     1  UNL1       -0.4637
      8 C         -24.5394    0.4211   28.7421 C.ar    1  UNL1        0.0000
      9 C         -24.5259    1.2743   27.7265 C.ar    1  UNL1        0.0000
     10 C         -23.5071    1.9288   27.3653 C.ar    1  UNL1        0.0000
     11 C         -22.2254    1.7877   27.9565 C.ar    1  UNL1        0.0000
     12 C         -23.3867    0.3100   29.5882 C.ar    1  UNL1        0.0000
     13 C         -22.1900    0.9691   29.1216 C.ar    1  UNL1        0.0000
     14 C         -30.0649   -2.2188   30.5701 C.3     1  UNL1        0.3186
     15 C         -31.1045   -2.9223   30.2171 C.2     1  UNL1        0.4084
     16 O         -31.9777   -2.4829   29.5669 O.co2   1  UNL1       -0.2415
     17 O         -31.0997   -4.3255   30.2792 O.co2   1  UNL1       -0.2415
@<TRIPOS>BOND
     1     6     7    1
     2     3     8    1
     3     7    14    1
     4    14    15    1
     5    15    16   ar
     6    15    17   ar
     7     1     2   ar
     8     2     3   ar
     9     3     4   ar
    10     4     5   ar
    11     5     6   ar
    12     6     1   ar
    13     8     9   ar
    14     9    10   ar
    15    10    11   ar
    16    11    13   ar
    17    13    12   ar
    18    12     8   ar
