@<TRIPOS>MOLECULE
No_2131-gen_results/8p0m/2024-11-26-14-13-15/
 27 29 0 0 0
SMALL
GASTEIGER

@<TRIPOS>ATOM
      1 C         -28.0162   -0.8135   28.8779 C.ar    1  UNL1        0.0000
      2 C         -28.4690   -0.7850   29.8287 C.ar    1  UNL1        0.0000
      3 C         -27.0871    0.2903   28.6377 C.ar    1  UNL1        0.0012
      4 C         -26.8317    1.2487   29.5869 C.ar    1  UNL1        0.0000
      5 C         -28.3914    0.0801   31.0065 C.ar    1  UNL1        0.0000
      6 C         -27.4940    1.1521   30.7841 C.ar    1  UNL1        0.0000
      7 C         -26.3109    0.3918   27.3640 C.ar    1  UNL1        0.0133
      8 C         -26.7672    1.0252   26.3723 C.ar    1  UNL1        0.0012
      9 C         -26.0109    1.0160   25.1236 C.ar    1  UNL1        0.0001
     10 C         -25.0722   -0.2318   27.3154 C.ar    1  UNL1        0.0478
     11 C         -24.2244   -0.1270   26.2435 C.ar    1  UNL1        0.0145
     12 C         -24.7408    0.4870   25.0666 C.ar    1  UNL1        0.0013
     13 N         -24.5259   -0.8827   28.4277 N.pl3   1  UNL1       -0.3077
     14 C         -23.4389   -0.4379   29.1533 C.3     1  UNL1        0.0729
     15 C         -22.6782    0.4635   28.8940 C.3     1  UNL1        0.0214
     16 C         -25.0495   -2.2357   28.6893 C.3     1  UNL1        0.1080
     17 C         -23.3498   -1.1459   30.4731 C.3     1  UNL1        0.0212
     18 C         -24.3762   -3.0716   29.3697 C.3     1  UNL1        0.0929
     19 N         -24.8467   -4.3478   29.5850 N.3     1  UNL1       -0.2130
     20 C         -23.7625   -2.4589   30.7600 C.3     1  UNL1        0.0208
     21 C         -26.1625   -4.5186   29.7212 C.3     1  UNL1        0.1147
     22 C         -26.8901   -5.4189   30.3498 C.2     1  UNL1       -0.0074
     23 C         -28.3240   -5.2754   30.4611 C.2     1  UNL1       -0.0031
     24 C         -29.2553   -4.6930   30.7941 C.2     1  UNL1       -0.0003
     25 C         -30.4971   -4.7972   30.7343 C.2     1  UNL1       -0.0000
     26 C         -30.9502   -5.8750   29.9190 C.2     1  UNL1       -0.0000
     27 C         -30.2118   -6.4483   29.0884 C.2     1  UNL1       -0.0000
@<TRIPOS>BOND
     1     3     7    1
     2    10    13    1
     3    13    14    1
     4    14    15    1
     5    13    16    1
     6    14    17    1
     7    18    19    1
     8    18    20    1
     9    19    21    1
    10    21    22    1
    11    22    23    2
    12    23    24    1
    13    24    25    2
    14    25    26    1
    15    26    27    2
    16    17    20    1
    17    18    16    1
    18     1     2   ar
    19     2     5   ar
    20     5     6   ar
    21     6     4   ar
    22     4     3   ar
    23     3     1   ar
    24     7     8   ar
    25     8     9   ar
    26     9    12   ar
    27    12    11   ar
    28    11    10   ar
    29    10     7   ar
