@<TRIPOS>MOLECULE
No_2132-gen_results/8p0m/2024-11-26-14-13-15/
 12 13 0 0 0
SMALL
GASTEIGER

@<TRIPOS>ATOM
      1 C         -28.0162   -0.8135   28.8779 C.ar    1  UNL1        0.0000
      2 C         -28.4690   -0.7850   29.8287 C.ar    1  UNL1        0.0000
      3 C         -27.2166   -0.0832   27.9639 C.ar    1  UNL1        0.0000
      4 C         -27.0905    1.2695   28.4177 C.ar    1  UNL1        0.0000
      5 C         -27.6655    1.5758   29.6941 C.ar    1  UNL1        0.0000
      6 C         -28.3335    0.6031   30.4319 C.ar    1  UNL1        0.0000
      7 C         -26.3583    2.2788   27.6965 C.ar    1  UNL1        0.0000
      8 C         -25.8439    2.1616   26.6256 C.ar    1  UNL1        0.0000
      9 C         -24.9679    3.2280   26.0264 C.ar    1  UNL1        0.0000
     10 C         -24.8692    4.4406   26.7192 C.ar    1  UNL1        0.0000
     11 C         -26.0887    3.5658   28.4098 C.ar    1  UNL1        0.0000
     12 C         -25.3612    4.5854   27.8976 C.ar    1  UNL1        0.0000
@<TRIPOS>BOND
     1     4     7    1
     2     7     8   ar
     3     8     9   ar
     4     9    10   ar
     5    10    12   ar
     6    12    11   ar
     7    11     7   ar
     8     1     2   ar
     9     2     6   ar
    10     6     5   ar
    11     5     4   ar
    12     4     3   ar
    13     3     1   ar
