@<TRIPOS>MOLECULE
No_2133-gen_results/8p0m/2024-11-26-14-13-15/
 9 9 0 0 0
SMALL
GASTEIGER

@<TRIPOS>ATOM
      1 O         -28.1229   -1.3353   28.4874 O.2     1  UNL1       -0.2748
      2 C         -27.4806   -0.4044   28.7094 C.2     1  UNL1        0.2285
      3 N         -27.2412    0.3910   29.5098 N.am    1  UNL1       -0.2776
      4 C         -26.4066   -0.1069   27.4496 C.3     1  UNL1        0.1205
      5 C         -25.4358    0.8473   27.6341 C.3     1  UNL1        0.1718
      6 C         -25.4244    1.6272   28.7628 C.3     1  UNL1        0.0573
      7 C         -26.3010    1.3577   29.7736 C.3     1  UNL1        0.0963
      8 F         -24.5848    1.0716   26.6555 F       1  UNL1       -0.2367
      9 C         -28.1679    0.1136   30.7852 C.3     1  UNL1        0.1148
@<TRIPOS>BOND
     1     1     2    2
     2     2     3   am
     3     2     4    1
     4     5     6    1
     5     3     7    1
     6     5     8    1
     7     3     9    1
     8     4     5    1
     9     6     7    1
