@<TRIPOS>MOLECULE
No_2134-gen_results/8p0m/2024-11-26-14-13-15/
 23 25 0 0 0
SMALL
GASTEIGER

@<TRIPOS>ATOM
      1 O         -28.1229   -1.3353   28.4874 O.2     1  UNL1       -0.2541
      2 C         -27.4806   -0.4044   28.7094 C.2     1  UNL1        0.3331
      3 C         -26.3804   -0.0867   27.9394 C.ar    1  UNL1        0.0646
      4 F         -27.7306    0.3455   29.8481 F       1  UNL1       -0.1586
      5 C         -25.1283   -0.3314   28.3752 C.ar    1  UNL1        0.0056
      6 C         -23.9073    0.3013   27.7332 C.ar    1  UNL1        0.0064
      7 C         -24.1266    1.1577   26.6568 C.ar    1  UNL1        0.0343
      8 C         -25.4274    1.4266   26.2518 C.ar    1  UNL1        0.0033
      9 C         -26.4762    0.8946   26.8698 C.ar    1  UNL1       -0.0051
     10 BR        -22.6043    2.0355   25.9962 Br      1  UNL1       -0.0490
     11 C         -22.5957    0.0429   28.3675 C.ar    1  UNL1        0.0005
     12 C         -22.4599   -0.9849   29.3154 C.ar    1  UNL1        0.0000
     13 C         -23.5221   -1.3932   30.0802 C.ar    1  UNL1        0.0000
     14 C         -24.8961   -1.1962   29.5139 C.ar    1  UNL1        0.0002
     15 C         -27.8078    1.1843   26.2715 C.3     1  UNL1        0.1095
     16 C         -28.3548    2.3539   26.6737 C.ar    1  UNL1       -0.0110
     17 C         -29.2892    2.6187   27.0408 C.ar    1  UNL1       -0.0035
     18 C         -29.9171    3.4787   27.5490 C.ar    1  UNL1       -0.0003
     19 C         -29.2384    4.8369   27.4645 C.ar    1  UNL1       -0.0000
     20 C         -27.9736    4.7994   26.8354 C.ar    1  UNL1       -0.0003
     21 C         -27.4761    3.6261   26.4815 C.ar    1  UNL1       -0.0035
     22 C         -28.3948    0.3134   25.4388 C.2     1  UNL1        0.2157
     23 O         -27.9644   -0.0713   24.4265 O.2     1  UNL1       -0.2876
@<TRIPOS>BOND
     1     1     2    2
     2     2     3    1
     3     2     4    1
     4     7    10    1
     5     9    15    1
     6    15    16    1
     7    15    22    1
     8    22    23    2
     9     3     5   ar
    10     6     7   ar
    11     7     8   ar
    12     8     9   ar
    13     9     3   ar
    14     5     6   ar
    15     6    11   ar
    16    11    12   ar
    17    12    13   ar
    18    13    14   ar
    19    14     5   ar
    20    16    17   ar
    21    17    18   ar
    22    18    19   ar
    23    19    20   ar
    24    20    21   ar
    25    21    16   ar
