@<TRIPOS>MOLECULE
No_2135-gen_results/8p0m/2024-11-26-14-13-15/
 29 31 0 0 0
SMALL
GASTEIGER

@<TRIPOS>ATOM
      1 C         -28.0162   -0.8135   28.8779 C.ar    1  UNL1        0.0104
      2 C         -28.4690   -0.7850   29.8287 C.ar    1  UNL1        0.0799
      3 C         -27.1356    0.2359   28.5352 C.ar    1  UNL1        0.0718
      4 C         -26.8745    1.2825   29.3982 C.ar    1  UNL1        0.0103
      5 C         -28.3613    0.1987   30.9244 C.ar    1  UNL1        0.0130
      6 C         -27.5277    1.2234   30.6356 C.ar    1  UNL1        0.0758
      7 C         -26.4181    0.0763   27.2578 C.3     1  UNL1        0.4186
      8 F         -25.3425   -0.5434   27.3091 F       1  UNL1       -0.1659
      9 F         -25.9338    1.3714   26.8048 F       1  UNL1       -0.1659
     10 F         -27.2045   -0.2217   26.2109 F       1  UNL1       -0.1659
     11 C         -29.4113   -2.0122   30.3303 C.2     1  UNL1        0.3877
     12 O         -30.4884   -1.9929   30.0304 O.co2   1  UNL1       -0.2406
     13 O         -28.9530   -2.7829   31.3314 O.co2   1  UNL1       -0.2406
     14 C         -27.2603    2.3495   31.5752 C.2     1  UNL1        0.3417
     15 O         -27.3858    2.3973   32.6607 O.2     1  UNL1       -0.2449
     16 O         -26.3854    3.2485   31.0070 O.3     1  UNL1       -0.4353
     17 C         -25.8921    4.1820   31.8253 C.3     1  UNL1        0.2933
     18 C         -26.1139    5.5702   31.5135 C.2     1  UNL1        0.2740
     19 O         -26.1862    5.8027   30.4021 O.2     1  UNL1       -0.2705
     20 N         -26.3600    6.4549   32.5129 N.am    1  UNL1       -0.2559
     21 C         -26.6729    7.8473   32.1945 C.3     1  UNL1        0.0986
     22 C         -27.2077    8.3897   32.9176 C.3     1  UNL1        0.0266
     23 C         -27.4055    8.0450   34.3345 C.3     1  UNL1        0.0294
     24 C         -27.0327    6.7032   34.6637 C.ar    1  UNL1       -0.0084
     25 C         -26.4998    5.9068   33.7569 C.ar    1  UNL1        0.0499
     26 C         -27.2216    6.2211   36.0889 C.ar    1  UNL1       -0.0030
     27 C         -27.1035    4.9749   36.3308 C.ar    1  UNL1       -0.0002
     28 C         -26.4802    4.1273   35.2985 C.ar    1  UNL1        0.0013
     29 C         -26.1785    4.6301   34.0844 C.ar    1  UNL1        0.0146
@<TRIPOS>BOND
     1     3     7    1
     2     7     8    1
     3     7     9    1
     4     7    10    1
     5     2    11    1
     6    11    12   ar
     7    11    13   ar
     8     6    14    1
     9    14    15    2
    10    14    16    1
    11    16    17    1
    12    17    18    1
    13    18    19    2
    14    18    20   am
    15    20    21    1
    16    22    23    1
    17    20    25    1
    18    21    22    1
    19    23    24    1
    20    24    25   ar
    21    25    29   ar
    22    29    28   ar
    23    28    27   ar
    24    27    26   ar
    25    26    24   ar
    26     1     2   ar
    27     2     5   ar
    28     5     6   ar
    29     6     4   ar
    30     4     3   ar
    31     3     1   ar
