@<TRIPOS>MOLECULE
No_2136-gen_results/8p0m/2024-11-26-14-13-15/
 16 18 0 0 0
SMALL
GASTEIGER

@<TRIPOS>ATOM
      1 C         -28.0162   -0.8135   28.8779 C.ar    1  UNL1        0.0001
      2 C         -28.4690   -0.7850   29.8287 C.ar    1  UNL1        0.0015
      3 C         -28.1816    0.4277   28.1134 C.ar    1  UNL1        0.0014
      4 C         -27.4498    0.6435   26.8500 C.ar    1  UNL1        0.0000
      5 C         -27.8596    1.4573   25.9076 C.ar    1  UNL1        0.0000
      6 C         -29.4263    0.1097   30.4178 C.ar    1  UNL1        0.0191
      7 C         -29.6233    1.2198   29.7351 C.ar    1  UNL1        0.0813
      8 C         -28.9609    1.4529   28.5513 C.ar    1  UNL1        0.0177
      9 C         -27.1733    1.5743   24.7028 C.ar    1  UNL1        0.0000
     10 C         -26.0892    0.7468   24.4126 C.ar    1  UNL1        0.0000
     11 C         -25.6364   -0.1191   25.3972 C.ar    1  UNL1        0.0000
     12 C         -26.2808   -0.2063   26.5817 C.ar    1  UNL1        0.0000
     13 N         -30.4955    2.2465   30.2332 N.ar    1  UNL1       -0.2438
     14 C         -30.9850    3.1545   29.6107 C.ar    1  UNL1        0.0988
     15 C         -30.6780    3.4874   28.5197 C.ar    1  UNL1        0.0207
     16 C         -29.4149    2.5713   27.7235 C.ar    1  UNL1        0.0031
@<TRIPOS>BOND
     1     3     4    1
     2     8    16   ar
     3    16    15   ar
     4    15    14   ar
     5    14    13   ar
     6    13     7   ar
     7     4     5   ar
     8     5     9   ar
     9     9    10   ar
    10    10    11   ar
    11    11    12   ar
    12    12     4   ar
    13     1     2   ar
    14     2     6   ar
    15     6     7   ar
    16     7     8   ar
    17     8     3   ar
    18     3     1   ar
