@<TRIPOS>MOLECULE
No_2137-gen_results/8p0m/2024-11-26-14-13-15/
 22 24 0 0 0
SMALL
GASTEIGER

@<TRIPOS>ATOM
      1 C         -28.0162   -0.8135   28.8779 C.ar    1  UNL1        0.0666
      2 C         -28.4690   -0.7850   29.8287 C.ar    1  UNL1        0.1432
      3 C         -26.5042   -0.7777   28.8766 C.ar    1  UNL1        0.1427
      4 C         -25.8103   -0.8531   30.1028 C.ar    1  UNL1        0.0537
      5 C         -27.9906   -0.8916   31.2257 C.ar    1  UNL1        0.0299
      6 C         -26.6042   -0.8676   31.2652 C.ar    1  UNL1        0.0069
      7 F         -29.9203   -0.8331   29.8239 F       1  UNL1       -0.2041
      8 C         -24.3796   -0.8022   30.1424 C.ar    1  UNL1        0.1104
      9 N         -23.6936   -1.4967   30.7153 N.ar    1  UNL1       -0.1285
     10 C         -23.6787    0.2555   29.3689 C.ar    1  UNL1        0.0605
     11 C         -22.3119    0.1012   29.4294 C.ar    1  UNL1        0.1942
     12 N         -22.3875   -1.5099   30.8967 N.ar    1  UNL1       -0.0408
     13 N         -21.6849   -0.7108   30.1823 N.ar    1  UNL1       -0.1103
     14 N         -21.5587    1.0454   28.6338 N.pl3   1  UNL1       -0.1052
     15 O         -25.9397   -0.6638   27.6487 O.3     1  UNL1       -0.4705
     16 C         -25.9821    0.4895   26.9037 C.3     1  UNL1        0.2320
     17 C         -26.7088    0.6339   25.9144 C.ar    1  UNL1        0.0212
     18 C         -27.5146   -0.4671   25.4362 C.ar    1  UNL1       -0.0007
     19 C         -28.3603   -0.3144   24.2925 C.ar    1  UNL1       -0.0002
     20 C         -29.1234    0.4831   24.2424 C.ar    1  UNL1       -0.0000
     21 C         -28.6344    1.8845   24.6925 C.ar    1  UNL1       -0.0002
     22 C         -27.5326    1.8725   25.6272 C.ar    1  UNL1       -0.0007
@<TRIPOS>BOND
     1     2     7    1
     2     4     8    1
     3    11    14    1
     4     3    15    1
     5    15    16    1
     6    16    17    1
     7    17    18   ar
     8    18    19   ar
     9    19    20   ar
    10    20    21   ar
    11    21    22   ar
    12    22    17   ar
    13     8     9   ar
    14     9    12   ar
    15    12    13   ar
    16    13    11   ar
    17    11    10   ar
    18    10     8   ar
    19     1     2   ar
    20     2     5   ar
    21     5     6   ar
    22     6     4   ar
    23     4     3   ar
    24     3     1   ar
