@<TRIPOS>MOLECULE
No_2138-gen_results/8p0m/2024-11-26-14-13-15/
 18 20 0 0 0
SMALL
GASTEIGER

@<TRIPOS>ATOM
      1 C         -28.0162   -0.8135   28.8779 C.ar    1  UNL1       -0.0043
      2 C         -28.4690   -0.7850   29.8287 C.ar    1  UNL1       -0.0003
      3 C         -28.1960    0.3478   28.0550 C.ar    1  UNL1       -0.0222
      4 C         -27.4421    0.5100   26.7947 C.3     1  UNL1        0.0267
      5 C         -27.8427    1.3330   25.8056 C.3     1  UNL1        0.0050
      6 C         -29.4956    0.1092   30.3452 C.ar    1  UNL1       -0.0000
      7 C         -29.7284    1.1870   29.5687 C.ar    1  UNL1       -0.0003
      8 C         -29.0420    1.3665   28.3718 C.ar    1  UNL1       -0.0043
      9 C         -26.1281   -0.0671   26.6257 C.3     1  UNL1        0.0307
     10 C         -25.2466   -0.2457   27.7552 C.ar    1  UNL1       -0.0206
     11 C         -24.2715    0.4354   28.2098 C.ar    1  UNL1        0.0127
     12 C         -23.9496    1.7535   27.6091 C.2     1  UNL1        0.0929
     13 N         -22.7131    2.2193   27.9119 N.2     1  UNL1       -0.2641
     14 C         -23.0321   -0.0380   28.8794 C.ar    1  UNL1        0.0032
     15 C         -23.0801   -1.1162   29.7882 C.ar    1  UNL1       -0.0023
     16 C         -21.9669    0.9661   28.8995 C.3     1  UNL1        0.1519
     17 C         -24.0326   -2.0820   29.5212 C.ar    1  UNL1       -0.0006
     18 C         -25.1943   -1.7022   28.4673 C.ar    1  UNL1       -0.0042
@<TRIPOS>BOND
     1     3     4    1
     2     4     5    1
     3     4     9    1
     4     9    10    1
     5    11    12    1
     6    12    13    2
     7    13    16    1
     8    14    16    1
     9    10    11   ar
    10    11    14   ar
    11    14    15   ar
    12    15    17   ar
    13    17    18   ar
    14    18    10   ar
    15     1     2   ar
    16     2     6   ar
    17     6     7   ar
    18     7     8   ar
    19     8     3   ar
    20     3     1   ar
