@<TRIPOS>MOLECULE
No_2139-gen_results/8p0m/2024-11-26-14-13-15/
 35 37 0 0 0
SMALL
GASTEIGER

@<TRIPOS>ATOM
      1 C         -28.0162   -0.8135   28.8779 C.ar    1  UNL1        0.0045
      2 C         -28.4690   -0.7850   29.8287 C.ar    1  UNL1        0.0536
      3 C         -26.5042   -0.7777   28.8766 C.ar    1  UNL1        0.0002
      4 C         -25.8103   -0.8531   30.1028 C.ar    1  UNL1        0.0030
      5 C         -27.9906   -0.8916   31.2257 C.ar    1  UNL1        0.0045
      6 C         -26.6042   -0.8676   31.2652 C.ar    1  UNL1        0.0002
      7 C         -24.3894   -0.8049   30.1638 C.ar    1  UNL1        0.0411
      8 C         -23.8172    0.4762   29.9118 C.ar    1  UNL1        0.0800
      9 C         -22.5010    0.5449   29.4097 C.ar    1  UNL1        0.0272
     10 C         -21.7696   -0.6524   29.2129 C.ar    1  UNL1        0.1006
     11 C         -23.6939   -1.8206   29.2518 C.ar    1  UNL1        0.1698
     12 N         -24.2572   -3.0571   29.3479 N.pl3   1  UNL1       -0.1072
     13 N         -22.4527   -1.7137   28.9682 N.ar    1  UNL1       -0.2259
     14 C         -24.4181    1.7344   30.3785 C.2     1  UNL1        0.3415
     15 O         -24.4322    2.0818   31.5355 O.2     1  UNL1       -0.2449
     16 O         -25.0687    2.4256   29.4616 O.3     1  UNL1       -0.4413
     17 C         -30.0689   -0.9097   29.9904 C.2     1  UNL1        0.2496
     18 O         -30.5622   -1.9598   30.0693 O.2     1  UNL1       -0.2699
     19 N         -30.7860    0.2312   29.8132 N.am    1  UNL1       -0.2658
     20 C         -32.2268    0.1830   29.7708 C.3     1  UNL1        0.1159
     21 C         -30.1713    1.5731   29.7125 C.3     1  UNL1        0.1501
     22 C         -30.3729    2.3916   30.8656 C.ar    1  UNL1        0.0029
     23 C         -30.1617    3.3732   30.9853 C.ar    1  UNL1       -0.0022
     24 C         -30.3623    4.2440   32.2565 C.ar    1  UNL1       -0.0001
     25 C         -30.9540    3.5617   33.2921 C.ar    1  UNL1        0.0055
     26 C         -31.2456    2.2288   33.1525 C.ar    1  UNL1        0.0675
     27 C         -30.9375    1.5809   32.0073 C.ar    1  UNL1        0.0033
     28 P         -30.6955    2.4201   28.2933 P.3     1  UNL1        0.1393
     29 O         -30.8578    3.6543   28.5824 O.3     1  UNL1       -0.3558
     30 O         -29.5297    2.1360   27.3713 O.2     1  UNL1       -0.4581
     31 O         -31.8435    1.6620   27.7096 O.3     1  UNL1       -0.3558
     32 C         -31.8584    1.4871   34.3061 C.2     1  UNL1        0.3334
     33 O         -32.4451    0.5472   34.2395 O.2     1  UNL1       -0.2541
     34 F         -31.2139    1.6964   35.4580 F       1  UNL1       -0.1586
     35 C         -25.8574    3.4939   29.8300 C.3     1  UNL1        0.2560
@<TRIPOS>BOND
     1     4     7    1
     2    11    12    1
     3     8    14    1
     4    14    15    2
     5    14    16    1
     6     2    17    1
     7    17    18    2
     8    17    19   am
     9    19    20    1
    10    19    21    1
    11    21    22    1
    12    21    28    1
    13    28    29    1
    14    28    30    2
    15    28    31    1
    16    26    32    1
    17    32    33    2
    18    32    34    1
    19    16    35    1
    20    22    23   ar
    21    23    24   ar
    22    24    25   ar
    23    25    26   ar
    24    26    27   ar
    25    27    22   ar
    26     7     8   ar
    27     8     9   ar
    28     9    10   ar
    29    10    13   ar
    30    13    11   ar
    31    11     7   ar
    32     1     2   ar
    33     2     5   ar
    34     5     6   ar
    35     6     4   ar
    36     4     3   ar
    37     3     1   ar
