@<TRIPOS>MOLECULE
No_214-gen_results/8p0m/2024-11-26-14-13-15/
 13 14 0 0 0
SMALL
GASTEIGER

@<TRIPOS>ATOM
      1 C         -28.0162   -0.8135   28.8779 C.ar    1  UNL1       -0.0042
      2 C         -28.4690   -0.7850   29.8287 C.ar    1  UNL1       -0.0003
      3 C         -27.1356    0.2359   28.5352 C.ar    1  UNL1       -0.0214
      4 C         -26.8745    1.2825   29.3982 C.ar    1  UNL1       -0.0221
      5 C         -27.5070    1.2380   30.6295 C.ar    1  UNL1       -0.0043
      6 C         -28.3293    0.1745   30.9350 C.ar    1  UNL1       -0.0003
      7 C         -26.3848    0.5209   27.2533 C.3     1  UNL1        0.0520
      8 C         -25.1527    0.6094   27.2133 C.2     1  UNL1       -0.0214
      9 C         -24.4684    1.3588   28.2443 C.2     1  UNL1       -0.0046
     10 C         -24.8748    1.7416   29.2455 C.2     1  UNL1       -0.0046
     11 C         -25.2829    2.1346   30.5023 C.2     1  UNL1       -0.0221
     12 C         -25.5396    1.4969   29.9747 C.3     1  UNL1        0.0440
     13 C         -24.9490    0.1436   30.7217 C.3     1  UNL1        0.0094
@<TRIPOS>BOND
     1     3     7    1
     2     7     8    1
     3     8     9    2
     4     9    10    1
     5    10    11    2
     6     4    12    1
     7    11    12    1
     8    12    13    1
     9     1     2   ar
    10     2     6   ar
    11     6     5   ar
    12     5     4   ar
    13     4     3   ar
    14     3     1   ar
