@<TRIPOS>MOLECULE
No_2140-gen_results/8p0m/2024-11-26-14-13-15/
 14 14 0 0 0
SMALL
GASTEIGER

@<TRIPOS>ATOM
      1 C         -28.0162   -0.8135   28.8779 C.3     1  UNL1        0.0310
      2 C         -27.0636   -0.1189   28.6079 C.ar    1  UNL1       -0.0218
      3 C         -27.0010    0.6913   27.4910 C.ar    1  UNL1       -0.0040
      4 C         -25.8548    1.4825   27.0830 C.ar    1  UNL1        0.0063
      5 C         -24.6901    1.4526   27.8807 C.ar    1  UNL1        0.0798
      6 C         -24.7379    0.6010   29.0416 C.ar    1  UNL1        0.0063
      7 C         -25.8234   -0.1688   29.3887 C.ar    1  UNL1       -0.0040
      8 C         -28.7350   -0.4637   30.1419 C.3     1  UNL1        0.0304
      9 C         -29.8111   -1.3049   30.6008 C.2     1  UNL1       -0.0303
     10 C         -23.5152    2.1989   27.5480 C.2     1  UNL1        0.3878
     11 O         -23.4237    2.7858   26.4338 O.co2   1  UNL1       -0.2406
     12 O         -22.3718    1.9864   28.1864 O.co2   1  UNL1       -0.2406
     13 C         -30.0425   -2.3828   29.9306 C.2     1  UNL1       -0.0303
     14 C         -29.2774   -3.0072   29.1195 C.3     1  UNL1        0.0303
@<TRIPOS>BOND
     1     1     2    1
     2     1     8    1
     3     8     9    1
     4     5    10    1
     5    10    11   ar
     6    10    12   ar
     7     9    13    2
     8    13    14    1
     9     2     3   ar
    10     3     4   ar
    11     4     5   ar
    12     5     6   ar
    13     6     7   ar
    14     7     2   ar
