@<TRIPOS>MOLECULE
No_2141-gen_results/8p0m/2024-11-26-14-13-15/
 12 12 0 0 0
SMALL
GASTEIGER

@<TRIPOS>ATOM
      1 C         -28.0162   -0.8135   28.8779 C.ar    1  UNL1        0.0000
      2 C         -28.4690   -0.7850   29.8287 C.ar    1  UNL1        0.0000
      3 C         -27.1356    0.2359   28.5352 C.ar    1  UNL1        0.0000
      4 C         -26.8745    1.2825   29.3982 C.ar    1  UNL1        0.0000
      5 C         -28.3613    0.1987   30.9244 C.ar    1  UNL1        0.0000
      6 C         -27.5277    1.2234   30.6356 C.ar    1  UNL1        0.0000
      7 C         -26.3879    0.2914   27.2334 C.2     1  UNL1        0.0000
      8 C         -25.1510    0.3034   27.2565 C.2     1  UNL1        0.0000
      9 C         -24.2198    0.9278   27.2678 C.2     1  UNL1        0.0000
     10 C         -24.1259    2.2409   26.6899 C.2     1  UNL1        0.0000
     11 C         -22.9000    2.9765   26.6682 C.2     1  UNL1        0.0000
     12 C         -21.8338    2.3759   27.2470 C.2     1  UNL1        0.0000
@<TRIPOS>BOND
     1     3     7    1
     2     7     8    2
     3     8     9    1
     4     9    10    2
     5    10    11    1
     6    11    12    2
     7     1     2   ar
     8     2     5   ar
     9     5     6   ar
    10     6     4   ar
    11     4     3   ar
    12     3     1   ar
