@<TRIPOS>MOLECULE
No_2142-gen_results/8p0m/2024-11-26-14-13-15/
 35 40 0 0 0
SMALL
GASTEIGER

@<TRIPOS>ATOM
      1 C         -28.0162   -0.8135   28.8779 C.ar    1  UNL1        0.0407
      2 C         -28.4690   -0.7850   29.8287 C.ar    1  UNL1        0.1795
      3 C         -26.5455   -0.8762   28.8500 C.ar    1  UNL1        0.0033
      4 C         -25.8041   -1.0324   30.0571 C.ar    1  UNL1        0.0032
      5 C         -27.9437   -0.9869   31.2075 C.ar    1  UNL1        0.1795
      6 C         -26.5825   -1.0386   31.2231 C.ar    1  UNL1        0.0407
      7 O         -29.9267   -0.7257   29.8772 O.3     1  UNL1       -0.4503
      8 C         -30.5256    0.4218   30.2407 C.ar    1  UNL1        0.1484
      9 C         -31.6092    0.5419   29.9850 C.ar    1  UNL1        0.0422
     10 C         -32.3220    1.8295   30.2977 C.ar    1  UNL1        0.0584
     11 C         -31.5730    2.8330   30.9276 C.ar    1  UNL1        0.0049
     12 C         -30.2402    2.5808   31.1918 C.ar    1  UNL1        0.0060
     13 C         -29.6450    1.4214   30.8720 C.ar    1  UNL1        0.0691
     14 C         -29.4148    3.6188   31.8759 C.ar    1  UNL1        0.0003
     15 C         -28.1364    3.4313   32.0320 C.ar    1  UNL1        0.0031
     16 C         -27.5738    2.1203   31.6028 C.ar    1  UNL1        0.0376
     17 C         -28.2827    1.2310   31.0952 C.ar    1  UNL1        0.1483
     18 O         -27.7308    0.2600   31.5305 O.3     1  UNL1       -0.4503
     19 C         -24.3998   -1.2415   30.1198 C.ar    1  UNL1        0.0001
     20 C         -23.5749   -0.8236   30.9563 C.ar    1  UNL1        0.0000
     21 C         -22.5089   -0.2522   30.8075 C.ar    1  UNL1        0.0000
     22 C         -21.8004   -0.4209   29.5131 C.ar    1  UNL1        0.0000
     23 C         -23.7854   -1.7485   28.8884 C.ar    1  UNL1        0.0000
     24 C         -22.4675   -1.1595   28.6067 C.ar    1  UNL1        0.0000
     25 C         -33.7502    2.0208   30.0032 C.2     1  UNL1        0.2691
     26 O         -34.2305    1.8560   29.0640 O.2     1  UNL1       -0.2680
     27 N         -34.4658    2.4981   31.1433 N.am    1  UNL1       -0.1754
     28 C         -35.8505    2.7369   31.0786 C.ar    1  UNL1        0.0737
     29 C         -36.5579    2.8844   31.8465 C.ar    1  UNL1        0.0166
     30 C         -37.9547    3.0785   31.7352 C.ar    1  UNL1        0.0013
     31 C         -38.4613    3.0611   30.4204 C.ar    1  UNL1        0.0001
     32 C         -37.5812    2.8476   29.3981 C.ar    1  UNL1        0.0013
     33 C         -36.2936    2.7055   29.6334 C.ar    1  UNL1        0.0166
     34 C         -38.1059    2.8343   28.0220 C.2     1  UNL1        0.0000
     35 C         -39.2483    3.1727   27.6947 C.2     1  UNL1        0.0000
@<TRIPOS>BOND
     1     2     7    1
     2     7     8    1
     3     5    18    1
     4    17    18    1
     5     4    19    1
     6    10    25    1
     7    25    26    2
     8    25    27   am
     9    27    28    1
    10    32    34    1
    11    34    35    2
    12     1     2   ar
    13     2     5   ar
    14     5     6   ar
    15     6     4   ar
    16     4     3   ar
    17     3     1   ar
    18    19    20   ar
    19    20    21   ar
    20    21    22   ar
    21    22    24   ar
    22    24    23   ar
    23    23    19   ar
    24    13    17   ar
    25    17    16   ar
    26    16    15   ar
    27    15    14   ar
    28    14    12   ar
    29    28    29   ar
    30    29    30   ar
    31    30    31   ar
    32    31    32   ar
    33    32    33   ar
    34    33    28   ar
    35     8     9   ar
    36     9    10   ar
    37    10    11   ar
    38    11    12   ar
    39    12    13   ar
    40    13     8   ar
