@<TRIPOS>MOLECULE
No_2143-gen_results/8p0m/2024-11-26-14-13-15/
 33 37 0 0 0
SMALL
GASTEIGER

@<TRIPOS>ATOM
      1 C         -28.0162   -0.8135   28.8779 C.ar    1  UNL1        0.0061
      2 C         -28.4690   -0.7850   29.8287 C.ar    1  UNL1        0.0554
      3 C         -26.5042   -0.7777   28.8766 C.ar    1  UNL1        0.0194
      4 C         -25.6540   -0.6597   27.7191 C.ar    1  UNL1        0.1003
      5 C         -27.9180   -0.9374   31.1824 C.ar    1  UNL1        0.0046
      6 C         -26.5423   -0.9399   31.2606 C.ar    1  UNL1        0.0003
      7 C         -25.7832   -0.8935   30.1201 C.ar    1  UNL1        0.0043
      8 N         -24.3632   -0.5034   27.8686 N.ar    1  UNL1       -0.2276
      9 C         -23.6823   -0.6782   29.0280 C.ar    1  UNL1        0.1522
     10 C         -24.3893   -0.7737   30.2235 C.ar    1  UNL1        0.0359
     11 N         -22.3233   -0.5436   29.0208 N.pl3   1  UNL1       -0.1577
     12 C         -21.6820    0.5457   28.4852 C.3     1  UNL1        0.4186
     13 F         -20.4328    0.5397   28.4213 F       1  UNL1       -0.1735
     14 F         -22.2910    1.5971   28.1441 F       1  UNL1       -0.1735
     15 C         -30.0659   -0.8401   29.8633 C.2     1  UNL1        0.2690
     16 O         -30.7185   -1.6586   30.1689 O.2     1  UNL1       -0.2680
     17 N         -30.5727    0.3682   29.3687 N.am    1  UNL1       -0.1755
     18 C         -31.5668    0.7128   29.0958 C.ar    1  UNL1        0.0734
     19 C         -31.8037    1.8088   28.5386 C.ar    1  UNL1        0.0125
     20 C         -33.0162    2.4177   28.1090 C.ar    1  UNL1       -0.0152
     21 C         -34.1605    1.5876   28.3464 C.ar    1  UNL1        0.0498
     22 C         -33.9972    0.3511   28.9059 C.ar    1  UNL1        0.0055
     23 C         -32.7768   -0.0953   29.2856 C.ar    1  UNL1        0.0167
     24 C         -35.4933    2.0877   27.9524 C.2     1  UNL1        0.2487
     25 N         -35.7422    3.2855   28.0360 N.am    1  UNL1       -0.2774
     26 O         -36.3257    1.2269   27.5962 O.2     1  UNL1       -0.2699
     27 C         -37.0411    3.8636   27.6789 C.3     1  UNL1        0.0937
     28 C         -37.0233    5.0978   27.4334 C.3     1  UNL1        0.0216
     29 C         -35.8963    5.9830   27.6745 C.3     1  UNL1        0.0035
     30 C         -34.6829    5.3538   28.0343 C.3     1  UNL1        0.0202
     31 C         -34.6052    4.0939   28.1742 C.3     1  UNL1        0.0796
     32 C         -33.2930    3.6233   28.2808 C.3     1  UNL1        0.0407
     33 C         -32.3870    4.7229   27.8673 C.3     1  UNL1        0.0064
@<TRIPOS>BOND
     1     9    11    1
     2    11    12    1
     3    12    13    1
     4    12    14    1
     5     2    15    1
     6    15    16    2
     7    15    17   am
     8    17    18    1
     9    21    24    1
    10    24    25   am
    11    24    26    2
    12    25    27    1
    13    28    29    1
    14    25    31    1
    15    30    31    1
    16    20    32    1
    17    31    32    1
    18    32    33    1
    19    27    28    1
    20    29    30    1
    21    18    19   ar
    22    19    20   ar
    23    20    21   ar
    24    21    22   ar
    25    22    23   ar
    26    23    18   ar
    27     1     2   ar
    28     2     5   ar
    29     5     6   ar
    30     6     7   ar
    31     3     1   ar
    32     3     4   ar
    33     4     8   ar
    34     8     9   ar
    35     9    10   ar
    36    10     7   ar
    37     7     3   ar
