@<TRIPOS>MOLECULE
No_2144-gen_results/8p0m/2024-11-26-14-13-15/
 13 13 0 0 0
SMALL
GASTEIGER

@<TRIPOS>ATOM
      1 C         -28.0162   -0.8135   28.8779 C.ar    1  UNL1        0.0104
      2 C         -27.0636   -0.1189   28.6079 C.ar    1  UNL1        0.0716
      3 C         -25.7923   -0.4302   29.0761 C.ar    1  UNL1        0.0039
      4 C         -25.5314   -1.5875   29.6105 C.ar    1  UNL1        0.0002
      5 C         -26.6366   -2.4336   29.9654 C.ar    1  UNL1        0.0066
      6 C         -27.8411   -2.0285   29.6196 C.ar    1  UNL1        0.0797
      7 C         -27.1759    1.2293   27.9201 C.3     1  UNL1        0.4186
      8 F         -26.4462    1.4271   27.1791 F       1  UNL1       -0.1659
      9 F         -28.4380    1.2026   27.2789 F       1  UNL1       -0.1659
     10 F         -27.3551    2.2601   28.8150 F       1  UNL1       -0.1659
     11 C         -28.9633   -2.9031   30.0983 C.2     1  UNL1        0.3877
     12 O         -30.0381   -2.5854   30.0387 O.co2   1  UNL1       -0.2406
     13 O         -28.6214   -3.8982   30.9403 O.co2   1  UNL1       -0.2406
@<TRIPOS>BOND
     1     2     7    1
     2     7     8    1
     3     7     9    1
     4     7    10    1
     5     6    11    1
     6    11    12   ar
     7    11    13   ar
     8     1     2   ar
     9     2     3   ar
    10     3     4   ar
    11     4     5   ar
    12     5     6   ar
    13     6     1   ar
