@<TRIPOS>MOLECULE
No_2146-gen_results/8p0m/2024-11-26-14-13-15/
 20 22 0 0 0
SMALL
GASTEIGER

@<TRIPOS>ATOM
      1 N         -28.0544   -1.0498   28.7246 N.ar    1  UNL1       -0.2478
      2 C         -28.6544   -0.5669   29.5076 C.ar    1  UNL1        0.0985
      3 C         -28.8748    0.2766   30.0555 C.ar    1  UNL1        0.0207
      4 C         -27.0225   -0.1580   28.2812 C.ar    1  UNL1        0.0630
      5 C         -25.9330   -0.5100   27.4175 C.3     1  UNL1        0.0668
      6 C         -26.9508    1.1325   28.7036 C.ar    1  UNL1        0.0151
      7 C         -27.9513    1.4249   29.7214 C.ar    1  UNL1        0.0028
      8 C         -24.6960   -0.9395   27.9960 C.ar    1  UNL1       -0.0166
      9 C         -26.0176   -0.6385   26.2145 C.3     1  UNL1        0.0366
     10 C         -27.0367    0.0923   25.4003 C.ar    1  UNL1       -0.0215
     11 C         -27.6130   -0.3529   24.3270 C.ar    1  UNL1       -0.0042
     12 C         -28.7573    0.3740   23.7802 C.ar    1  UNL1       -0.0003
     13 C         -29.1002    1.6118   24.3775 C.ar    1  UNL1       -0.0000
     14 C         -28.4678    2.1288   25.4537 C.ar    1  UNL1       -0.0003
     15 C         -27.4380    1.3873   26.0232 C.ar    1  UNL1       -0.0042
     16 C         -24.2289   -1.3080   28.9854 C.ar    1  UNL1       -0.0039
     17 C         -22.9119   -1.4715   29.4265 C.ar    1  UNL1       -0.0003
     18 C         -22.0004   -0.5248   28.8913 C.ar    1  UNL1       -0.0000
     19 C         -22.4086    0.4614   27.9634 C.ar    1  UNL1       -0.0003
     20 C         -23.6970   -0.3279   27.1476 C.ar    1  UNL1       -0.0039
@<TRIPOS>BOND
     1     4     5    1
     2     5     8    1
     3     5     9    1
     4     9    10    1
     5     8    16   ar
     6    16    17   ar
     7    17    18   ar
     8    18    19   ar
     9    19    20   ar
    10    20     8   ar
    11    10    11   ar
    12    11    12   ar
    13    12    13   ar
    14    13    14   ar
    15    14    15   ar
    16    15    10   ar
    17     1     2   ar
    18     2     3   ar
    19     3     7   ar
    20     7     6   ar
    21     6     4   ar
    22     4     1   ar
