@<TRIPOS>MOLECULE
No_2147-gen_results/8p0m/2024-11-26-14-13-15/
 35 37 0 0 0
SMALL
GASTEIGER

@<TRIPOS>ATOM
      1 C         -28.0162   -0.8135   28.8779 C.ar    1  UNL1        0.0084
      2 C         -28.4690   -0.7850   29.8287 C.ar    1  UNL1        0.0535
      3 C         -27.1356    0.2359   28.5352 C.ar    1  UNL1        0.0716
      4 C         -26.8745    1.2825   29.3982 C.ar    1  UNL1        0.0039
      5 C         -28.3613    0.1987   30.9244 C.ar    1  UNL1        0.0045
      6 C         -27.5277    1.2234   30.6356 C.ar    1  UNL1        0.0001
      7 C         -26.3987    0.2949   27.2279 C.3     1  UNL1        0.4186
      8 F         -25.4359   -0.3066   27.2689 F       1  UNL1       -0.1659
      9 F         -27.2424   -0.2160   26.2518 F       1  UNL1       -0.1659
     10 F         -26.0737    1.5697   26.7857 F       1  UNL1       -0.1659
     11 C         -29.3983   -2.0023   30.3280 C.2     1  UNL1        0.2490
     12 O         -28.9857   -3.1351   30.3946 O.2     1  UNL1       -0.2699
     13 N         -30.4126   -1.7881   31.1267 N.am    1  UNL1       -0.2756
     14 C         -31.2553   -2.8219   31.6332 C.3     1  UNL1        0.0937
     15 C         -32.6030   -2.5826   31.4818 C.3     1  UNL1        0.0221
     16 C         -33.0012   -1.3450   31.4707 C.3     1  UNL1        0.0126
     17 C         -32.1914   -0.2473   31.0415 C.3     1  UNL1        0.0984
     18 C         -31.0177   -0.5085   30.7874 C.3     1  UNL1        0.1028
     19 C         -32.8493    1.0714   30.8191 C.2     1  UNL1        0.2468
     20 N         -32.2026    1.9838   30.2646 N.am    1  UNL1       -0.1792
     21 C         -31.8559    2.1544   28.9547 C.ar    1  UNL1        0.0728
     22 C         -30.8842    3.1113   28.5555 C.ar    1  UNL1        0.0123
     23 C         -32.4008    1.2790   28.0305 C.ar    1  UNL1        0.0140
     24 C         -30.4589    3.1284   27.2038 C.ar    1  UNL1       -0.0208
     25 C         -31.9874    1.3540   26.6605 C.ar    1  UNL1       -0.0013
     26 C         -32.5473    0.4395   25.6761 C.3     1  UNL1        0.1218
     27 C         -31.0077    2.2426   26.3049 C.ar    1  UNL1       -0.0068
     28 O         -34.0083    1.3166   31.0740 O.2     1  UNL1       -0.2729
     29 N         -32.0169   -0.5431   25.4254 N.am    1  UNL1       -0.2570
     30 C         -31.5565   -1.5116   26.1569 C.2     1  UNL1        0.3236
     31 C         -31.6196   -0.8616   24.0259 C.3     1  UNL1        0.1168
     32 N         -31.7793   -1.4574   27.5112 N.am    1  UNL1       -0.1865
     33 O         -30.9161   -2.5008   25.8312 O.2     1  UNL1       -0.2508
     34 C         -31.5867   -2.6433   28.3967 C.3     1  UNL1        0.1402
     35 C         -29.3450    4.0720   26.8363 C.3     1  UNL1        0.0311
@<TRIPOS>BOND
     1     3     7    1
     2     7     8    1
     3     7     9    1
     4     7    10    1
     5     2    11    1
     6    11    12    2
     7    11    13   am
     8    13    14    1
     9    14    15    1
    10    16    17    1
    11    13    18    1
    12    17    19    1
    13    19    20   am
    14    20    21    1
    15    25    26    1
    16    19    28    2
    17    26    29    1
    18    29    30   am
    19    29    31    1
    20    30    32   am
    21    30    33    2
    22    32    34    1
    23    24    35    1
    24    15    16    1
    25    17    18    1
    26    21    22   ar
    27    22    24   ar
    28    24    27   ar
    29    27    25   ar
    30    25    23   ar
    31    23    21   ar
    32     1     2   ar
    33     2     5   ar
    34     5     6   ar
    35     6     4   ar
    36     4     3   ar
    37     3     1   ar
