@<TRIPOS>MOLECULE
No_2148-gen_results/8p0m/2024-11-26-14-13-15/
 9 9 0 0 0
SMALL
GASTEIGER

@<TRIPOS>ATOM
      1 C         -28.0162   -0.8135   28.8779 C.ar    1  UNL1        0.0066
      2 C         -28.4690   -0.7850   29.8287 C.ar    1  UNL1        0.0002
      3 C         -28.1816    0.4277   28.1134 C.ar    1  UNL1        0.0798
      4 C         -28.9841    1.4155   28.5154 C.ar    1  UNL1        0.0066
      5 C         -29.3802    0.1384   30.4612 C.ar    1  UNL1        0.0000
      6 C         -29.5415    1.2736   29.7242 C.ar    1  UNL1        0.0002
      7 C         -27.4586    0.4934   26.7701 C.2     1  UNL1        0.3878
      8 O         -26.2372    0.1445   26.7269 O.co2   1  UNL1       -0.2406
      9 O         -28.0262    0.9387   25.7306 O.co2   1  UNL1       -0.2406
@<TRIPOS>BOND
     1     3     7    1
     2     7     8   ar
     3     7     9   ar
     4     1     2   ar
     5     2     5   ar
     6     5     6   ar
     7     6     4   ar
     8     4     3   ar
     9     3     1   ar
