@<TRIPOS>MOLECULE
No_2149-gen_results/8p0m/2024-11-26-14-13-15/
 25 27 0 0 0
SMALL
GASTEIGER

@<TRIPOS>ATOM
      1 O         -28.1229   -1.3353   28.4874 O.2     1  UNL1       -0.2699
      2 C         -27.0637   -0.8242   28.8687 C.2     1  UNL1        0.2487
      3 C         -26.4017   -0.0623   28.6224 C.ar    1  UNL1        0.0499
      4 N         -26.2652   -1.8674   29.7609 N.am    1  UNL1       -0.2754
      5 C         -25.0436    0.3924   29.0662 C.ar    1  UNL1       -0.0097
      6 C         -24.4726   -0.5445   29.9870 C.3     1  UNL1        0.0482
      7 C         -25.1332   -1.6696   30.2893 C.3     1  UNL1        0.0984
      8 C         -26.9049    1.1098   27.6518 C.ar    1  UNL1        0.0042
      9 C         -26.1344    1.7175   26.8119 C.ar    1  UNL1        0.0003
     10 C         -24.7453    2.0846   27.2961 C.ar    1  UNL1        0.0063
     11 C         -24.1596    1.2542   28.2785 C.ar    1  UNL1        0.0760
     12 C         -22.7728    1.4929   28.6449 C.2     1  UNL1        0.3874
     13 O         -21.9802    1.9768   27.6882 O.co2   1  UNL1       -0.2406
     14 O         -22.2533    1.0122   29.7597 O.co2   1  UNL1       -0.2406
     15 C         -27.1116   -3.0258   30.2470 C.3     1  UNL1        0.0984
     16 C         -28.4048   -2.8810   30.8107 C.3     1  UNL1        0.0478
     17 C         -28.6825   -1.6578   31.3485 C.ar    1  UNL1       -0.0205
     18 C         -29.6238   -1.4244   31.9707 C.ar    1  UNL1       -0.0042
     19 C         -29.9209   -0.1375   32.5785 C.ar    1  UNL1       -0.0003
     20 C         -29.1407    0.9821   32.2371 C.ar    1  UNL1       -0.0000
     21 C         -27.9996    0.7306   31.4397 C.ar    1  UNL1       -0.0006
     22 C         -27.6735   -0.6114   31.3474 C.ar    1  UNL1       -0.0042
     23 C         -27.0822    1.8834   31.3602 C.2     1  UNL1       -0.0046
     24 C         -27.0772    2.9382   32.1933 C.2     1  UNL1       -0.0258
     25 C         -28.3858    3.1430   32.9213 C.3     1  UNL1        0.0307
@<TRIPOS>BOND
     1     1     2    2
     2     2     3    1
     3     2     4   am
     4     5     6    1
     5     4     7    1
     6    11    12    1
     7    12    13   ar
     8    12    14   ar
     9     4    15    1
    10    15    16    1
    11    16    17    1
    12    21    23    1
    13    23    24    2
    14    24    25    1
    15     6     7    1
    16    17    18   ar
    17    18    19   ar
    18    19    20   ar
    19    20    21   ar
    20    21    22   ar
    21    22    17   ar
    22     3     8   ar
    23     8     9   ar
    24     9    10   ar
    25    10    11   ar
    26    11     5   ar
    27     5     3   ar
