@<TRIPOS>MOLECULE
No_215-gen_results/8p0m/2024-11-26-14-13-15/
 16 17 0 0 0
SMALL
GASTEIGER

@<TRIPOS>ATOM
      1 C         -28.0162   -0.8135   28.8779 C.ar    1  UNL1        0.0293
      2 C         -28.4690   -0.7850   29.8287 C.ar    1  UNL1        0.0023
      3 C         -28.1960    0.3478   28.0550 C.ar    1  UNL1        0.1361
      4 C         -29.0191    1.3501   28.3782 C.ar    1  UNL1        0.0053
      5 C         -29.6249    1.2683   29.6012 C.ar    1  UNL1       -0.0020
      6 C         -29.3821    0.1816   30.4004 C.ar    1  UNL1       -0.0002
      7 F         -27.5477    0.3344   26.8406 F       1  UNL1       -0.2045
      8 C         -29.1902    2.4697   27.4864 C.3     1  UNL1        0.0289
      9 C         -29.8548    2.4329   26.3349 C.3     1  UNL1        0.0051
     10 C         -28.5389    3.7430   27.8594 C.3     1  UNL1        0.0308
     11 C         -27.6141    3.8603   28.8878 C.ar    1  UNL1       -0.0219
     12 C         -26.8092    4.9482   28.9608 C.ar    1  UNL1       -0.0043
     13 C         -25.6525    5.0552   29.9268 C.ar    1  UNL1       -0.0003
     14 C         -25.4781    3.9037   30.6968 C.ar    1  UNL1       -0.0000
     15 C         -26.1917    2.7749   30.5899 C.ar    1  UNL1       -0.0003
     16 C         -27.2023    2.7643   29.6630 C.ar    1  UNL1       -0.0043
@<TRIPOS>BOND
     1     3     7    1
     2     4     8    1
     3     8     9    1
     4     8    10    1
     5    10    11    1
     6    11    12   ar
     7    12    13   ar
     8    13    14   ar
     9    14    15   ar
    10    15    16   ar
    11    16    11   ar
    12     1     2   ar
    13     2     6   ar
    14     6     5   ar
    15     5     4   ar
    16     4     3   ar
    17     3     1   ar
