@<TRIPOS>MOLECULE
No_2150-gen_results/8p0m/2024-11-26-14-13-15/
 23 24 0 0 0
SMALL
GASTEIGER

@<TRIPOS>ATOM
      1 CL        -28.1493   -0.8198   28.9079 Cl      1  UNL1       -0.0825
      2 C         -27.8339    0.4961   29.0598 C.ar    1  UNL1        0.0545
      3 C         -27.6022    1.0128   30.2974 C.ar    1  UNL1        0.0111
      4 C         -27.1451    2.3729   30.4401 C.ar    1  UNL1        0.0008
      5 C         -26.8861    3.1358   29.2778 C.ar    1  UNL1       -0.0002
      6 C         -27.0434    2.5541   28.0610 C.ar    1  UNL1       -0.0026
      7 C         -27.4682    1.2781   27.9400 C.ar    1  UNL1        0.0029
      8 C         -27.5987    0.7569   26.5787 C.3     1  UNL1        0.1483
      9 C         -26.6079    0.9838   25.6122 C.2     1  UNL1       -0.0108
     10 C         -25.4074    0.4852   25.7751 C.2     1  UNL1       -0.0037
     11 C         -24.9741   -0.2148   26.9068 C.ar    1  UNL1       -0.0003
     12 C         -25.2695   -1.2793   27.3109 C.ar    1  UNL1        0.0038
     13 C         -24.6856   -1.8843   28.5695 C.ar    1  UNL1        0.0714
     14 C         -23.7075   -1.1758   29.2000 C.ar    1  UNL1        0.0039
     15 C         -23.8314    0.5232   27.6432 C.ar    1  UNL1       -0.0000
     16 C         -23.2775    0.0154   28.7712 C.ar    1  UNL1       -0.0001
     17 C         -28.8412    0.2620   26.1942 C.2     1  UNL1        0.3724
     18 O         -29.0982   -0.0343   25.0070 O.co2   1  UNL1       -0.2449
     19 O         -29.8140   -0.0705   27.0745 O.co2   1  UNL1       -0.2449
     20 C         -25.2846   -3.1637   28.9370 C.3     1  UNL1        0.4186
     21 F         -25.9850   -3.5599   28.0777 F       1  UNL1       -0.1659
     22 F         -26.0052   -2.9420   30.1176 F       1  UNL1       -0.1659
     23 F         -24.2628   -3.9551   29.2624 F       1  UNL1       -0.1659
@<TRIPOS>BOND
     1     1     2    1
     2     7     8    1
     3     8     9    1
     4     9    10    2
     5    10    11    1
     6     8    17    1
     7    17    18   ar
     8    17    19   ar
     9    13    20    1
    10    20    21    1
    11    20    22    1
    12    20    23    1
    13     2     3   ar
    14     3     4   ar
    15     4     5   ar
    16     5     6   ar
    17     6     7   ar
    18     7     2   ar
    19    11    12   ar
    20    12    13   ar
    21    13    14   ar
    22    14    16   ar
    23    16    15   ar
    24    15    11   ar
