@<TRIPOS>MOLECULE
No_2151-gen_results/8p0m/2024-11-26-14-13-15/
 14 14 0 0 0
SMALL
GASTEIGER

@<TRIPOS>ATOM
      1 C         -28.0162   -0.8135   28.8779 C.ar    1  UNL1        0.0047
      2 C         -27.0636   -0.1189   28.6079 C.ar    1  UNL1        0.0554
      3 C         -26.9716    0.7139   27.5060 C.ar    1  UNL1        0.0047
      4 C         -28.1053    0.7744   26.6421 C.ar    1  UNL1        0.0048
      5 C         -29.2008    0.1044   27.0527 C.ar    1  UNL1        0.0567
      6 C         -29.2096   -0.6029   28.1853 C.ar    1  UNL1        0.0048
      7 C         -30.3749    0.2232   26.1670 C.2     1  UNL1        0.2842
      8 O         -31.2461   -0.4191   26.3596 O.2     1  UNL1       -0.2667
      9 N         -30.2724    1.0304   25.0166 N.am    1  UNL1       -0.0837
     10 C         -25.7036   -0.2293   29.4308 C.2     1  UNL1        0.2687
     11 O         -24.6640   -0.5110   28.8934 O.2     1  UNL1       -0.2680
     12 N         -25.6082    0.4163   30.6367 N.am    1  UNL1       -0.1788
     13 C         -24.7994    0.7184   31.2203 C.2     1  UNL1        0.0629
     14 C         -23.4828    0.2429   30.9438 C.3     1  UNL1        0.0504
@<TRIPOS>BOND
     1     5     7    1
     2     7     8    2
     3     7     9   am
     4     2    10    1
     5    10    11    2
     6    10    12    1
     7    12    13    2
     8    13    14    1
     9     1     2   ar
    10     2     3   ar
    11     3     4   ar
    12     4     5   ar
    13     5     6   ar
    14     6     1   ar
