@<TRIPOS>MOLECULE
No_2152-gen_results/8p0m/2024-11-26-14-13-15/
 15 15 0 0 0
SMALL
GASTEIGER

@<TRIPOS>ATOM
      1 C         -28.0162   -0.8135   28.8779 C.ar    1  UNL1        0.0392
      2 C         -27.0636   -0.1190   28.6079 C.ar    1  UNL1        0.0327
      3 C         -25.7923   -0.4302   29.0761 C.ar    1  UNL1        0.1403
      4 C         -25.5756   -1.5654   29.9363 C.ar    1  UNL1        0.0327
      5 C         -26.7354   -2.3004   30.2173 C.ar    1  UNL1        0.0392
      6 C         -27.9184   -1.9537   29.7629 C.ar    1  UNL1        0.1387
      7 O         -29.0001   -2.7012   30.1151 O.3     1  UNL1       -0.4755
      8 F         -24.6795    0.2962   28.8383 F       1  UNL1       -0.2042
      9 C         -28.8871   -3.9481   30.5874 C.3     1  UNL1        0.2054
     10 C         -30.0731   -4.7689   30.2308 C.3     1  UNL1        0.0473
     11 C         -30.7272   -4.5260   29.1002 C.3     1  UNL1        0.0043
     12 C         -31.5296   -5.6823   28.6080 C.3     1  UNL1        0.0083
     13 C         -31.5162   -5.9445   27.2444 C.3     1  UNL1        0.0722
     14 C         -31.6090   -7.3450   26.9251 C.2     1  UNL1        0.2074
     15 O         -31.4886   -8.1407   27.7400 O.2     1  UNL1       -0.2883
@<TRIPOS>BOND
     1     6     7    1
     2     3     8    1
     3     7     9    1
     4     9    10    1
     5    10    11    1
     6    11    12    1
     7    12    13    1
     8    13    14    1
     9    14    15    2
    10     1     2   ar
    11     2     3   ar
    12     3     4   ar
    13     4     5   ar
    14     5     6   ar
    15     6     1   ar
