@<TRIPOS>MOLECULE
No_2153-gen_results/8p0m/2024-11-26-14-13-15/
 22 24 0 0 0
SMALL
GASTEIGER

@<TRIPOS>ATOM
      1 C         -28.0162   -0.8135   28.8779 C.ar    1  UNL1        0.0015
      2 C         -28.4690   -0.7850   29.8287 C.ar    1  UNL1        0.0000
      3 C         -27.1356    0.2359   28.5352 C.ar    1  UNL1        0.0189
      4 C         -26.8745    1.2825   29.3982 C.ar    1  UNL1        0.0015
      5 C         -28.3426    0.0691   30.8236 C.ar    1  UNL1        0.0000
      6 C         -27.5245    1.1625   30.6420 C.ar    1  UNL1        0.0000
      7 C         -26.4061    0.3253   27.2150 C.ar    1  UNL1        0.0965
      8 N         -25.1474    0.1487   27.3113 N.ar    1  UNL1       -0.2425
      9 C         -27.0423    0.5346   26.0120 C.ar    1  UNL1        0.0910
     10 C         -26.6840    0.5697   25.0604 C.ar    1  UNL1        0.0197
     11 C         -24.4604    0.2514   26.0847 C.ar    1  UNL1        0.0989
     12 C         -25.1862    0.4119   24.8985 C.ar    1  UNL1        0.0220
     13 N         -28.5170    0.6060   26.3345 N.am    1  UNL1       -0.1774
     14 C         -29.2752    1.4274   25.5766 C.2     1  UNL1        0.2500
     15 C         -30.7017    1.4211   25.9051 C.3     1  UNL1        0.1135
     16 O         -28.8569    2.1936   24.8052 O.2     1  UNL1       -0.2726
     17 C         -31.2723    1.7016   27.0598 C.ar    1  UNL1       -0.0130
     18 C         -30.4142    2.3148   28.0974 C.ar    1  UNL1       -0.0038
     19 C         -30.9726    2.6332   29.3873 C.ar    1  UNL1       -0.0003
     20 C         -32.3063    2.2940   29.5880 C.ar    1  UNL1       -0.0000
     21 C         -33.0986    1.7326   28.6396 C.ar    1  UNL1       -0.0003
     22 C         -32.5579    1.4255   27.4386 C.ar    1  UNL1       -0.0038
@<TRIPOS>BOND
     1     3     7    1
     2     9    13    1
     3    13    14   am
     4    14    15    1
     5    14    16    2
     6    15    17    1
     7    17    18   ar
     8    18    19   ar
     9    19    20   ar
    10    20    21   ar
    11    21    22   ar
    12    22    17   ar
    13     7     8   ar
    14     8    11   ar
    15    11    12   ar
    16    12    10   ar
    17    10     9   ar
    18     9     7   ar
    19     1     2   ar
    20     2     5   ar
    21     5     6   ar
    22     6     4   ar
    23     4     3   ar
    24     3     1   ar
