@<TRIPOS>MOLECULE
No_2154-gen_results/8p0m/2024-11-26-14-13-15/
 16 17 0 0 0
SMALL
GASTEIGER

@<TRIPOS>ATOM
      1 C         -28.0162   -0.8135   28.8779 C.ar    1  UNL1        0.1871
      2 C         -28.4690   -0.7850   29.8287 C.ar    1  UNL1        0.0882
      3 F         -28.6541   -0.6744   27.8445 F       1  UNL1       -0.2000
      4 C         -27.7274   -1.0138   31.1384 C.ar    1  UNL1        0.0162
      5 C         -26.3130   -1.1081   31.0634 C.ar    1  UNL1        0.0338
      6 C         -25.7318   -1.1346   29.7725 C.ar    1  UNL1        0.1767
      7 C         -26.5830   -0.9531   28.7142 C.ar    1  UNL1        0.2005
      8 F         -24.4538   -1.2231   29.6797 F       1  UNL1       -0.2009
      9 CL        -30.1999   -0.6737   30.1360 Cl      1  UNL1       -0.0798
     10 O         -25.8902   -0.9203   27.4920 O.3     1  UNL1       -0.4489
     11 C         -25.8206    0.2916   26.8900 C.ar    1  UNL1        0.1455
     12 C         -26.2151    0.3382   25.5767 C.ar    1  UNL1        0.0375
     13 C         -25.0732    1.3387   27.4377 C.ar    1  UNL1        0.0375
     14 C         -24.7658    2.4412   26.7226 C.ar    1  UNL1        0.0031
     15 C         -25.9818    1.5256   24.8786 C.ar    1  UNL1        0.0031
     16 C         -25.2253    2.5780   25.4416 C.ar    1  UNL1        0.0002
@<TRIPOS>BOND
     1     1     3    1
     2     6     8    1
     3     2     9    1
     4     7    10    1
     5    10    11    1
     6    11    12   ar
     7    12    15   ar
     8    15    16   ar
     9    16    14   ar
    10    14    13   ar
    11    13    11   ar
    12     1     2   ar
    13     2     4   ar
    14     4     5   ar
    15     5     6   ar
    16     6     7   ar
    17     7     1   ar
