@<TRIPOS>MOLECULE
No_2155-gen_results/8p0m/2024-11-26-14-13-15/
 11 11 0 0 0
SMALL
GASTEIGER

@<TRIPOS>ATOM
      1 C         -28.0162   -0.8135   28.8779 C.ar    1  UNL1        0.0421
      2 C         -27.0636   -0.1189   28.6079 C.ar    1  UNL1        0.0048
      3 C         -25.7923   -0.4302   29.0761 C.ar    1  UNL1        0.0193
      4 C         -25.5756   -1.5654   29.9363 C.ar    1  UNL1        0.0048
      5 C         -26.7354   -2.3004   30.2173 C.ar    1  UNL1        0.0421
      6 C         -27.9184   -1.9537   29.7629 C.ar    1  UNL1        0.1957
      7 O         -29.0001   -2.7012   30.1151 O.3     1  UNL1       -0.2866
      8 C         -24.5290    0.3490   28.7998 C.2     1  UNL1        0.0988
      9 N         -24.4588    1.1825   27.8542 N.2     1  UNL1       -0.2423
     10 C         -23.6662    1.7986   27.4210 C.2     1  UNL1        0.0989
     11 C         -23.8106    2.7907   26.2726 C.2     1  UNL1        0.0222
@<TRIPOS>BOND
     1     6     7    1
     2     3     8    1
     3     8     9    2
     4     9    10    1
     5    10    11    2
     6     1     2   ar
     7     2     3   ar
     8     3     4   ar
     9     4     5   ar
    10     5     6   ar
    11     6     1   ar
