@<TRIPOS>MOLECULE
No_2156-gen_results/8p0m/2024-11-26-14-13-15/
 13 14 0 0 0
SMALL
GASTEIGER

@<TRIPOS>ATOM
      1 CL        -28.1493   -0.8198   28.9079 Cl      1  UNL1       -0.0782
      2 C         -26.9116   -0.0797   28.9452 C.ar    1  UNL1        0.1036
      3 C         -25.9665   -0.2123   29.6235 C.ar    1  UNL1        0.0180
      4 C         -24.7040    0.5534   29.6218 C.ar    1  UNL1        0.0469
      5 C         -23.5065    0.4257   30.4049 C.ar    1  UNL1        0.0038
      6 C         -23.5620   -0.6559   31.2829 C.ar    1  UNL1        0.0001
      7 C         -24.6801   -1.4685   31.4122 C.ar    1  UNL1        0.0000
      8 C         -25.7403   -1.3148   30.6188 C.ar    1  UNL1        0.0011
      9 C         -26.7467    0.9896   27.8022 C.ar    1  UNL1        0.2347
     10 N         -25.7583    1.6633   27.5435 N.ar    1  UNL1       -0.1889
     11 C         -24.6104    1.5455   28.4931 C.ar    1  UNL1        0.2241
     12 F         -23.5905    2.3358   28.3259 F       1  UNL1       -0.1831
     13 F         -27.8397    1.1655   27.1289 F       1  UNL1       -0.1822
@<TRIPOS>BOND
     1     1     2    1
     2    11    12    1
     3     9    13    1
     4     2     3   ar
     5     4    11   ar
     6    11    10   ar
     7    10     9   ar
     8     9     2   ar
     9     3     4   ar
    10     4     5   ar
    11     5     6   ar
    12     6     7   ar
    13     7     8   ar
    14     8     3   ar
