@<TRIPOS>MOLECULE
No_2157-gen_results/8p0m/2024-11-26-14-13-15/
 35 38 0 0 0
SMALL
GASTEIGER

@<TRIPOS>ATOM
      1 C         -28.0162   -0.8135   28.8779 C.ar    1  UNL1        0.0494
      2 C         -28.4690   -0.7850   29.8287 C.ar    1  UNL1        0.1463
      3 C         -26.5042   -0.7777   28.8766 C.ar    1  UNL1        0.0669
      4 C         -25.8103   -0.8531   30.1028 C.ar    1  UNL1        0.0453
      5 C         -27.9906   -0.8916   31.2257 C.ar    1  UNL1        0.0381
      6 C         -26.6042   -0.8676   31.2652 C.ar    1  UNL1        0.0107
      7 O         -29.9385   -0.8194   29.8358 O.3     1  UNL1       -0.4504
      8 C         -30.5356   -0.1119   28.9448 C.ar    1  UNL1        0.1796
      9 C         -31.4501   -0.5434   28.1111 C.ar    1  UNL1        0.1804
     10 C         -32.0404    0.1645   27.0421 C.ar    1  UNL1        0.0520
     11 C         -31.6050    1.5042   26.9115 C.ar    1  UNL1        0.0609
     12 C         -30.6305    2.0115   27.7313 C.ar    1  UNL1        0.0147
     13 C         -30.0462    1.2281   28.7239 C.ar    1  UNL1        0.0415
     14 BR        -23.9726   -0.8419   30.1449 Br      1  UNL1       -0.0481
     15 CL        -25.7209   -0.5671   27.3479 Cl      1  UNL1       -0.0816
     16 CL        -32.3906    2.4715   25.7330 Cl      1  UNL1       -0.0821
     17 O         -31.8457   -1.8417   28.2215 O.3     1  UNL1       -0.4504
     18 C         -32.1862   -2.4370   29.3569 C.ar    1  UNL1        0.1456
     19 C         -33.4068   -2.1476   29.7901 C.ar    1  UNL1        0.0421
     20 C         -33.7752   -2.6604   31.0540 C.ar    1  UNL1        0.0584
     21 C         -32.9551   -3.6080   31.6851 C.ar    1  UNL1        0.0048
     22 C         -31.7213   -3.9245   31.1501 C.ar    1  UNL1        0.0032
     23 C         -31.3077   -3.3456   29.9894 C.ar    1  UNL1        0.0375
     24 C         -30.8362   -4.8710   31.8720 C.ar    1  UNL1        0.0001
     25 C         -29.9903   -5.5244   31.1802 C.ar    1  UNL1        0.0000
     26 C         -30.8327   -4.9689   33.2801 C.ar    1  UNL1        0.0000
     27 C         -29.9970   -5.8629   33.9340 C.ar    1  UNL1        0.0000
     28 C         -29.0286   -6.4383   31.8736 C.ar    1  UNL1        0.0000
     29 C         -29.1090   -6.6101   33.1946 C.ar    1  UNL1        0.0000
     30 C         -35.0973   -2.2746   31.5839 C.2     1  UNL1        0.2691
     31 N         -35.1441   -1.3434   32.4041 N.am    1  UNL1       -0.1745
     32 C         -35.6962   -0.4017   32.7346 C.2     1  UNL1        0.0844
     33 C         -35.6856    0.6166   32.8790 C.2     1  UNL1       -0.0079
     34 O         -36.1184   -2.5284   30.9441 O.2     1  UNL1       -0.2680
     35 C         -36.7377    1.6778   33.0442 C.3     1  UNL1        0.0321
@<TRIPOS>BOND
     1     2     7    1
     2     7     8    1
     3     4    14    1
     4     3    15    1
     5    11    16    1
     6     9    17    1
     7    17    18    1
     8    22    24    1
     9    20    30    1
    10    30    31   am
    11    31    32    1
    12    32    33    2
    13    30    34    2
    14    33    35    1
    15    18    19   ar
    16    19    20   ar
    17    20    21   ar
    18    21    22   ar
    19    22    23   ar
    20    23    18   ar
    21    24    25   ar
    22    25    28   ar
    23    28    29   ar
    24    29    27   ar
    25    27    26   ar
    26    26    24   ar
    27     8     9   ar
    28     9    10   ar
    29    10    11   ar
    30    11    12   ar
    31    12    13   ar
    32    13     8   ar
    33     1     2   ar
    34     2     5   ar
    35     5     6   ar
    36     6     4   ar
    37     4     3   ar
    38     3     1   ar
