@<TRIPOS>MOLECULE
No_2158-gen_results/8p0m/2024-11-26-14-13-15/
 11 11 0 0 0
SMALL
GASTEIGER

@<TRIPOS>ATOM
      1 C         -28.0162   -0.8135   28.8779 C.ar    1  UNL1       -0.0026
      2 C         -28.4690   -0.7850   29.8287 C.ar    1  UNL1       -0.0003
      3 C         -28.1960    0.3478   28.0550 C.ar    1  UNL1       -0.0007
      4 C         -29.0191    1.3501   28.3782 C.ar    1  UNL1       -0.0026
      5 C         -29.4107    0.1803   30.3782 C.ar    1  UNL1       -0.0000
      6 C         -29.6059    1.2495   29.6193 C.ar    1  UNL1       -0.0003
      7 C         -27.4478    0.3799   26.7122 C.3     1  UNL1        0.1386
      8 N         -26.0871    0.2156   26.7405 N.pl3   1  UNL1       -0.2319
      9 C         -25.2278    1.0917   27.3339 C.2     1  UNL1        0.0759
     10 C         -23.8780    0.6884   27.6098 C.2     1  UNL1       -0.0084
     11 C         -22.8180    1.5893   27.6381 C.3     1  UNL1        0.0321
@<TRIPOS>BOND
     1     3     7    1
     2     7     8    1
     3     8     9    1
     4     9    10    2
     5    10    11    1
     6     1     2   ar
     7     2     5   ar
     8     5     6   ar
     9     6     4   ar
    10     4     3   ar
    11     3     1   ar
