@<TRIPOS>MOLECULE
No_2159-gen_results/8p0m/2024-11-26-14-13-15/
 32 35 0 0 0
SMALL
GASTEIGER

@<TRIPOS>ATOM
      1 C         -28.0162   -0.8135   28.8779 C.3     1  UNL1        0.0526
      2 C         -27.0636   -0.1189   28.6079 C.ar    1  UNL1       -0.0178
      3 C         -25.7923   -0.4302   29.0761 C.ar    1  UNL1       -0.0040
      4 C         -24.5456    0.3494   28.8225 C.ar    1  UNL1        0.0035
      5 C         -24.6586    1.4196   27.8878 C.ar    1  UNL1        0.0714
      6 C         -25.9471    1.6811   27.3792 C.ar    1  UNL1        0.0035
      7 C         -27.0439    0.9739   27.6871 C.ar    1  UNL1       -0.0040
      8 C         -29.2364   -0.0611   29.2668 C.ar    1  UNL1       -0.0181
      9 C         -29.8066   -0.3562   30.3832 C.ar    1  UNL1       -0.0040
     10 C         -30.9421    0.4176   30.8227 C.ar    1  UNL1       -0.0006
     11 C         -31.4533    1.3446   29.9244 C.ar    1  UNL1       -0.0043
     12 C         -30.8565    1.5531   28.7362 C.ar    1  UNL1       -0.0221
     13 C         -29.7215    0.8825   28.3822 C.ar    1  UNL1       -0.0082
     14 C         -23.4626    2.1556   27.5834 C.3     1  UNL1        0.4186
     15 F         -23.6262    3.2419   27.0415 F       1  UNL1       -0.1659
     16 F         -22.5841    1.3981   26.7512 F       1  UNL1       -0.1659
     17 F         -22.6845    2.3976   28.7597 F       1  UNL1       -0.1659
     18 C         -31.3776    2.6175   27.8137 C.3     1  UNL1        0.0333
     19 C         -31.4325    3.7619   28.1448 C.3     1  UNL1        0.0055
     20 C         -31.6794    2.1245   26.5021 C.3     1  UNL1        0.0835
     21 C         -31.9388    4.8288   27.2933 C.3     1  UNL1        0.0081
     22 C         -31.5393    0.8043   26.1211 C.ar    1  UNL1       -0.0192
     23 C         -32.2920    4.3772   25.9733 C.3     1  UNL1        0.0649
     24 C         -32.1291    3.0497   25.5739 C.2     1  UNL1        0.1546
     25 C         -32.4673    0.0058   26.2789 C.ar    1  UNL1       -0.0042
     26 C         -30.6183    0.5773   24.9929 C.ar    1  UNL1       -0.0257
     27 C         -30.4589   -0.7069   24.4994 C.ar    1  UNL1       -0.0046
     28 C         -32.3946   -1.3975   25.8617 C.ar    1  UNL1       -0.0003
     29 C         -31.4077   -1.7013   24.9314 C.ar    1  UNL1       -0.0003
     30 C         -29.3523    1.2810   24.8345 C.3     1  UNL1        0.0261
     31 C         -29.2766    2.0982   23.6037 C.3     1  UNL1        0.0050
     32 O         -32.4793    2.7182   24.4065 O.2     1  UNL1       -0.2957
@<TRIPOS>BOND
     1     1     2    1
     2     1     8    1
     3     5    14    1
     4    14    15    1
     5    14    16    1
     6    14    17    1
     7    12    18    1
     8    18    19    1
     9    18    20    1
    10    20    22    1
    11    21    23    1
    12    20    24    1
    13    23    24    1
    14    26    30    1
    15    30    31    1
    16    24    32    2
    17    19    21    1
    18     2     3   ar
    19     3     4   ar
    20     4     5   ar
    21     5     6   ar
    22     6     7   ar
    23     7     2   ar
    24    22    25   ar
    25    25    28   ar
    26    28    29   ar
    27    29    27   ar
    28    27    26   ar
    29    26    22   ar
    30     8     9   ar
    31     9    10   ar
    32    10    11   ar
    33    11    12   ar
    34    12    13   ar
    35    13     8   ar
