@<TRIPOS>MOLECULE
No_2160-gen_results/8p0m/2024-11-26-14-13-15/
 23 24 0 0 0
SMALL
GASTEIGER

@<TRIPOS>ATOM
      1 C         -28.0162   -0.8135   28.8779 C.ar    1  UNL1        0.0370
      2 C         -27.0636   -0.1190   28.6079 C.ar    1  UNL1        0.0046
      3 C         -25.7647   -0.3897   29.0360 C.ar    1  UNL1        0.0180
      4 C         -25.5296   -1.5302   29.9014 C.ar    1  UNL1        0.0046
      5 C         -26.6888   -2.2893   30.1810 C.ar    1  UNL1        0.0370
      6 C         -27.8727   -1.9508   29.7373 C.ar    1  UNL1        0.1397
      7 O         -28.9304   -2.7298   30.1154 O.3     1  UNL1       -0.4632
      8 C         -24.5394    0.4211   28.7421 C.ar    1  UNL1        0.0858
      9 N         -23.3807    0.0737   29.0489 N.ar    1  UNL1       -0.2111
     10 C         -22.2474    0.7245   28.5808 C.ar    1  UNL1        0.2566
     11 C         -24.6461    1.5938   27.9902 C.ar    1  UNL1        0.0399
     12 C         -23.5889    2.3019   27.4825 C.ar    1  UNL1        0.1035
     13 N         -22.3554    1.8337   27.8344 N.ar    1  UNL1       -0.2096
     14 C         -30.0466   -2.2236   30.5826 C.3     1  UNL1        0.2897
     15 C         -31.0877   -2.9067   30.2448 C.2     1  UNL1        0.4084
     16 O         -32.0080   -2.9260   30.7402 O.co2   1  UNL1       -0.2412
     17 O         -30.9455   -3.9815   29.4287 O.co2   1  UNL1       -0.2412
     18 N         -21.0267    0.2397   28.8975 N.pl3   1  UNL1       -0.0860
     19 C         -29.8988   -2.0075   32.1015 C.2     1  UNL1        0.0283
     20 C         -29.2973   -0.7892   32.4532 C.2     1  UNL1       -0.0008
     21 C         -29.4299    0.3025   31.9444 C.2     1  UNL1       -0.0048
     22 C         -28.7374    1.4936   32.3567 C.2     1  UNL1       -0.0258
     23 C         -27.8533    1.3855   33.4206 C.3     1  UNL1        0.0307
@<TRIPOS>BOND
     1     6     7    1
     2     3     8    1
     3     7    14    1
     4    14    15    1
     5    15    16   ar
     6    15    17   ar
     7    10    18    1
     8    14    19    1
     9    19    20    2
    10    20    21    1
    11    21    22    2
    12    22    23    1
    13     1     2   ar
    14     2     3   ar
    15     3     4   ar
    16     4     5   ar
    17     5     6   ar
    18     6     1   ar
    19     8     9   ar
    20     9    10   ar
    21    10    13   ar
    22    13    12   ar
    23    12    11   ar
    24    11     8   ar
