@<TRIPOS>MOLECULE
No_2161-gen_results/8p0m/2024-11-26-14-13-15/
 21 22 0 0 0
SMALL
GASTEIGER

@<TRIPOS>ATOM
      1 C         -28.0162   -0.8135   28.8779 C.ar    1  UNL1        0.0270
      2 C         -27.0636   -0.1189   28.6079 C.ar    1  UNL1        0.1399
      3 C         -26.9287    1.1713   29.0083 C.ar    1  UNL1        0.0296
      4 C         -27.9560    1.7411   29.7840 C.ar    1  UNL1        0.0020
      5 C         -29.0569   -0.3271   29.7466 C.ar    1  UNL1       -0.0002
      6 C         -30.1704   -1.1582   30.1327 C.3     1  UNL1        0.1227
      7 C         -28.9772    0.9577   30.1786 C.ar    1  UNL1       -0.0025
      8 N         -30.0276   -2.3477   30.5096 N.am    1  UNL1       -0.1843
      9 C         -31.5256   -0.7065   30.0270 C.3     1  UNL1        0.0702
     10 C         -32.5381   -1.5840   30.3215 C.3     1  UNL1        0.1901
     11 C         -30.9638   -3.2682   30.8196 C.2     1  UNL1        0.3410
     12 N         -32.2362   -2.8335   30.7326 N.am    1  UNL1       -0.1669
     13 O         -30.7005   -4.4301   31.2201 O.2     1  UNL1       -0.2491
     14 F         -26.0402   -0.5942   27.8211 F       1  UNL1       -0.2042
     15 N         -33.8112   -1.2578   30.3976 N.pl3   1  UNL1       -0.2162
     16 C         -34.1452    0.0259   30.7883 C.2     1  UNL1        0.0820
     17 C         -34.1649    0.8582   29.7173 C.2     1  UNL1        0.0175
     18 C         -34.3089    2.2818   30.0154 C.2     1  UNL1        0.0014
     19 C         -34.2055    3.2635   28.9785 C.2     1  UNL1        0.0000
     20 C         -33.9571    2.7794   27.6744 C.2     1  UNL1        0.0000
     21 C         -33.7606    1.4530   27.4348 C.2     1  UNL1        0.0000
@<TRIPOS>BOND
     1     5     6    1
     2     6     9    1
     3     8    11   am
     4    10    12    1
     5    11    12   am
     6    11    13    2
     7     2    14    1
     8    10    15    1
     9    15    16    1
    10    16    17    2
    11    17    18    1
    12    18    19    2
    13    19    20    1
    14    20    21    2
    15     8     6    1
    16     9    10    1
    17     1     2   ar
    18     2     3   ar
    19     3     4   ar
    20     4     7   ar
    21     7     5   ar
    22     5     1   ar
