@<TRIPOS>MOLECULE
No_2162-gen_results/8p0m/2024-11-26-14-13-15/
 18 19 0 0 0
SMALL
GASTEIGER

@<TRIPOS>ATOM
      1 O         -28.1229   -1.3353   28.4874 O.2     1  UNL1       -0.2702
      2 C         -28.5208   -0.4363   29.0779 C.2     1  UNL1        0.2753
      3 C         -29.6977    0.0507   28.9764 C.3     1  UNL1        0.2425
      4 N         -27.5405    0.1756   30.0054 N.am    1  UNL1       -0.2052
      5 C         -27.8890    1.2664   30.8176 C.2     1  UNL1        0.2353
      6 C         -30.1166    1.1818   29.8399 C.3     1  UNL1        0.0628
      7 C         -29.1567    1.7558   30.7136 C.3     1  UNL1        0.0903
      8 C         -26.2234   -0.3970   30.1105 C.ar    1  UNL1        0.0607
      9 C         -25.8565   -0.8456   31.1082 C.ar    1  UNL1        0.0153
     10 C         -24.4769   -1.3808   31.2566 C.ar    1  UNL1        0.0013
     11 C         -23.6116   -1.4709   30.1702 C.ar    1  UNL1        0.0001
     12 C         -24.1249   -0.9433   28.9563 C.ar    1  UNL1        0.0013
     13 C         -25.4399   -0.4197   28.8979 C.ar    1  UNL1        0.0153
     14 O         -27.0410    1.7417   31.5783 O.2     1  UNL1       -0.2741
     15 O         -30.5657   -0.4632   28.1669 O.2     1  UNL1       -0.4672
     16 C         -31.7126    0.1506   27.8084 C.2     1  UNL1        0.1682
     17 C         -31.7773    1.0576   27.1422 C.2     1  UNL1        0.0142
     18 C         -33.0217    1.6845   26.7095 C.3     1  UNL1        0.0341
@<TRIPOS>BOND
     1     1     2    2
     2     2     3    1
     3     2     4   am
     4     4     5   am
     5     5     7    1
     6     6     7    1
     7     4     8    1
     8     5    14    2
     9     3    15    1
    10    15    16    1
    11    16    17    2
    12    17    18    1
    13     3     6    1
    14     8     9   ar
    15     9    10   ar
    16    10    11   ar
    17    11    12   ar
    18    12    13   ar
    19    13     8   ar
