@<TRIPOS>MOLECULE
No_2163-gen_results/8p0m/2024-11-26-14-13-15/
 11 11 0 0 0
SMALL
GASTEIGER

@<TRIPOS>ATOM
      1 F         -28.0727   -1.2542   28.5316 F       1  UNL1       -0.2035
      2 C         -27.0607   -0.6291   28.8721 C.ar    1  UNL1        0.1494
      3 C         -27.1759    0.6153   29.3693 C.ar    1  UNL1        0.0916
      4 C         -25.7305   -1.2692   28.7241 C.ar    1  UNL1        0.0440
      5 C         -24.5526   -0.5078   29.0132 C.ar    1  UNL1        0.0896
      6 C         -25.9465    1.3753   29.6814 C.ar    1  UNL1        0.1765
      7 C         -24.6746    0.8198   29.5066 C.ar    1  UNL1        0.1785
      8 F         -23.5404    1.2741   29.9021 F       1  UNL1       -0.2009
      9 CL        -23.0040   -1.1837   28.9323 Cl      1  UNL1       -0.0798
     10 F         -25.9924    2.6108   30.1854 F       1  UNL1       -0.2012
     11 BR        -28.7988    1.4402   29.5527 Br      1  UNL1       -0.0442
@<TRIPOS>BOND
     1     1     2    1
     2     7     8    1
     3     5     9    1
     4     6    10    1
     5     3    11    1
     6     2     3   ar
     7     3     6   ar
     8     6     7   ar
     9     7     5   ar
    10     5     4   ar
    11     4     2   ar
