@<TRIPOS>MOLECULE
No_2165-gen_results/8p0m/2024-11-26-14-13-15/
 21 24 0 0 0
SMALL
GASTEIGER

@<TRIPOS>ATOM
      1 C         -28.0162   -0.8135   28.8779 C.ar    1  UNL1        0.0013
      2 C         -27.0636   -0.1189   28.6079 C.ar    1  UNL1        0.0001
      3 C         -27.0010    0.6913   27.4910 C.ar    1  UNL1        0.0012
      4 C         -28.1373    0.7363   26.6350 C.ar    1  UNL1        0.0130
      5 C         -29.2360    0.0765   27.0690 C.ar    1  UNL1        0.0478
      6 C         -29.2177   -0.6429   28.1747 C.ar    1  UNL1        0.0145
      7 N         -30.4585    0.0647   26.4120 N.pl3   1  UNL1       -0.3088
      8 C         -30.5457   -0.1345   25.1409 C.3     1  UNL1        0.0771
      9 C         -31.6851    0.2692   27.1043 C.3     1  UNL1        0.0907
     10 C         -25.6859   -0.2198   29.3882 C.ar    1  UNL1        0.0000
     11 C         -25.4109   -1.0164   30.0643 C.ar    1  UNL1        0.0000
     12 C         -24.1124   -1.1297   30.8325 C.ar    1  UNL1        0.0000
     13 C         -23.2384   -0.3958   30.5420 C.ar    1  UNL1        0.0000
     14 C         -24.4633    0.6490   29.0741 C.ar    1  UNL1        0.0000
     15 C         -23.3462    0.6144   29.6333 C.ar    1  UNL1        0.0000
     16 C         -32.4701    0.7665   26.7102 C.3     1  UNL1        0.0215
     17 C         -29.4377   -0.5278   24.3671 C.3     1  UNL1        0.0457
     18 C         -31.7527    0.0671   24.4492 C.3     1  UNL1        0.0201
     19 C         -32.8527    0.5054   25.2291 C.3     1  UNL1        0.0035
     20 C         -28.1936    0.0937   24.5119 C.2     1  UNL1       -0.0244
     21 C         -27.4608    0.3418   25.6090 C.2     1  UNL1       -0.0033
@<TRIPOS>BOND
     1     5     7    1
     2     7     8    1
     3     7     9    1
     4     2    10    1
     5     8    18    1
     6    16    19    1
     7    17    20    1
     8     4    21    1
     9    20    21    2
    10    17     8    1
    11    18    19    1
    12    16     9    1
    13     1     2   ar
    14     2     3   ar
    15     3     4   ar
    16     4     5   ar
    17     5     6   ar
    18     6     1   ar
    19    10    11   ar
    20    11    12   ar
    21    12    13   ar
    22    13    15   ar
    23    15    14   ar
    24    14    10   ar
