@<TRIPOS>MOLECULE
No_2166-gen_results/8p0m/2024-11-26-14-13-15/
 35 38 0 0 0
SMALL
GASTEIGER

@<TRIPOS>ATOM
      1 C         -28.0162   -0.8135   28.8779 C.ar    1  UNL1        0.1412
      2 C         -27.0636   -0.1189   28.6079 C.ar    1  UNL1        0.0696
      3 C         -27.0010    0.6913   27.4910 C.ar    1  UNL1        0.1768
      4 C         -28.1373    0.7363   26.6350 C.ar    1  UNL1        0.1661
      5 C         -29.2360    0.0765   27.0690 C.ar    1  UNL1        0.0394
      6 C         -29.2177   -0.6429   28.1747 C.ar    1  UNL1        0.0401
      7 C         -30.5230    0.0808   26.3695 C.ar    1  UNL1        0.0063
      8 C         -31.5258   -0.5092   26.8653 C.ar    1  UNL1        0.0377
      9 C         -31.4431   -1.2187   28.0906 C.ar    1  UNL1        0.1491
     10 C         -30.3267   -1.3002   28.7343 C.ar    1  UNL1        0.0407
     11 F         -25.8512    1.3407   27.1028 F       1  UNL1       -0.2009
     12 O         -27.9127   -1.5277   30.0745 O.3     1  UNL1       -0.4713
     13 C         -27.8021   -1.0935   31.3243 C.3     1  UNL1        0.2525
     14 O         -32.5862   -1.8471   28.5318 O.3     1  UNL1       -0.4166
     15 O         -28.0796    1.4971   25.5490 O.3     1  UNL1       -0.4692
     16 C         -33.1569   -2.7312   28.0589 C.2     1  UNL1        0.4227
     17 C         -32.6295   -3.9521   28.0299 C.2     1  UNL1        0.4206
     18 O         -31.8938   -4.4029   28.7834 O.3     1  UNL1       -0.4106
     19 O         -32.8419   -4.7289   26.9290 O.2     1  UNL1       -0.2375
     20 O         -34.3188   -2.4889   27.5503 O.2     1  UNL1       -0.2371
     21 C         -28.4087    2.6544   25.5763 C.3     1  UNL1        0.2526
     22 C         -31.1423   -5.6815   28.7618 C.3     1  UNL1        0.3440
     23 C         -30.4740   -5.9281   29.9816 C.ar    1  UNL1        0.0497
     24 C         -29.7150   -4.8265   30.5082 C.ar    1  UNL1        0.0018
     25 C         -29.0107   -4.9992   31.7511 C.ar    1  UNL1       -0.0001
     26 C         -29.3437   -6.1058   32.4908 C.ar    1  UNL1       -0.0000
     27 C         -30.1401   -7.1332   31.9673 C.ar    1  UNL1       -0.0001
     28 C         -30.7430   -6.9712   30.7761 C.ar    1  UNL1        0.0020
     29 C         -31.6203   -7.8832   30.1472 C.ar    1  UNL1       -0.0001
     30 C         -31.6745   -8.9343   30.1884 C.ar    1  UNL1       -0.0000
     31 C         -32.3568   -9.9301   29.6596 C.ar    1  UNL1       -0.0000
     32 C         -33.2898   -9.5034   28.6626 C.ar    1  UNL1       -0.0000
     33 C         -33.3600   -8.1394   28.4347 C.ar    1  UNL1       -0.0000
     34 C         -32.4986   -7.2849   29.1463 C.ar    1  UNL1       -0.0000
     35 O         -31.2751   -6.4345   27.9913 O.3     1  UNL1       -0.1692
@<TRIPOS>BOND
     1     3    11    1
     2     1    12    1
     3    12    13    1
     4     9    14    1
     5     4    15    1
     6    14    16    1
     7    16    17    1
     8    17    18    1
     9    17    19    2
    10    16    20    2
    11    15    21    1
    12    18    22    1
    13    22    23    1
    14    28    29    1
    15    22    35    1
    16    29    30   ar
    17    30    31   ar
    18    31    32   ar
    19    32    33   ar
    20    33    34   ar
    21    34    29   ar
    22     1     2   ar
    23     2     3   ar
    24     3     4   ar
    25     4     5   ar
    26     6     1   ar
    27    23    24   ar
    28    24    25   ar
    29    25    26   ar
    30    26    27   ar
    31    27    28   ar
    32    28    23   ar
    33     5     6   ar
    34     6    10   ar
    35    10     9   ar
    36     9     8   ar
    37     8     7   ar
    38     7     5   ar
