@<TRIPOS>MOLECULE
No_217-gen_results/8p0m/2024-11-26-14-13-15/
 35 39 0 0 0
SMALL
GASTEIGER

@<TRIPOS>ATOM
      1 C         -28.0162   -0.8135   28.8779 C.ar    1  UNL1        0.0521
      2 C         -28.4690   -0.7850   29.8287 C.ar    1  UNL1        0.1465
      3 C         -26.5455   -0.8762   28.8500 C.ar    1  UNL1        0.0529
      4 C         -25.8041   -1.0324   30.0571 C.ar    1  UNL1       -0.0028
      5 C         -27.9437   -0.9869   31.2075 C.ar    1  UNL1        0.0373
      6 C         -26.5825   -1.0386   31.2231 C.ar    1  UNL1        0.0005
      7 O         -29.9267   -0.7257   29.8772 O.3     1  UNL1       -0.4535
      8 C         -30.5050   -0.0237   28.9624 C.ar    1  UNL1        0.1453
      9 C         -31.3773   -0.3992   28.1172 C.ar    1  UNL1        0.0374
     10 C         -31.9394    0.3228   27.0412 C.ar    1  UNL1        0.0070
     11 C         -31.4912    1.6578   26.9464 C.ar    1  UNL1        0.0716
     12 C         -30.0152    1.3636   28.7408 C.ar    1  UNL1        0.0374
     13 C         -30.5425    2.1519   27.8151 C.ar    1  UNL1        0.0070
     14 C         -24.4199   -1.2448   30.2636 C.3     1  UNL1        0.0663
     15 C         -23.4598   -0.1092   30.1226 C.ar    1  UNL1       -0.0166
     16 C         -22.3549   -0.1192   29.3283 C.ar    1  UNL1       -0.0039
     17 C         -21.6779    1.0465   28.9203 C.ar    1  UNL1       -0.0003
     18 C         -22.5294    2.2305   28.8236 C.ar    1  UNL1       -0.0000
     19 C         -23.7281    2.2830   29.5802 C.ar    1  UNL1       -0.0003
     20 C         -24.2474    1.1656   30.2500 C.ar    1  UNL1       -0.0039
     21 N         -25.7804   -0.7587   27.6741 N.pl3   1  UNL1       -0.2615
     22 C         -26.1107    0.0548   26.6380 C.ar    1  UNL1        0.0535
     23 C         -25.2788    0.0902   25.5016 C.ar    1  UNL1        0.0149
     24 C         -27.1395    1.0148   26.6731 C.ar    1  UNL1        0.0149
     25 C         -27.3879    1.8922   25.6256 C.ar    1  UNL1        0.0013
     26 C         -26.7653    1.7456   24.5256 C.ar    1  UNL1        0.0001
     27 C         -25.6146    0.8867   24.4380 C.ar    1  UNL1        0.0013
     28 C         -32.1331    2.5347   25.9052 C.3     1  UNL1        0.4186
     29 F         -31.4647    2.6408   24.9120 F       1  UNL1       -0.1659
     30 F         -32.2625    3.7968   26.4433 F       1  UNL1       -0.1659
     31 F         -33.3742    2.1341   25.5825 F       1  UNL1       -0.1659
     32 C         -24.7209   -1.7315   27.4436 C.3     1  UNL1        0.2445
     33 C         -23.9668   -2.4529   29.3527 C.3     1  UNL1        0.1522
     34 O         -23.9502   -2.3038   28.1227 O.3     1  UNL1       -0.3334
     35 C         -24.1293   -1.7782   31.7887 C.3     1  UNL1        0.0113
@<TRIPOS>BOND
     1     2     7    1
     2     7     8    1
     3     4    14    1
     4    14    15    1
     5     3    21    1
     6    21    22    1
     7    11    28    1
     8    28    29    1
     9    28    30    1
    10    28    31    1
    11    21    32    1
    12    14    33    1
    13    32    34    1
    14    33    34    1
    15    14    35    1
    16    15    16   ar
    17    16    17   ar
    18    17    18   ar
    19    18    19   ar
    20    19    20   ar
    21    20    15   ar
    22    22    23   ar
    23    23    27   ar
    24    27    26   ar
    25    26    25   ar
    26    25    24   ar
    27    24    22   ar
    28     1     2   ar
    29     2     5   ar
    30     5     6   ar
    31     6     4   ar
    32     4     3   ar
    33     3     1   ar
    34     8     9   ar
    35     9    10   ar
    36    10    11   ar
    37    11    13   ar
    38    13    12   ar
    39    12     8   ar
