@<TRIPOS>MOLECULE
No_2170-gen_results/8p0m/2024-11-26-14-13-15/
 27 31 0 0 0
SMALL
GASTEIGER

@<TRIPOS>ATOM
      1 C         -28.0162   -0.8135   28.8779 C.ar    1  UNL1        0.0175
      2 C         -27.0636   -0.1189   28.6079 C.ar    1  UNL1        0.0633
      3 C         -26.9716    0.7139   27.5060 C.ar    1  UNL1        0.0550
      4 C         -28.1053    0.7744   26.6421 C.ar    1  UNL1        0.0112
      5 C         -29.2041    0.1179   27.0477 C.ar    1  UNL1        0.0800
      6 C         -29.2127   -0.6088   28.1281 C.ar    1  UNL1        0.0081
      7 C         -25.7106    1.4519   27.1380 C.ar    1  UNL1        0.1984
      8 C         -24.6052    0.9253   27.6902 C.ar    1  UNL1        0.0578
      9 C         -23.3376    1.6509   27.5494 C.ar    1  UNL1        0.0048
     10 C         -22.1760    1.2278   28.2868 C.ar    1  UNL1        0.0033
     11 C         -22.1814    0.0854   29.0261 C.ar    1  UNL1        0.0390
     12 C         -23.3607   -0.6934   29.1008 C.ar    1  UNL1        0.1611
     13 C         -24.5306   -0.2411   28.4874 C.ar    1  UNL1        0.0982
     14 N         -25.7679   -0.5942   29.1071 N.ar    1  UNL1       -0.3203
     15 C         -25.7420   -1.5598   30.1612 C.3     1  UNL1        0.1359
     16 O         -25.7469    2.3613   26.2873 O.2     1  UNL1       -0.2865
     17 C         -30.5325    0.2562   26.4584 C.2     1  UNL1        0.3878
     18 O         -31.4380   -0.4680   26.5655 O.co2   1  UNL1       -0.2406
     19 O         -30.6545    1.2596   25.5401 O.co2   1  UNL1       -0.2406
     20 C         -25.2214   -2.7519   29.7351 C.ar    1  UNL1        0.0382
     21 C         -25.8048   -3.5098   28.6930 C.ar    1  UNL1        0.0008
     22 C         -25.1453   -4.7804   28.6043 C.ar    1  UNL1        0.0032
     23 C         -23.8543   -5.0126   29.0510 C.ar    1  UNL1        0.0452
     24 C         -23.2000   -3.9637   29.7092 C.ar    1  UNL1        0.2296
     25 C         -23.8748   -2.8737   30.1422 C.ar    1  UNL1        0.1818
     26 O         -23.2061   -1.7163   29.6384 O.3     1  UNL1       -0.4491
     27 O         -22.0498   -3.9081   29.3443 O.3     1  UNL1       -0.2833
@<TRIPOS>BOND
     1     3     7   ar
     2     7     8   ar
     3     2    14   ar
     4    13    14   ar
     5    14    15    1
     6     7    16    2
     7     5    17    1
     8    17    18   ar
     9    17    19   ar
    10    15    20    1
    11    12    26    1
    12    25    26    1
    13    24    27    1
    14     1     2   ar
    15     2     3   ar
    16     3     4   ar
    17     4     5   ar
    18     5     6   ar
    19     6     1   ar
    20     8     9   ar
    21     9    10   ar
    22    10    11   ar
    23    11    12   ar
    24    12    13   ar
    25    13     8   ar
    26    20    21   ar
    27    21    22   ar
    28    22    23   ar
    29    23    24   ar
    30    24    25   ar
    31    25    20   ar
