@<TRIPOS>MOLECULE
No_2172-gen_results/8p0m/2024-11-26-14-13-15/
 9 9 0 0 0
SMALL
GASTEIGER

@<TRIPOS>ATOM
      1 C         -28.0162   -0.8135   28.8779 C.ar    1  UNL1        0.2237
      2 C         -27.0636   -0.1189   28.6079 C.ar    1  UNL1        0.1788
      3 C         -27.0010    0.6913   27.4910 C.ar    1  UNL1        0.0338
      4 C         -28.1373    0.7363   26.6350 C.ar    1  UNL1        0.0139
      5 C         -29.2360    0.0765   27.0690 C.ar    1  UNL1        0.0610
      6 C         -29.2177   -0.6429   28.1747 C.ar    1  UNL1        0.0558
      7 O         -28.0326   -1.5744   30.0419 O.3     1  UNL1       -0.2841
      8 CL        -30.6143    0.1621   26.0733 Cl      1  UNL1       -0.0821
      9 F         -25.8537   -0.1760   29.3744 F       1  UNL1       -0.2008
@<TRIPOS>BOND
     1     1     7    1
     2     5     8    1
     3     2     9    1
     4     1     2   ar
     5     2     3   ar
     6     3     4   ar
     7     4     5   ar
     8     5     6   ar
     9     6     1   ar
