@<TRIPOS>MOLECULE
No_2173-gen_results/8p0m/2024-11-26-14-13-15/
 18 18 0 0 0
SMALL
GASTEIGER

@<TRIPOS>ATOM
      1 C         -28.0162   -0.8135   28.8779 C.3     1  UNL1        0.1486
      2 C         -28.4690   -0.7850   29.8287 C.3     1  UNL1        0.2089
      3 C         -26.5042   -0.7777   28.8766 C.3     1  UNL1        0.0337
      4 C         -25.8305   -1.6808   29.6849 C.3     1  UNL1        0.0230
      5 C         -28.1490   -1.8854   30.9031 C.3     1  UNL1        0.1846
      6 C         -26.6460   -1.9561   31.0330 C.3     1  UNL1        0.0370
      7 O         -28.6274   -1.7308   32.1858 O.3     1  UNL1       -0.2203
      8 O         -30.0168   -0.9269   29.8771 O.3     1  UNL1       -0.2178
      9 C         -24.6534   -2.3030   29.3807 C.3     1  UNL1        0.1153
     10 CL        -23.2314   -1.9630   29.6185 Cl      1  UNL1       -0.1120
     11 C         -24.7982   -3.7715   28.8527 C.3     1  UNL1        0.2093
     12 O         -28.3690    0.3703   28.0507 O.3     1  UNL1       -0.3456
     13 F         -23.8054   -4.2911   28.3535 F       1  UNL1       -0.2330
     14 C         -28.0579    0.6493   26.9195 C.3     1  UNL1        0.2122
     15 C         -26.8260    1.1836   26.6946 C.3     1  UNL1        0.2195
     16 O         -26.2325    1.7612   27.5592 O.3     1  UNL1       -0.2172
     17 C         -28.9707    0.4607   25.8817 C.2     1  UNL1        0.2393
     18 O         -28.5539    0.2207   24.7181 O.2     1  UNL1       -0.2855
@<TRIPOS>BOND
     1     1     2    1
     2     1     3    1
     3     3     4    1
     4     2     5    1
     5     4     6    1
     6     5     6    1
     7     5     7    1
     8     2     8    1
     9     4     9    1
    10     9    10    1
    11     9    11    1
    12     1    12    1
    13    11    13    1
    14    12    14    1
    15    14    15    1
    16    15    16    1
    17    14    17    1
    18    17    18    2
