@<TRIPOS>MOLECULE
No_2174-gen_results/8p0m/2024-11-26-14-13-15/
 20 22 0 0 0
SMALL
GASTEIGER

@<TRIPOS>ATOM
      1 C         -28.0162   -0.8135   28.8779 C.ar    1  UNL1        0.0973
      2 C         -28.4690   -0.7850   29.8287 C.ar    1  UNL1        0.2010
      3 C         -28.1960    0.3478   28.0550 C.ar    1  UNL1        0.0554
      4 C         -29.0191    1.3501   28.3782 C.ar    1  UNL1        0.0149
      5 C         -29.6249    1.2683   29.6012 C.ar    1  UNL1        0.0046
      6 C         -29.3791    0.1469   30.3923 C.ar    1  UNL1        0.0423
      7 N         -27.5043    0.3662   26.7958 N.pl3   1  UNL1       -0.3016
      8 C         -27.7519    0.6710   25.7664 C.3     1  UNL1        0.1125
      9 C         -26.0240    0.0230   26.8988 C.3     1  UNL1        0.1179
     10 C         -25.3509   -0.1494   28.0855 C.ar    1  UNL1        0.0017
     11 C         -24.0228   -0.1311   28.1757 C.ar    1  UNL1       -0.0025
     12 C         -23.2839   -0.4637   29.3654 C.ar    1  UNL1       -0.0003
     13 C         -23.9660   -0.8569   30.4867 C.ar    1  UNL1        0.0001
     14 C         -25.3306   -0.9021   30.4985 C.ar    1  UNL1        0.0040
     15 C         -25.9849   -0.5769   29.3642 C.ar    1  UNL1        0.0430
     16 P         -27.0612   -0.1688   29.4513 P.3     1  UNL1        0.2061
     17 O         -27.5244    1.3288   29.3629 O.3     1  UNL1       -0.3143
     18 C         -26.6216    2.2867   28.7724 C.3     1  UNL1        0.1812
     19 O         -28.6283   -2.1044   30.4689 O.3     1  UNL1       -0.2864
     20 O         -27.4933   -0.1649   31.0604 O.3     1  UNL1       -0.1768
@<TRIPOS>BOND
     1     3     7    1
     2     7     8    1
     3     7     9    1
     4     9    10    1
     5     1    16    1
     6    15    16    1
     7    16    17    1
     8    17    18    1
     9     2    19    1
    10    16    20    1
    11     1     2   ar
    12     2     6   ar
    13     6     5   ar
    14     5     4   ar
    15     4     3   ar
    16     3     1   ar
    17    10    11   ar
    18    11    12   ar
    19    12    13   ar
    20    13    14   ar
    21    14    15   ar
    22    15    10   ar
