@<TRIPOS>MOLECULE
No_2176-gen_results/8p0m/2024-11-26-14-13-15/
 12 12 0 0 0
SMALL
GASTEIGER

@<TRIPOS>ATOM
      1 C         -28.0162   -0.8135   28.8779 C.ar    1  UNL1        0.0161
      2 C         -28.4690   -0.7850   29.8287 C.ar    1  UNL1        0.0723
      3 C         -26.5042   -0.7777   28.8766 C.ar    1  UNL1        0.0681
      4 C         -25.8103   -0.8531   30.1028 C.ar    1  UNL1        0.0682
      5 C         -27.9906   -0.8916   31.2257 C.ar    1  UNL1        0.0048
      6 C         -26.6042   -0.8676   31.2652 C.ar    1  UNL1        0.0122
      7 C         -30.0739   -0.8360   29.8615 C.3     1  UNL1        0.4186
      8 F         -30.5916   -1.8281   30.0957 F       1  UNL1       -0.1659
      9 F         -30.4984    0.1717   30.7084 F       1  UNL1       -0.1659
     10 F         -30.4146   -0.4151   28.6443 F       1  UNL1       -0.1659
     11 CL        -25.5096   -0.7120   27.4833 Cl      1  UNL1       -0.0814
     12 CL        -24.1349   -0.7866   30.2346 Cl      1  UNL1       -0.0814
@<TRIPOS>BOND
     1     2     7    1
     2     7     8    1
     3     7     9    1
     4     7    10    1
     5     3    11    1
     6     4    12    1
     7     1     2   ar
     8     2     5   ar
     9     5     6   ar
    10     6     4   ar
    11     4     3   ar
    12     3     1   ar
