@<TRIPOS>MOLECULE
No_2177-gen_results/8p0m/2024-11-26-14-13-15/
 22 24 0 0 0
SMALL
GASTEIGER

@<TRIPOS>ATOM
      1 C         -28.0162   -0.8135   28.8779 C.ar    1  UNL1        0.0296
      2 C         -28.4690   -0.7850   29.8287 C.ar    1  UNL1        0.1401
      3 C         -27.1356    0.2359   28.5352 C.ar    1  UNL1        0.0024
      4 C         -26.8745    1.2825   29.3982 C.ar    1  UNL1        0.0001
      5 C         -28.3613    0.1987   30.9244 C.ar    1  UNL1        0.0296
      6 C         -27.5277    1.2234   30.6356 C.ar    1  UNL1        0.0023
      7 C         -26.3987    0.2949   27.2279 C.ar    1  UNL1        0.0064
      8 C         -26.9022    0.7280   26.2134 C.ar    1  UNL1        0.0798
      9 C         -26.1747    0.6364   24.9259 C.ar    1  UNL1        0.0066
     10 C         -25.0769   -0.2068   27.2393 C.ar    1  UNL1        0.0002
     11 C         -24.2655   -0.1217   26.1499 C.ar    1  UNL1        0.0000
     12 C         -24.8746    0.2819   24.9272 C.ar    1  UNL1        0.0002
     13 C         -24.4039   -0.6588   28.5025 C.ar    1  UNL1        0.0000
     14 C         -24.2753   -1.8858   28.9141 C.ar    1  UNL1        0.0000
     15 C         -23.6442   -2.2006   30.1283 C.ar    1  UNL1        0.0000
     16 C         -23.3671   -1.1431   31.0294 C.ar    1  UNL1        0.0000
     17 C         -24.0405    0.3673   29.5255 C.ar    1  UNL1        0.0000
     18 C         -23.5117    0.1306   30.7006 C.ar    1  UNL1        0.0000
     19 C         -28.3897    1.0641   26.1014 C.2     1  UNL1        0.3878
     20 O         -28.6274    2.2129   26.0461 O.co2   1  UNL1       -0.2406
     21 O         -29.2606    0.1701   26.2052 O.co2   1  UNL1       -0.2406
     22 F         -29.3831   -1.8295   30.2536 F       1  UNL1       -0.2042
@<TRIPOS>BOND
     1     3     7    1
     2    10    13    1
     3     8    19    1
     4    19    20   ar
     5    19    21   ar
     6     2    22    1
     7    13    14   ar
     8    14    15   ar
     9    15    16   ar
    10    16    18   ar
    11    18    17   ar
    12    17    13   ar
    13     1     2   ar
    14     2     5   ar
    15     5     6   ar
    16     6     4   ar
    17     4     3   ar
    18     3     1   ar
    19     7     8   ar
    20     8     9   ar
    21     9    12   ar
    22    12    11   ar
    23    11    10   ar
    24    10     7   ar
