@<TRIPOS>MOLECULE
No_2178-gen_results/8p0m/2024-11-26-14-13-15/
 14 15 0 0 0
SMALL
GASTEIGER

@<TRIPOS>ATOM
      1 C         -28.0162   -0.8135   28.8779 C.3     1  UNL1        0.0991
      2 C         -27.0636   -0.1189   28.6079 C.ar    1  UNL1       -0.0061
      3 C         -26.9287    1.1713   29.0083 C.ar    1  UNL1       -0.0021
      4 C         -25.7702    2.0341   28.6884 C.ar    1  UNL1        0.0111
      5 C         -24.7141    1.4431   27.9188 C.ar    1  UNL1        0.0577
      6 C         -24.8590    0.0783   27.5836 C.ar    1  UNL1        0.0111
      7 C         -25.9647   -0.6606   27.9164 C.ar    1  UNL1       -0.0021
      8 N         -29.1701   -0.2984   28.9471 N.3     1  UNL1       -0.2690
      9 C         -29.7216    0.3727   28.0429 C.3     1  UNL1        0.0724
     10 C         -31.1479    0.6367   28.1030 C.3     1  UNL1        0.0174
     11 C         -30.0914   -0.6581   30.0740 C.3     1  UNL1        0.0724
     12 C         -31.3996   -0.3576   30.1289 C.3     1  UNL1        0.0174
     13 C         -31.9084    0.3815   29.1151 C.3     1  UNL1        0.0029
     14 CL        -23.2879    2.2456   27.5491 Cl      1  UNL1       -0.0822
@<TRIPOS>BOND
     1     1     2    1
     2     1     8    1
     3     8     9    1
     4     8    11    1
     5    10    13    1
     6    12    13    1
     7     5    14    1
     8     9    10    1
     9    12    11    1
    10     2     3   ar
    11     3     4   ar
    12     4     5   ar
    13     5     6   ar
    14     6     7   ar
    15     7     2   ar
