@<TRIPOS>MOLECULE
No_218-gen_results/8p0m/2024-11-26-14-13-15/
 12 12 0 0 0
SMALL
GASTEIGER

@<TRIPOS>ATOM
      1 C         -28.0162   -0.8135   28.8779 C.ar    1  UNL1       -0.0039
      2 C         -28.4690   -0.7850   29.8287 C.ar    1  UNL1       -0.0003
      3 C         -26.5455   -0.8762   28.8500 C.ar    1  UNL1       -0.0178
      4 C         -25.6825   -0.7773   27.6829 C.3     1  UNL1        0.0523
      5 C         -27.9181   -1.0034   31.1877 C.ar    1  UNL1       -0.0000
      6 C         -26.5308   -1.0794   31.2463 C.ar    1  UNL1       -0.0003
      7 C         -25.7798   -1.0462   30.0905 C.ar    1  UNL1       -0.0039
      8 C         -25.2322    0.5793   27.3292 C.2     1  UNL1       -0.0214
      9 C         -23.9816    0.8698   27.7677 C.2     1  UNL1       -0.0046
     10 C         -23.1587    0.1099   28.6439 C.2     1  UNL1       -0.0049
     11 C         -21.8396    0.4760   28.9880 C.2     1  UNL1       -0.0258
     12 C         -21.2507    1.4941   28.2467 C.3     1  UNL1        0.0307
@<TRIPOS>BOND
     1     3     4    1
     2     4     8    1
     3     8     9    2
     4     9    10    1
     5    10    11    2
     6    11    12    1
     7     1     2   ar
     8     2     5   ar
     9     5     6   ar
    10     6     7   ar
    11     7     3   ar
    12     3     1   ar
