@<TRIPOS>MOLECULE
No_2180-gen_results/8p0m/2024-11-26-14-13-15/
 22 23 0 0 0
SMALL
GASTEIGER

@<TRIPOS>ATOM
      1 C         -28.0162   -0.8135   28.8779 C.ar    1  UNL1        0.0302
      2 C         -28.4690   -0.7850   29.8287 C.ar    1  UNL1        0.0137
      3 C         -26.5455   -0.8762   28.8500 C.ar    1  UNL1        0.1362
      4 C         -25.8041   -1.0324   30.0571 C.ar    1  UNL1        0.0064
      5 C         -26.5373   -1.0386   31.2171 C.ar    1  UNL1        0.0094
      6 C         -27.8929   -0.9601   31.1743 C.ar    1  UNL1        0.0575
      7 F         -25.8272   -0.8507   27.7418 F       1  UNL1       -0.2045
      8 CL        -28.7965   -0.9472   32.6498 Cl      1  UNL1       -0.0823
      9 C         -24.3497   -1.1441   30.0645 C.3     1  UNL1        0.0333
     10 C         -23.6688    0.0955   29.9811 C.3     1  UNL1        0.0313
     11 C         -23.3440    0.7219   28.8030 C.ar    1  UNL1       -0.0156
     12 C         -23.7181    1.9510   28.4136 C.ar    1  UNL1        0.0717
     13 C         -23.2278    2.4293   27.1225 C.ar    1  UNL1        0.0061
     14 C         -22.3055    1.6455   26.4685 C.ar    1  UNL1        0.0002
     15 C         -21.7342    0.6552   27.1077 C.ar    1  UNL1       -0.0003
     16 C         -22.1844    0.1136   28.2609 C.ar    1  UNL1       -0.0041
     17 C         -24.8525    2.6682   29.0340 C.2     1  UNL1        0.3409
     18 O         -25.3461    3.6397   28.5858 O.2     1  UNL1       -0.2449
     19 O         -25.1434    2.3344   30.2845 O.3     1  UNL1       -0.4454
     20 C         -26.3451    2.8831   30.8155 C.3     1  UNL1        0.2088
     21 C         -27.3809    2.9533   30.0378 C.3     1  UNL1        0.0475
     22 C         -27.2504    3.1381   28.7691 C.3     1  UNL1        0.0040
@<TRIPOS>BOND
     1     3     7    1
     2     6     8    1
     3     4     9    1
     4     9    10    1
     5    10    11    1
     6    12    17    1
     7    17    18    2
     8    17    19    1
     9    19    20    1
    10    20    21    1
    11    21    22    1
    12    11    12   ar
    13    12    13   ar
    14    13    14   ar
    15    14    15   ar
    16    15    16   ar
    17    16    11   ar
    18     1     2   ar
    19     2     6   ar
    20     6     5   ar
    21     5     4   ar
    22     4     3   ar
    23     3     1   ar
