@<TRIPOS>MOLECULE
No_2182-gen_results/8p0m/2024-11-26-14-13-15/
 35 38 0 0 0
SMALL
GASTEIGER

@<TRIPOS>ATOM
      1 O         -28.1229   -1.3353   28.4874 O.2     1  UNL1       -0.2696
      2 C         -27.4806   -0.4044   28.7094 C.2     1  UNL1        0.2528
      3 C         -26.3804   -0.0867   27.9394 C.ar    1  UNL1        0.0539
      4 N         -27.6664    0.4468   29.8988 N.am    1  UNL1       -0.2522
      5 C         -26.4086    0.8567   26.8802 C.ar    1  UNL1        0.0041
      6 C         -25.0824   -0.6970   28.1699 C.ar    1  UNL1        0.0045
      7 C         -25.2842    1.0488   26.0470 C.ar    1  UNL1        0.0001
      8 C         -23.8947   -0.3309   27.4777 C.ar    1  UNL1        0.0001
      9 C         -24.0554    0.5635   26.3806 C.ar    1  UNL1        0.0000
     10 C         -28.7845    0.1119   30.7794 C.3     1  UNL1        0.1204
     11 C         -26.8479    1.5206   30.2213 C.2     1  UNL1        0.0678
     12 C         -26.9446    2.2856   30.9227 C.2     1  UNL1        0.0159
     13 C         -27.2230    3.2276   31.2371 C.2     1  UNL1       -0.0026
     14 C         -27.8214    4.1525   30.1738 C.2     1  UNL1       -0.0176
     15 C         -27.4251    5.1405   29.7820 C.3     1  UNL1        0.0667
     16 C         -26.5148    5.3354   29.1877 C.2     1  UNL1       -0.0067
     17 C         -25.2943    5.5922   29.7914 C.2     1  UNL1       -0.0015
     18 C         -26.3862    5.2176   27.6972 C.2     1  UNL1        0.0378
     19 C         -27.6929    1.4898   26.5420 C.ar    1  UNL1       -0.0038
     20 C         -28.2334    2.3347   27.2747 C.ar    1  UNL1       -0.0003
     21 C         -29.4780    3.0613   26.9180 C.ar    1  UNL1       -0.0000
     22 C         -30.0419    2.7800   25.7675 C.ar    1  UNL1       -0.0003
     23 C         -28.2484    1.1674   25.2466 C.ar    1  UNL1       -0.0218
     24 C         -27.6625    0.1894   24.4217 C.3     1  UNL1        0.0310
     25 C         -29.4384    1.8003   24.8519 C.ar    1  UNL1       -0.0043
     26 C         -25.3434    5.9865   31.1462 C.ar    1  UNL1        0.0189
     27 C         -24.4858    5.3299   32.0323 C.ar    1  UNL1        0.0988
     28 N         -24.9338    5.0690   33.1945 N.ar    1  UNL1       -0.2423
     29 C         -28.3806    6.3442   29.8231 C.2     1  UNL1       -0.0170
     30 C         -25.1979    6.0260   34.1291 C.ar    1  UNL1        0.0989
     31 C         -25.9782    7.0652   33.4325 C.ar    1  UNL1        0.0207
     32 C         -25.9980    7.1422   31.8402 C.ar    1  UNL1        0.0031
     33 C         -28.4604    7.3194   29.2852 C.2     1  UNL1        0.0043
     34 C         -27.6755    7.6446   28.0599 C.2     1  UNL1        0.0411
     35 C         -26.8271    6.6892   27.3665 C.1     1  UNL1       -0.1009
@<TRIPOS>BOND
     1     1     2    2
     2     2     3    1
     3     2     4   am
     4     4    10    1
     5     4    11    1
     6    11    12    2
     7    12    13    1
     8    13    14    2
     9    14    15    1
    10    15    16    1
    11    16    17    2
    12    16    18    1
    13     5    19    1
    14    23    24    1
    15    17    26    1
    16    15    29    1
    17    29    33    2
    18    33    34    1
    19    18    35    2
    20    34    35    2
    21    19    20   ar
    22    20    21   ar
    23    21    22   ar
    24    22    25   ar
    25    25    23   ar
    26    23    19   ar
    27    26    27   ar
    28    27    28   ar
    29    28    30   ar
    30    30    31   ar
    31    31    32   ar
    32    32    26   ar
    33     3     5   ar
    34     5     7   ar
    35     7     9   ar
    36     9     8   ar
    37     8     6   ar
    38     6     3   ar
