@<TRIPOS>MOLECULE
No_2184-gen_results/8p0m/2024-11-26-14-13-15/
 22 24 0 0 0
SMALL
GASTEIGER

@<TRIPOS>ATOM
      1 C         -28.0162   -0.8135   28.8779 C.ar    1  UNL1        0.0039
      2 C         -28.4690   -0.7850   29.8287 C.ar    1  UNL1        0.0714
      3 C         -28.1960    0.3478   28.0550 C.ar    1  UNL1       -0.0001
      4 C         -29.0191    1.3501   28.3782 C.ar    1  UNL1       -0.0000
      5 C         -28.3170   -1.9812   30.8560 C.3     1  UNL1        0.4186
      6 C         -29.5950    1.2859   29.6049 C.ar    1  UNL1       -0.0001
      7 C         -29.3465    0.2093   30.3749 C.ar    1  UNL1        0.0039
      8 F         -27.6425   -1.7250   31.6976 F       1  UNL1       -0.1659
      9 F         -29.5781   -2.4357   31.2523 F       1  UNL1       -0.1659
     10 F         -27.7667   -3.0404   30.1323 F       1  UNL1       -0.1659
     11 C         -27.4492    0.3791   26.6653 C.ar    1  UNL1       -0.0000
     12 C         -28.1014    0.3671   25.4815 C.ar    1  UNL1       -0.0000
     13 C         -25.9943    0.3741   26.6643 C.ar    1  UNL1       -0.0000
     14 C         -25.1482    0.1932   27.7409 C.ar    1  UNL1       -0.0000
     15 C         -24.3612    1.0609   28.4042 C.ar    1  UNL1        0.0000
     16 C         -23.3432    0.6467   29.2565 C.ar    1  UNL1        0.0000
     17 C         -23.1610   -0.7166   29.5806 C.ar    1  UNL1        0.0000
     18 C         -24.6832   -1.2001   28.0184 C.ar    1  UNL1        0.0000
     19 C         -23.8424   -1.5931   28.9759 C.ar    1  UNL1        0.0000
     20 C         -25.4452    0.7224   25.4362 C.ar    1  UNL1       -0.0000
     21 C         -27.6216    0.7034   24.3418 C.ar    1  UNL1       -0.0000
     22 C         -26.1658    0.7209   24.3024 C.ar    1  UNL1        0.0000
@<TRIPOS>BOND
     1     2     5    1
     2     5     8    1
     3     5     9    1
     4     5    10    1
     5     3    11    1
     6    13    14    1
     7    14    15   ar
     8    15    16   ar
     9    16    17   ar
    10    17    19   ar
    11    19    18   ar
    12    18    14   ar
    13    11    12   ar
    14    12    21   ar
    15    21    22   ar
    16    22    20   ar
    17    20    13   ar
    18    13    11   ar
    19     1     2   ar
    20     2     7   ar
    21     7     6   ar
    22     6     4   ar
    23     4     3   ar
    24     3     1   ar
