@<TRIPOS>MOLECULE
No_2185-gen_results/8p0m/2024-11-26-14-13-15/
 31 34 0 0 0
SMALL
GASTEIGER

@<TRIPOS>ATOM
      1 C         -28.0162   -0.8135   28.8779 C.ar    1  UNL1       -0.0002
      2 C         -27.0636   -0.1189   28.6079 C.ar    1  UNL1       -0.0001
      3 C         -25.7647   -0.3897   29.0360 C.ar    1  UNL1        0.0014
      4 C         -24.5516    0.4058   28.7646 C.ar    1  UNL1        0.0176
      5 C         -23.2300    0.1178   29.2575 C.ar    1  UNL1        0.0015
      6 C         -23.0942   -1.1309   29.8730 C.ar    1  UNL1        0.0000
      7 C         -27.7981   -1.9341   29.8560 C.ar    1  UNL1        0.0268
      8 C         -26.5420   -2.3269   30.2580 C.ar    1  UNL1       -0.0002
      9 C         -25.4514   -1.5516   29.9079 C.ar    1  UNL1       -0.0001
     10 C         -24.1562   -1.9097   30.2809 C.ar    1  UNL1       -0.0000
     11 C         -24.6450    1.6582   27.9464 C.ar    1  UNL1        0.0813
     12 C         -24.8958    2.7559   28.5615 C.ar    1  UNL1        0.0191
     13 C         -25.7918    3.5939   28.0297 C.ar    1  UNL1        0.0031
     14 C         -25.9449    3.5871   26.6052 C.ar    1  UNL1        0.0207
     15 N         -24.6925    1.5850   26.6184 N.ar    1  UNL1       -0.2438
     16 C         -25.4209    2.4572   25.9418 C.ar    1  UNL1        0.0988
     17 C         -29.0214   -2.7403   30.2390 C.3     1  UNL1        0.2578
     18 N         -28.9623   -3.9646   30.4422 N.3     1  UNL1       -0.1833
     19 F         -30.0870   -2.2006   30.3314 F       1  UNL1       -0.2127
     20 C         -29.4831   -4.8351   30.6963 C.3     1  UNL1        0.0932
     21 C         -30.7134   -4.6932   31.3055 C.3     1  UNL1        0.0338
     22 C         -31.4856   -5.9288   31.5554 C.3     1  UNL1        0.0735
     23 N         -32.4511   -6.1953   31.9118 N.3     1  UNL1       -0.2712
     24 C         -33.2870   -5.2761   32.2938 C.3     1  UNL1        0.0806
     25 C         -32.8522   -3.9595   32.2336 C.3     1  UNL1        0.1111
     26 C         -33.6413   -2.8068   32.6273 C.3     1  UNL1        0.3988
     27 C         -31.5178   -3.7421   31.7524 C.3     1  UNL1        0.0127
     28 F         -34.6987   -2.9744   32.9840 F       1  UNL1       -0.1700
     29 F         -32.9235   -2.1670   33.6402 F       1  UNL1       -0.1700
     30 F         -33.5452   -1.8954   31.5677 F       1  UNL1       -0.1700
     31 C         -33.0613   -7.6180   32.0882 C.3     1  UNL1        0.0896
@<TRIPOS>BOND
     1     4    11    1
     2     7    17    1
     3    17    18    1
     4    17    19    1
     5    18    20    1
     6    20    21    1
     7    21    22    1
     8    22    23    1
     9    23    24    1
    10    25    26    1
    11    21    27    1
    12    25    27    1
    13    26    28    1
    14    26    29    1
    15    26    30    1
    16    23    31    1
    17    25    24    1
    18    11    12   ar
    19    12    13   ar
    20    13    14   ar
    21    14    16   ar
    22    16    15   ar
    23    15    11   ar
    24     1     2   ar
    25     2     3   ar
    26     9     8   ar
    27     8     7   ar
    28     7     1   ar
    29     3     4   ar
    30     4     5   ar
    31     5     6   ar
    32     6    10   ar
    33    10     9   ar
    34     9     3   ar
