@<TRIPOS>MOLECULE
No_2186-gen_results/8p0m/2024-11-26-14-13-15/
 25 27 0 0 0
SMALL
GASTEIGER

@<TRIPOS>ATOM
      1 C         -28.0162   -0.8135   28.8779 C.ar    1  UNL1        0.0556
      2 C         -27.0636   -0.1190   28.6079 C.ar    1  UNL1        0.0046
      3 C         -26.9716    0.7139   27.5060 C.ar    1  UNL1        0.0003
      4 C         -28.1053    0.7744   26.6421 C.ar    1  UNL1        0.0056
      5 C         -29.2008    0.1044   27.0527 C.ar    1  UNL1        0.0679
      6 C         -28.0219   -1.5899   30.0879 C.2     1  UNL1        0.2690
      7 C         -29.1640   -0.6394   28.1484 C.ar    1  UNL1        0.0101
      8 N         -27.0665   -2.4543   30.3037 N.am    1  UNL1       -0.1741
      9 O         -29.0149   -1.6588   30.8762 O.2     1  UNL1       -0.2680
     10 C         -30.3863    0.2057   26.1774 C.2     1  UNL1        0.3334
     11 O         -31.2733   -0.4044   26.3348 O.2     1  UNL1       -0.2541
     12 F         -30.5542    1.2897   25.4602 F       1  UNL1       -0.1586
     13 C         -26.4916   -3.1440   29.7277 C.ar    1  UNL1        0.0903
     14 C         -26.7877   -4.4986   29.6727 C.ar    1  UNL1        0.1043
     15 C         -25.2155   -2.8274   29.0194 C.ar    1  UNL1        0.0180
     16 C         -24.3349   -3.8389   28.5619 C.ar    1  UNL1        0.0014
     17 N         -27.8642   -4.8562   30.4554 N.pl3   1  UNL1       -0.1267
     18 C         -24.7064   -5.1878   28.7613 C.ar    1  UNL1        0.0015
     19 C         -25.8494   -5.4768   29.3748 C.ar    1  UNL1        0.0194
     20 C         -25.7134    1.4380   27.1246 C.ar    1  UNL1        0.0000
     21 C         -25.6007    2.7369   27.4604 C.ar    1  UNL1        0.0000
     22 C         -24.4442    3.4544   27.0409 C.ar    1  UNL1        0.0000
     23 C         -23.3684    2.7607   26.4135 C.ar    1  UNL1        0.0000
     24 C         -24.7235    0.7801   26.4290 C.ar    1  UNL1        0.0000
     25 C         -23.5376    1.4736   26.0817 C.ar    1  UNL1        0.0000
@<TRIPOS>BOND
     1     1     6    1
     2     6     8   am
     3     6     9    2
     4     5    10    1
     5    10    11    2
     6    10    12    1
     7     8    13    1
     8    14    17    1
     9     3    20    1
    10    13    14   ar
    11    14    19   ar
    12    19    18   ar
    13    18    16   ar
    14    16    15   ar
    15    15    13   ar
    16     1     2   ar
    17     2     3   ar
    18     3     4   ar
    19     4     5   ar
    20     5     7   ar
    21     7     1   ar
    22    20    21   ar
    23    21    22   ar
    24    22    23   ar
    25    23    25   ar
    26    25    24   ar
    27    24    20   ar
