@<TRIPOS>MOLECULE
No_2187-gen_results/8p0m/2024-11-26-14-13-15/
 28 30 0 0 0
SMALL
GASTEIGER

@<TRIPOS>ATOM
      1 C         -28.0162   -0.8135   28.8779 C.2     1  UNL1        0.0502
      2 C         -27.0636   -0.1190   28.6079 C.2     1  UNL1       -0.0397
      3 C         -26.8756    1.1325   28.9134 C.3     1  UNL1        0.0224
      4 C         -25.6883    1.9515   28.5672 C.3     1  UNL1        0.0128
      5 C         -24.6394    1.2834   27.8753 C.3     1  UNL1        0.0958
      6 C         -24.8068   -0.0513   27.6040 C.3     1  UNL1        0.0128
      7 C         -25.9019   -0.7670   27.9511 C.3     1  UNL1        0.0224
      8 C         -28.0611   -1.4288   30.2827 C.2     1  UNL1        0.2583
      9 O         -27.1884   -1.8884   30.6773 O.2     1  UNL1       -0.2692
     10 N         -29.2430   -1.4277   30.9297 N.am    1  UNL1       -0.2011
     11 C         -23.4130    1.9745   27.5059 C.3     1  UNL1        0.3975
     12 F         -22.4412    1.4252   27.6431 F       1  UNL1       -0.1701
     13 F         -23.5090    2.3566   26.1494 F       1  UNL1       -0.1701
     14 F         -23.4404    3.3131   28.0733 F       1  UNL1       -0.1701
     15 C         -29.3725   -2.1208   32.2579 C.2     1  UNL1        0.2587
     16 C         -30.4354   -0.8181   30.4445 C.ar    1  UNL1        0.0612
     17 C         -31.3841   -1.5526   30.0961 C.ar    1  UNL1        0.0153
     18 C         -32.4182   -1.0360   29.3231 C.ar    1  UNL1        0.0013
     19 C         -32.3914    0.3289   28.9979 C.ar    1  UNL1        0.0001
     20 C         -31.3414    1.1143   29.4043 C.ar    1  UNL1        0.0013
     21 C         -30.3070    0.5412   30.0872 C.ar    1  UNL1        0.0153
     22 C         -28.9963   -1.4507   33.2924 C.ar    1  UNL1        0.0543
     23 C         -28.2352   -0.4167   33.4200 C.ar    1  UNL1        0.0045
     24 C         -27.8719    0.2755   34.5983 C.ar    1  UNL1        0.0001
     25 C         -28.1893   -0.3417   35.7790 C.ar    1  UNL1        0.0000
     26 C         -29.4505   -2.0578   34.6226 C.ar    1  UNL1        0.0045
     27 C         -29.0320   -1.4731   35.8141 C.ar    1  UNL1        0.0001
     28 O         -29.8311   -3.2657   32.1017 O.2     1  UNL1       -0.2692
@<TRIPOS>BOND
     1     1     2    2
     2     2     3    1
     3     3     4    1
     4     4     5    1
     5     5     6    1
     6     2     7    1
     7     6     7    1
     8     1     8    1
     9     8     9    2
    10     8    10   am
    11     5    11    1
    12    11    12    1
    13    11    13    1
    14    11    14    1
    15    10    15   am
    16    10    16    1
    17    15    22    1
    18    15    28    2
    19    22    23   ar
    20    23    24   ar
    21    24    25   ar
    22    25    27   ar
    23    27    26   ar
    24    26    22   ar
    25    16    17   ar
    26    17    18   ar
    27    18    19   ar
    28    19    20   ar
    29    20    21   ar
    30    21    16   ar
