@<TRIPOS>MOLECULE
No_2189-gen_results/8p0m/2024-11-26-14-13-15/
 25 27 0 0 0
SMALL
GASTEIGER

@<TRIPOS>ATOM
      1 C         -28.0162   -0.8135   28.8779 C.ar    1  UNL1        0.0762
      2 C         -27.0636   -0.1189   28.6079 C.ar    1  UNL1        0.0076
      3 C         -26.9716    0.7139   27.5060 C.ar    1  UNL1        0.0141
      4 C         -28.1053    0.7744   26.6421 C.ar    1  UNL1       -0.0146
      5 C         -29.2008    0.1044   27.0527 C.ar    1  UNL1        0.0499
      6 C         -28.0219   -1.5899   30.0879 C.2     1  UNL1        0.3454
      7 C         -29.1640   -0.6394   28.1484 C.ar    1  UNL1        0.0107
      8 O         -27.1149   -2.3777   30.3500 O.3     1  UNL1       -0.4255
      9 O         -29.0705   -1.6301   30.8602 O.2     1  UNL1       -0.2445
     10 C         -30.3710    0.2056   26.1571 C.2     1  UNL1        0.2488
     11 O         -31.2705   -0.4212   26.3221 O.2     1  UNL1       -0.2699
     12 N         -30.1631    0.7974   24.8732 N.am    1  UNL1       -0.2740
     13 C         -25.7006    1.4329   27.1191 C.ar    1  UNL1        0.0810
     14 N         -25.5624    2.3538   26.3739 N.ar    1  UNL1       -0.2438
     15 C         -25.0508    3.5633   26.6954 C.ar    1  UNL1        0.0988
     16 C         -24.0793    3.5336   27.6169 C.ar    1  UNL1        0.0207
     17 C         -23.7476    2.3056   28.2408 C.ar    1  UNL1        0.0031
     18 C         -24.6969    1.2447   28.1722 C.ar    1  UNL1        0.0191
     19 C         -29.1033    1.6530   24.5235 C.3     1  UNL1        0.0984
     20 C         -28.0451    1.6182   25.4524 C.3     1  UNL1        0.0480
     21 C         -31.3132    0.9013   24.0007 C.3     1  UNL1        0.1152
     22 C         -27.1994   -3.7452   30.1477 C.2     1  UNL1        0.1263
     23 C         -26.2354   -4.4504   29.3290 C.2     1  UNL1        0.0358
     24 C         -28.3307   -4.4582   30.6728 C.3     1  UNL1        0.0647
     25 C         -29.3611   -3.7680   31.3294 C.3     1  UNL1        0.0084
@<TRIPOS>BOND
     1     1     6    1
     2     6     8    1
     3     6     9    2
     4     5    10    1
     5    10    11    2
     6    10    12   am
     7     3    13    1
     8    12    19    1
     9     4    20    1
    10    12    21    1
    11     8    22    1
    12    22    23    2
    13    22    24    1
    14    24    25    1
    15    20    19    1
    16    13    14   ar
    17    14    15   ar
    18    15    16   ar
    19    16    17   ar
    20    17    18   ar
    21    18    13   ar
    22     1     2   ar
    23     2     3   ar
    24     3     4   ar
    25     4     5   ar
    26     5     7   ar
    27     7     1   ar
