@<TRIPOS>MOLECULE
No_219-gen_results/8p0m/2024-11-26-14-13-15/
 13 14 0 0 0
SMALL
GASTEIGER

@<TRIPOS>ATOM
      1 C         -28.0162   -0.8135   28.8779 C.ar    1  UNL1        0.0420
      2 C         -27.0636   -0.1189   28.6079 C.ar    1  UNL1        0.0033
      3 C         -25.7647   -0.3897   29.0360 C.ar    1  UNL1        0.0002
      4 C         -25.5296   -1.5302   29.9014 C.ar    1  UNL1        0.0033
      5 C         -26.6888   -2.2893   30.1810 C.ar    1  UNL1        0.0420
      6 C         -27.8727   -1.9508   29.7373 C.ar    1  UNL1        0.1957
      7 O         -28.9304   -2.7298   30.1154 O.3     1  UNL1       -0.2866
      8 C         -24.5394    0.4211   28.7421 C.ar    1  UNL1        0.0000
      9 C         -24.0907    1.3926   29.5983 C.ar    1  UNL1        0.0000
     10 C         -22.9647    2.2021   29.2350 C.ar    1  UNL1        0.0000
     11 C         -22.2731    1.9763   28.0008 C.ar    1  UNL1        0.0000
     12 C         -22.7861    1.0400   27.1628 C.ar    1  UNL1        0.0000
     13 C         -23.8730    0.2768   27.4987 C.ar    1  UNL1        0.0000
@<TRIPOS>BOND
     1     6     7    1
     2     3     8    1
     3     1     2   ar
     4     2     3   ar
     5     3     4   ar
     6     4     5   ar
     7     5     6   ar
     8     6     1   ar
     9     8     9   ar
    10     9    10   ar
    11    10    11   ar
    12    11    12   ar
    13    12    13   ar
    14    13     8   ar
