@<TRIPOS>MOLECULE
No_2190-gen_results/8p0m/2024-11-26-14-13-15/
 14 15 0 0 0
SMALL
GASTEIGER

@<TRIPOS>ATOM
      1 O         -28.1229   -1.3353   28.4874 O.2     1  UNL1       -0.2733
      2 C         -27.4806   -0.4044   28.7094 C.2     1  UNL1        0.2423
      3 C         -26.3804   -0.0867   27.9394 C.3     1  UNL1        0.0943
      4 N         -27.6664    0.4468   29.8988 N.am    1  UNL1       -0.2054
      5 C         -25.1773   -0.4388   28.3946 C.3     1  UNL1        0.0846
      6 C         -24.8702   -0.1050   29.8315 C.3     1  UNL1        0.0383
      7 C         -26.1926    0.2176   30.5619 C.3     1  UNL1        0.1165
      8 C         -26.5115    1.2053   27.1733 C.3     1  UNL1        0.0106
      9 C         -26.2780    0.8653   25.8064 C.3     1  UNL1        0.0035
     10 C         -25.3467    0.0978   25.5464 C.3     1  UNL1        0.0370
     11 C         -24.5187   -0.3455   26.4881 C.3     1  UNL1        0.1639
     12 N         -23.7097    0.2989   27.0678 N.3     1  UNL1       -0.1137
     13 N         -25.1492   -1.0965   27.3816 N.3     1  UNL1       -0.2018
     14 C         -24.1809   -1.0535   30.7554 C.3     1  UNL1        0.0033
@<TRIPOS>BOND
     1     1     2    2
     2     2     3    1
     3     2     4   am
     4     5     6    1
     5     3     8    1
     6     8     9    1
     7     9    10    1
     8    10    11    1
     9    11    12    1
    10     5    13    1
    11    11    13    1
    12     6    14    1
    13     3     5    1
    14     6     7    1
    15     7     4    1
