@<TRIPOS>MOLECULE
No_2191-gen_results/8p0m/2024-11-26-14-13-15/
 10 10 0 0 0
SMALL
GASTEIGER

@<TRIPOS>ATOM
      1 CL        -28.1493   -0.8198   28.9079 Cl      1  UNL1       -0.0761
      2 C         -27.8339    0.4961   29.0598 C.3     1  UNL1        0.2435
      3 F         -27.8833    1.0376   30.1944 F       1  UNL1       -0.2190
      4 C         -27.4481    1.3047   27.9430 C.3     1  UNL1        0.0787
      5 C         -26.3903    1.3950   27.3668 C.ar    1  UNL1       -0.0181
      6 C         -26.0898    2.2248   26.1763 C.ar    1  UNL1       -0.0041
      7 C         -24.7839    2.3616   25.6592 C.ar    1  UNL1       -0.0003
      8 C         -23.7154    1.6076   26.2899 C.ar    1  UNL1       -0.0000
      9 C         -23.9652    0.8128   27.3591 C.ar    1  UNL1       -0.0003
     10 C         -25.1638    0.7166   27.8644 C.ar    1  UNL1       -0.0041
@<TRIPOS>BOND
     1     1     2    1
     2     2     3    1
     3     2     4    1
     4     4     5    1
     5     5     6   ar
     6     6     7   ar
     7     7     8   ar
     8     8     9   ar
     9     9    10   ar
    10    10     5   ar
