@<TRIPOS>MOLECULE
No_2193-gen_results/8p0m/2024-11-26-14-13-15/
 27 29 0 0 0
SMALL
GASTEIGER

@<TRIPOS>ATOM
      1 C         -28.0162   -0.8135   28.8779 C.ar    1  UNL1        0.1792
      2 C         -27.0636   -0.1189   28.6079 C.ar    1  UNL1        0.0406
      3 C         -25.7923   -0.4302   29.0761 C.ar    1  UNL1        0.0032
      4 C         -25.5756   -1.5654   29.9363 C.ar    1  UNL1        0.0033
      5 C         -26.7354   -2.3004   30.2173 C.ar    1  UNL1        0.0403
      6 C         -27.9184   -1.9537   29.7629 C.ar    1  UNL1        0.1785
      7 O         -29.0001   -2.7012   30.1151 O.3     1  UNL1       -0.4212
      8 C         -24.5290    0.3490   28.7998 C.ar    1  UNL1        0.0001
      9 C         -24.4808    1.2113   27.7998 C.ar    1  UNL1        0.0000
     10 C         -23.2478    1.8974   27.4951 C.ar    1  UNL1        0.0000
     11 C         -22.0497    1.5890   28.1642 C.ar    1  UNL1        0.0000
     12 C         -23.3072    0.0149   29.4618 C.ar    1  UNL1        0.0000
     13 C         -22.0852    0.6899   29.1374 C.ar    1  UNL1        0.0000
     14 C         -29.3635   -2.8123   31.4419 C.3     1  UNL1        0.5000
     15 C         -29.9239   -1.7794   31.9929 C.3     1  UNL1        0.4968
     16 F         -29.8657   -1.7970   33.1457 F       1  UNL1       -0.1619
     17 F         -31.2513   -1.7450   31.6493 F       1  UNL1       -0.1619
     18 F         -29.4330   -0.5908   31.5398 F       1  UNL1       -0.1619
     19 F         -28.1680   -3.1972   32.0432 F       1  UNL1       -0.1557
     20 F         -30.2022   -4.0003   31.3500 F       1  UNL1       -0.1557
     21 O         -29.3120   -0.5016   28.6350 O.3     1  UNL1       -0.4489
     22 C         -29.7396    0.6218   27.9702 C.ar    1  UNL1        0.1645
     23 C         -29.5929    1.7572   28.4554 C.ar    1  UNL1        0.0407
     24 C         -29.7181    2.8286   27.6907 C.ar    1  UNL1        0.0238
     25 C         -30.2949    2.6806   26.4900 C.ar    1  UNL1        0.0991
     26 C         -30.2415    0.4720   26.7024 C.ar    1  UNL1        0.1362
     27 N         -30.4682    1.4947   25.9641 N.ar    1  UNL1       -0.2391
@<TRIPOS>BOND
     1     6     7    1
     2     3     8    1
     3     7    14    1
     4    14    15    1
     5    15    16    1
     6    15    17    1
     7    15    18    1
     8    14    19    1
     9    14    20    1
    10     1    21    1
    11    21    22    1
    12     1     2   ar
    13     2     3   ar
    14     3     4   ar
    15     4     5   ar
    16     5     6   ar
    17     6     1   ar
    18    22    23   ar
    19    23    24   ar
    20    24    25   ar
    21    25    27   ar
    22    27    26   ar
    23    26    22   ar
    24     8     9   ar
    25     9    10   ar
    26    10    11   ar
    27    11    13   ar
    28    13    12   ar
    29    12     8   ar
