@<TRIPOS>MOLECULE
No_2194-gen_results/8p0m/2024-11-26-14-13-15/
 9 8 0 0 0
SMALL
GASTEIGER

@<TRIPOS>ATOM
      1 C         -28.0162   -0.8135   28.8779 C.3     1  UNL1        0.0260
      2 C         -28.4690   -0.7850   29.8287 C.3     1  UNL1        0.0047
      3 C         -26.5042   -0.7777   28.8766 C.2     1  UNL1       -0.0261
      4 C         -25.7622   -0.0022   27.9705 C.2     1  UNL1       -0.0046
      5 C         -29.9993   -0.7599   29.8953 C.3     1  UNL1        0.0004
      6 C         -24.3210   -0.0297   28.0177 C.2     1  UNL1       -0.0003
      7 C         -23.5121    0.9237   27.3360 C.2     1  UNL1       -0.0000
      8 C         -24.1778    1.7451   26.3138 C.2     1  UNL1       -0.0000
      9 C         -25.5840    1.6773   26.2260 C.2     1  UNL1       -0.0000
@<TRIPOS>BOND
     1     1     2    1
     2     1     3    1
     3     3     4    2
     4     2     5    1
     5     4     6    1
     6     6     7    2
     7     7     8    1
     8     8     9    2
