@<TRIPOS>MOLECULE
No_2195-gen_results/8p0m/2024-11-26-14-13-15/
 11 11 0 0 0
SMALL
GASTEIGER

@<TRIPOS>ATOM
      1 O         -28.1229   -1.3353   28.4874 O.2     1  UNL1       -0.2667
      2 C         -27.0637   -0.8242   28.8687 C.2     1  UNL1        0.2826
      3 C         -26.4017   -0.0623   28.6224 C.ar    1  UNL1        0.1385
      4 N         -26.3805   -1.7991   29.9619 N.am    1  UNL1       -0.1985
      5 N         -25.1026    0.2983   29.0451 N.ar    1  UNL1       -0.2133
      6 C         -26.5440    0.7238   27.3135 C.ar    1  UNL1        0.0240
      7 C         -24.2721    1.3512   28.7556 C.ar    1  UNL1        0.2224
      8 C         -24.6184    2.0779   27.5956 C.ar    1  UNL1        0.0497
      9 C         -25.7541    1.8195   26.9338 C.ar    1  UNL1        0.0056
     10 C         -27.1247   -2.9764   30.4535 C.3     1  UNL1        0.1389
     11 F         -23.2262    1.5868   29.3812 F       1  UNL1       -0.1832
@<TRIPOS>BOND
     1     1     2    2
     2     2     3    1
     3     2     4   am
     4     4    10    1
     5     7    11    1
     6     3     5   ar
     7     5     7   ar
     8     7     8   ar
     9     8     9   ar
    10     9     6   ar
    11     6     3   ar
