@<TRIPOS>MOLECULE
No_2196-gen_results/8p0m/2024-11-26-14-13-15/
 18 20 0 0 0
SMALL
GASTEIGER

@<TRIPOS>ATOM
      1 C         -28.0162   -0.8135   28.8779 C.ar    1  UNL1        0.1578
      2 C         -27.0636   -0.1190   28.6079 C.ar    1  UNL1        0.1086
      3 C         -27.0010    0.6913   27.4910 C.ar    1  UNL1        0.0201
      4 C         -28.1373    0.7363   26.6350 C.ar    1  UNL1        0.0063
      5 C         -29.2360    0.0765   27.0690 C.ar    1  UNL1        0.0590
      6 C         -29.2177   -0.6429   28.1747 C.ar    1  UNL1        0.0358
      7 F         -28.0466   -1.5481   30.0087 F       1  UNL1       -0.2026
      8 C         -30.3371    0.2364   26.0196 C.2     1  UNL1        0.2842
      9 O         -31.2153   -0.4583   26.1006 O.2     1  UNL1       -0.2667
     10 N         -30.2244    1.1223   24.9993 N.am    1  UNL1       -0.0837
     11 C         -25.6957    1.3932   27.1072 C.ar    1  UNL1        0.0031
     12 C         -24.5819    1.0828   27.8265 C.ar    1  UNL1        0.0177
     13 C         -23.3398    1.8131   27.4808 C.ar    1  UNL1        0.0015
     14 C         -22.1418    1.6211   28.2012 C.ar    1  UNL1        0.0001
     15 C         -22.1049    0.5845   29.1572 C.ar    1  UNL1        0.0015
     16 C         -23.2099   -0.2428   29.4396 C.ar    1  UNL1        0.0191
     17 C         -24.4157    0.0132   28.7390 C.ar    1  UNL1        0.0813
     18 N         -25.7734   -0.4052   29.2997 N.ar    1  UNL1       -0.2431
@<TRIPOS>BOND
     1     1     7    1
     2     5     8    1
     3     8     9    2
     4     8    10   am
     5    12    13   ar
     6    13    14   ar
     7    14    15   ar
     8    15    16   ar
     9    16    17   ar
    10     1     2   ar
    11     3     4   ar
    12     4     5   ar
    13     5     6   ar
    14     6     1   ar
    15     2     3   ar
    16     3    11   ar
    17    11    12   ar
    18    12    17   ar
    19    17    18   ar
    20    18     2   ar
