@<TRIPOS>MOLECULE
No_2197-gen_results/8p0m/2024-11-26-14-13-15/
 15 16 0 0 0
SMALL
GASTEIGER

@<TRIPOS>ATOM
      1 C         -28.0162   -0.8135   28.8779 C.ar    1  UNL1        0.0000
      2 C         -27.0636   -0.1190   28.6079 C.ar    1  UNL1        0.0000
      3 C         -25.7647   -0.3897   29.0360 C.ar    1  UNL1        0.0002
      4 C         -25.5296   -1.5302   29.9014 C.ar    1  UNL1        0.0000
      5 C         -26.6888   -2.2893   30.1810 C.ar    1  UNL1        0.0000
      6 C         -27.8727   -1.9508   29.7373 C.ar    1  UNL1        0.0000
      7 C         -24.5491    0.4100   28.7341 C.ar    1  UNL1        0.0064
      8 C         -24.0931    1.3779   29.5761 C.ar    1  UNL1        0.0798
      9 C         -22.9779    2.1400   29.2464 C.ar    1  UNL1        0.0066
     10 C         -22.2677    1.9029   28.0361 C.ar    1  UNL1        0.0002
     11 C         -22.7430    0.9704   27.1898 C.ar    1  UNL1        0.0000
     12 C         -23.8526    0.2276   27.4988 C.ar    1  UNL1        0.0002
     13 C         -24.7481    1.6171   30.9103 C.2     1  UNL1        0.3878
     14 O         -24.8815    0.8522   31.7507 O.co2   1  UNL1       -0.2406
     15 O         -24.8521    2.9658   31.1857 O.co2   1  UNL1       -0.2406
@<TRIPOS>BOND
     1     3     7    1
     2     8    13    1
     3    13    14   ar
     4    13    15   ar
     5     1     2   ar
     6     2     3   ar
     7     3     4   ar
     8     4     5   ar
     9     5     6   ar
    10     6     1   ar
    11     7     8   ar
    12     8     9   ar
    13     9    10   ar
    14    10    11   ar
    15    11    12   ar
    16    12     7   ar
