@<TRIPOS>MOLECULE
No_2199-gen_results/8p0m/2024-11-26-14-13-15/
 10 10 0 0 0
SMALL
GASTEIGER

@<TRIPOS>ATOM
      1 C         -28.0162   -0.8135   28.8779 C.ar    1  UNL1       -0.0003
      2 C         -27.0636   -0.1189   28.6079 C.ar    1  UNL1       -0.0038
      3 C         -25.7647   -0.3897   29.0360 C.ar    1  UNL1       -0.0138
      4 C         -25.5296   -1.5302   29.9014 C.ar    1  UNL1       -0.0038
      5 C         -26.6577   -2.2915   30.2035 C.ar    1  UNL1       -0.0003
      6 C         -27.8548   -1.9555   29.7630 C.ar    1  UNL1       -0.0000
      7 C         -24.5441    0.4126   28.7379 C.3     1  UNL1        0.1049
      8 C         -24.0952    1.3785   29.5751 C.2     1  UNL1        0.2234
      9 N         -23.3679    2.0816   29.4623 N.2     1  UNL1       -0.1202
     10 F         -24.8583    1.4177   30.7803 F       1  UNL1       -0.1860
@<TRIPOS>BOND
     1     3     7    1
     2     7     8    1
     3     8     9    2
     4     8    10    1
     5     1     2   ar
     6     2     3   ar
     7     3     4   ar
     8     4     5   ar
     9     5     6   ar
    10     6     1   ar
