@<TRIPOS>MOLECULE
No_22-gen_results/8p0m/2024-11-26-14-13-15/
 16 18 0 0 0
SMALL
GASTEIGER

@<TRIPOS>ATOM
      1 C         -28.0162   -0.8135   28.8779 C.ar    1  UNL1        0.0029
      2 C         -27.0636   -0.1189   28.6079 C.ar    1  UNL1        0.0353
      3 C         -25.7647   -0.3897   29.0360 C.2     1  UNL1        0.1950
      4 C         -24.5517    0.4058   28.7646 C.ar    1  UNL1        0.0353
      5 C         -24.6957    1.4480   27.7988 C.ar    1  UNL1       -0.0153
      6 C         -23.5821    2.2166   27.4626 C.ar    1  UNL1       -0.0039
      7 C         -22.3295    1.8428   27.9660 C.ar    1  UNL1       -0.0003
      8 C         -22.1809    0.8284   28.8814 C.ar    1  UNL1        0.0001
      9 C         -23.3190    0.0774   29.2471 C.ar    1  UNL1        0.0029
     10 C         -29.3444   -0.3166   28.7168 C.ar    1  UNL1        0.0001
     11 C         -29.5122    0.7738   27.8782 C.ar    1  UNL1       -0.0003
     12 C         -28.4331    1.4575   27.4053 C.ar    1  UNL1       -0.0039
     13 C         -27.1461    1.1205   27.7815 C.ar    1  UNL1       -0.0153
     14 C         -25.9983    1.8258   27.3802 C.3     1  UNL1        0.0448
     15 O         -25.5358   -1.4898   29.7280 O.2     1  UNL1       -0.2866
     16 C         -26.1253    3.0392   26.5446 C.3     1  UNL1        0.0094
@<TRIPOS>BOND
     1     2     3    1
     2     3     4    1
     3     5    14    1
     4    13    14    1
     5     3    15    2
     6    14    16    1
     7     4     5   ar
     8     5     6   ar
     9     6     7   ar
    10     7     8   ar
    11     8     9   ar
    12     9     4   ar
    13     1     2   ar
    14     2    13   ar
    15    13    12   ar
    16    12    11   ar
    17    11    10   ar
    18    10     1   ar
