@<TRIPOS>MOLECULE
No_220-gen_results/8p0m/2024-11-26-14-13-15/
 12 12 0 0 0
SMALL
GASTEIGER

@<TRIPOS>ATOM
      1 C         -28.0162   -0.8135   28.8779 C.ar    1  UNL1        0.0154
      2 C         -28.4690   -0.7850   29.8287 C.ar    1  UNL1        0.0599
      3 C         -27.1356    0.2359   28.5352 C.ar    1  UNL1        0.0745
      4 C         -26.8745    1.2825   29.3982 C.ar    1  UNL1        0.0335
      5 C         -28.3613    0.1987   30.9244 C.ar    1  UNL1        0.0410
      6 C         -27.5277    1.2234   30.6356 C.ar    1  UNL1        0.1409
      7 C         -26.3987    0.2949   27.2279 C.3     1  UNL1        0.4187
      8 F         -25.4359   -0.3066   27.2689 F       1  UNL1       -0.1659
      9 F         -26.0879    1.5926   26.8408 F       1  UNL1       -0.1659
     10 F         -27.2528   -0.0994   26.1880 F       1  UNL1       -0.1659
     11 CL        -29.5184   -2.1784   30.3723 Cl      1  UNL1       -0.0822
     12 F         -27.3452    2.2191   31.4878 F       1  UNL1       -0.2042
@<TRIPOS>BOND
     1     3     7    1
     2     7     8    1
     3     7     9    1
     4     7    10    1
     5     2    11    1
     6     6    12    1
     7     1     2   ar
     8     2     5   ar
     9     5     6   ar
    10     6     4   ar
    11     4     3   ar
    12     3     1   ar
