@<TRIPOS>MOLECULE
No_2200-gen_results/8p0m/2024-11-26-14-13-15/
 12 13 0 0 0
SMALL
GASTEIGER

@<TRIPOS>ATOM
      1 C         -28.0162   -0.8135   28.8779 C.ar    1  UNL1        0.0000
      2 C         -27.0636   -0.1190   28.6079 C.ar    1  UNL1        0.0000
      3 C         -25.7923   -0.4302   29.0761 C.ar    1  UNL1        0.0000
      4 C         -25.5756   -1.5654   29.9363 C.ar    1  UNL1        0.0000
      5 C         -26.5354   -2.2259   30.1442 C.ar    1  UNL1        0.0000
      6 C         -27.8232   -1.9824   29.7414 C.ar    1  UNL1        0.0000
      7 C         -27.1414    1.1193   27.7777 C.ar    1  UNL1        0.0000
      8 C         -26.8262    2.2488   28.0264 C.ar    1  UNL1        0.0000
      9 C         -26.8486    3.3808   27.0823 C.ar    1  UNL1        0.0000
     10 C         -27.2969    3.1024   25.7851 C.ar    1  UNL1        0.0000
     11 C         -27.5755    0.8937   26.3682 C.ar    1  UNL1        0.0000
     12 C         -27.6396    1.8556   25.4739 C.ar    1  UNL1        0.0000
@<TRIPOS>BOND
     1     2     7    1
     2     7     8   ar
     3     8     9   ar
     4     9    10   ar
     5    10    12   ar
     6    12    11   ar
     7    11     7   ar
     8     1     2   ar
     9     2     3   ar
    10     3     4   ar
    11     4     5   ar
    12     5     6   ar
    13     6     1   ar
