@<TRIPOS>MOLECULE
No_2201-gen_results/8p0m/2024-11-26-14-13-15/
 11 12 0 0 0
SMALL
GASTEIGER

@<TRIPOS>ATOM
      1 C         -28.0162   -0.8135   28.8779 C.ar    1  UNL1       -0.0039
      2 C         -27.0636   -0.1190   28.6079 C.ar    1  UNL1       -0.0178
      3 C         -26.9287    1.1713   29.0083 C.ar    1  UNL1       -0.0036
      4 C         -27.9560    1.7411   29.7840 C.ar    1  UNL1       -0.0003
      5 C         -29.0569   -0.3271   29.7466 C.ar    1  UNL1       -0.0003
      6 C         -28.9828    0.9722   30.1516 C.ar    1  UNL1       -0.0000
      7 C         -25.8815   -0.6260   27.7945 C.3     1  UNL1        0.0523
      8 C         -24.5472   -0.2311   28.2390 C.2     1  UNL1       -0.0214
      9 C         -24.3284    1.1339   28.3333 C.2     1  UNL1       -0.0042
     10 C         -25.0444    2.0215   28.4921 C.2     1  UNL1       -0.0003
     11 C         -25.9159    2.2066   28.9612 C.2     1  UNL1       -0.0003
@<TRIPOS>BOND
     1     2     7    1
     2     7     8    1
     3     8     9    2
     4     9    10    1
     5     3    11    1
     6    10    11    2
     7     1     2   ar
     8     2     3   ar
     9     3     4   ar
    10     4     6   ar
    11     6     5   ar
    12     5     1   ar
