@<TRIPOS>MOLECULE
No_2202-gen_results/8p0m/2024-11-26-14-13-15/
 30 32 0 0 0
SMALL
GASTEIGER

@<TRIPOS>ATOM
      1 C         -28.0162   -0.8135   28.8779 C.3     1  UNL1        0.1223
      2 C         -27.0636   -0.1190   28.6079 C.ar    1  UNL1        0.0043
      3 C         -25.7923   -0.4302   29.0761 C.ar    1  UNL1        0.0774
      4 C         -24.5456    0.3494   28.8225 C.ar    1  UNL1        0.0102
      5 C         -24.6586    1.4196   27.8878 C.ar    1  UNL1        0.0716
      6 C         -25.9471    1.6811   27.3792 C.ar    1  UNL1        0.0036
      7 C         -27.0439    0.9739   27.6871 C.ar    1  UNL1       -0.0025
      8 N         -29.1797   -0.1202   29.1288 N.pl3   1  UNL1       -0.2825
      9 C         -29.5842    0.1318   30.4036 C.ar    1  UNL1        0.0520
     10 C         -30.0536    0.0965   28.0536 C.ar    1  UNL1        0.0518
     11 C         -23.4618    2.1735   27.6266 C.3     1  UNL1        0.4186
     12 F         -22.4957    2.0053   28.2322 F       1  UNL1       -0.1659
     13 F         -23.7385    3.4916   27.5617 F       1  UNL1       -0.1659
     14 F         -23.0840    1.8543   26.2692 F       1  UNL1       -0.1659
     15 C         -30.0623    0.8964   27.3044 C.ar    1  UNL1        0.0148
     16 C         -30.6719    1.2922   26.4983 C.ar    1  UNL1        0.0013
     17 C         -31.8307    0.4848   26.1699 C.ar    1  UNL1        0.0001
     18 C         -31.2645   -0.7154   28.0697 C.ar    1  UNL1        0.0148
     19 C         -32.1033   -0.5338   27.0390 C.ar    1  UNL1        0.0013
     20 C         -29.2022   -0.6010   31.4037 C.ar    1  UNL1        0.0214
     21 C         -30.3336    1.3325   30.6032 C.ar    1  UNL1        0.0148
     22 C         -30.7619    1.6425   31.8876 C.ar    1  UNL1        0.0015
     23 C         -29.6121   -0.2976   32.7470 C.ar    1  UNL1        0.0810
     24 C         -30.3649    0.8272   32.9846 C.ar    1  UNL1        0.0067
     25 C         -25.4804   -1.5770   30.0019 C.2     1  UNL1        0.3875
     26 O         -25.8757   -2.6854   29.6596 O.co2   1  UNL1       -0.2406
     27 O         -24.6924   -1.4852   30.9473 O.co2   1  UNL1       -0.2406
     28 C         -29.1384   -1.1645   33.8742 C.2     1  UNL1        0.3878
     29 O         -29.8137   -1.0963   34.8862 O.co2   1  UNL1       -0.2406
     30 O         -27.9014   -1.5367   33.8474 O.co2   1  UNL1       -0.2406
@<TRIPOS>BOND
     1     1     2    1
     2     1     8    1
     3     8     9    1
     4     8    10    1
     5     5    11    1
     6    11    12    1
     7    11    13    1
     8    11    14    1
     9     3    25    1
    10    25    26   ar
    11    25    27   ar
    12    23    28    1
    13    28    29   ar
    14    28    30   ar
    15     2     3   ar
    16     3     4   ar
    17     4     5   ar
    18     5     6   ar
    19     6     7   ar
    20     7     2   ar
    21    10    15   ar
    22    15    16   ar
    23    16    17   ar
    24    17    19   ar
    25    19    18   ar
    26    18    10   ar
    27     9    20   ar
    28    20    23   ar
    29    23    24   ar
    30    24    22   ar
    31    22    21   ar
    32    21     9   ar
