@<TRIPOS>MOLECULE
No_2203-gen_results/8p0m/2024-11-26-14-13-15/
 21 23 0 0 0
SMALL
GASTEIGER

@<TRIPOS>ATOM
      1 C         -28.0162   -0.8135   28.8779 C.ar    1  UNL1        0.0045
      2 C         -27.0636   -0.1190   28.6079 C.ar    1  UNL1        0.0001
      3 C         -25.7923   -0.4302   29.0761 C.ar    1  UNL1        0.0000
      4 C         -24.5456    0.3494   28.8225 C.ar    1  UNL1        0.0000
      5 C         -23.2409    0.0217   29.3323 C.ar    1  UNL1        0.0000
      6 C         -27.8820   -1.8995   29.8633 C.ar    1  UNL1        0.0536
      7 C         -26.6526   -2.3142   30.3138 C.ar    1  UNL1        0.0045
      8 C         -25.5153   -1.5607   29.9787 C.ar    1  UNL1        0.0001
      9 C         -22.1645    0.7936   28.9524 C.ar    1  UNL1        0.0000
     10 C         -22.1241    1.7484   27.9889 C.ar    1  UNL1        0.0000
     11 C         -24.5235    1.3782   27.7946 C.ar    1  UNL1        0.0000
     12 C         -23.3387    2.0417   27.4305 C.ar    1  UNL1        0.0000
     13 C         -29.0437   -2.7312   30.2971 C.2     1  UNL1        0.2498
     14 N         -29.3638   -2.5961   31.4413 N.am    1  UNL1       -0.2642
     15 C         -29.4733   -1.5195   32.0404 C.3     1  UNL1        0.0948
     16 C         -29.8238   -1.5352   33.5006 C.3     1  UNL1        0.0216
     17 C         -29.7560   -3.8511   32.2818 C.3     1  UNL1        0.1560
     18 C         -30.2154   -2.7434   33.9587 C.3     1  UNL1        0.0048
     19 C         -30.0888   -3.8720   33.5145 C.3     1  UNL1        0.0368
     20 CL        -29.5574   -5.3056   31.3664 Cl      1  UNL1       -0.0927
     21 O         -29.6684   -3.3524   29.4641 O.2     1  UNL1       -0.2699
@<TRIPOS>BOND
     1     3     4    1
     2     6    13    1
     3    13    14   am
     4    14    15    1
     5    14    17    1
     6    16    18    1
     7    17    19    1
     8    17    20    1
     9    13    21    2
    10    15    16    1
    11    18    19    1
    12     1     2   ar
    13     2     3   ar
    14     3     8   ar
    15     8     7   ar
    16     7     6   ar
    17     6     1   ar
    18     4     5   ar
    19     5     9   ar
    20     9    10   ar
    21    10    12   ar
    22    12    11   ar
    23    11     4   ar
