@<TRIPOS>MOLECULE
No_2204-gen_results/8p0m/2024-11-26-14-13-15/
 31 33 0 0 0
SMALL
GASTEIGER

@<TRIPOS>ATOM
      1 C         -28.0162   -0.8135   28.8779 C.ar    1  UNL1        0.0489
      2 C         -28.4690   -0.7850   29.8287 C.ar    1  UNL1        0.1463
      3 C         -26.5042   -0.7777   28.8766 C.ar    1  UNL1        0.0607
      4 C         -25.8103   -0.8531   30.1028 C.ar    1  UNL1        0.0116
      5 C         -27.9906   -0.8916   31.2257 C.ar    1  UNL1        0.0375
      6 C         -26.6042   -0.8676   31.2652 C.ar    1  UNL1        0.0040
      7 O         -29.9385   -0.8194   29.8358 O.3     1  UNL1       -0.4504
      8 C         -30.5356   -0.1119   28.9448 C.ar    1  UNL1        0.1789
      9 C         -31.4501   -0.5433   28.1111 C.ar    1  UNL1        0.1728
     10 C         -31.8584    0.0716   26.9300 C.ar    1  UNL1        0.0401
     11 C         -31.3692    1.3873   26.7278 C.ar    1  UNL1        0.0033
     12 C         -30.4136    1.9203   27.5319 C.ar    1  UNL1        0.0033
     13 C         -29.9035    1.1621   28.6113 C.ar    1  UNL1        0.0406
     14 CL        -25.5116   -0.6923   27.4657 Cl      1  UNL1       -0.0821
     15 O         -31.9186   -1.8155   28.2962 O.3     1  UNL1       -0.4712
     16 C         -32.1588   -2.3212   29.5118 C.3     1  UNL1        0.2206
     17 C         -33.3741   -2.0613   29.9827 C.3     1  UNL1        0.2123
     18 CL        -34.4278   -1.5723   29.0403 Cl      1  UNL1       -0.0871
     19 N         -33.8625   -3.1300   30.8866 N.pl3   1  UNL1       -0.2178
     20 C         -31.8039   -3.8510   29.5434 C.3     1  UNL1        0.1354
     21 C         -30.6418   -4.2336   29.0600 C.3     1  UNL1        0.0254
     22 N         -32.4442   -4.0915   30.7591 N.pl3   1  UNL1       -0.2312
     23 C         -30.2991   -5.6491   29.6074 C.3     1  UNL1        0.0019
     24 C         -31.7146   -4.0243   32.0127 C.2     1  UNL1        0.1052
     25 C         -34.1707   -2.9101   32.2195 C.2     1  UNL1        0.0951
     26 C         -32.3802   -4.0966   33.2248 C.2     1  UNL1        0.1340
     27 C         -33.5884   -3.3565   33.3485 C.2     1  UNL1        0.0832
     28 C         -31.6714   -4.5731   34.3638 C.3     1  UNL1        0.0651
     29 F         -32.8190   -5.2490   32.9455 F       1  UNL1       -0.2075
     30 N         -34.4933   -3.7920   34.3365 N.pl3   1  UNL1       -0.1313
     31 C         -32.8003   -1.9741   33.9212 C.3     1  UNL1        0.0523
@<TRIPOS>BOND
     1     2     7    1
     2     7     8    1
     3     3    14    1
     4     9    15    1
     5    15    16    1
     6    16    17    1
     7    17    18    1
     8    17    19    1
     9    16    20    1
    10    20    21    1
    11    19    22    1
    12    20    22    1
    13    21    23    1
    14    22    24    1
    15    19    25    1
    16    24    26    2
    17    25    27    2
    18    26    28    1
    19    26    29    1
    20    27    30    1
    21    27    31    1
    22     8     9   ar
    23     9    10   ar
    24    10    11   ar
    25    11    12   ar
    26    12    13   ar
    27    13     8   ar
    28     1     2   ar
    29     2     5   ar
    30     5     6   ar
    31     6     4   ar
    32     4     3   ar
    33     3     1   ar
