@<TRIPOS>MOLECULE
No_2205-gen_results/8p0m/2024-11-26-14-13-15/
 23 24 0 0 0
SMALL
GASTEIGER

@<TRIPOS>ATOM
      1 C         -28.0162   -0.8135   28.8779 C.2     1  UNL1        0.2717
      2 C         -27.0636   -0.1190   28.6079 C.ar    1  UNL1        0.0555
      3 C         -25.7923   -0.4302   29.0761 C.ar    1  UNL1        0.0047
      4 C         -24.5456    0.3494   28.8225 C.ar    1  UNL1        0.0048
      5 C         -24.6586    1.4196   27.8878 C.ar    1  UNL1        0.0567
      6 C         -25.9471    1.6811   27.3792 C.ar    1  UNL1        0.0048
      7 C         -27.0439    0.9739   27.6871 C.ar    1  UNL1        0.0047
      8 N         -29.1797   -0.1202   29.1288 N.am    1  UNL1       -0.1332
      9 C         -30.2095   -0.7652   29.7428 C.2     1  UNL1        0.3272
     10 C         -23.4456    2.1545   27.6087 C.2     1  UNL1        0.2842
     11 N         -23.4715    3.1325   26.8088 N.am    1  UNL1       -0.0837
     12 O         -22.2374    1.6285   27.7680 O.2     1  UNL1       -0.2667
     13 O         -27.9318   -1.9566   29.3926 O.2     1  UNL1       -0.2679
     14 C         -31.0699    0.0024   30.6062 C.2     1  UNL1        0.3247
     15 O         -30.6487    1.0021   31.0210 O.2     1  UNL1       -0.2629
     16 N         -32.3234   -0.4767   30.8161 N.am    1  UNL1       -0.1715
     17 C         -33.2638    0.3295   31.6492 C.ar    1  UNL1        0.0738
     18 C         -34.3504   -0.0550   31.7265 C.ar    1  UNL1        0.0166
     19 C         -35.2879    0.6277   32.6373 C.ar    1  UNL1        0.0013
     20 C         -34.8388    1.7981   33.3171 C.ar    1  UNL1        0.0001
     21 C         -33.5023    2.1584   33.1042 C.ar    1  UNL1        0.0013
     22 C         -32.6841    1.4642   32.3458 C.ar    1  UNL1        0.0166
     23 O         -30.4779   -1.9109   29.4399 O.2     1  UNL1       -0.2628
@<TRIPOS>BOND
     1     1     2    1
     2     1     8   am
     3     8     9   am
     4     5    10    1
     5    10    11   am
     6    10    12    2
     7     1    13    2
     8     9    14    1
     9    14    15    2
    10    14    16   am
    11    16    17    1
    12     9    23    2
    13    17    18   ar
    14    18    19   ar
    15    19    20   ar
    16    20    21   ar
    17    21    22   ar
    18    22    17   ar
    19     2     3   ar
    20     3     4   ar
    21     4     5   ar
    22     5     6   ar
    23     6     7   ar
    24     7     2   ar
