@<TRIPOS>MOLECULE
No_2206-gen_results/8p0m/2024-11-26-14-13-15/
 13 14 0 0 0
SMALL
GASTEIGER

@<TRIPOS>ATOM
      1 C         -28.0162   -0.8135   28.8779 C.ar    1  UNL1        0.0000
      2 C         -27.0636   -0.1189   28.6079 C.ar    1  UNL1        0.0002
      3 C         -25.7647   -0.3897   29.0360 C.ar    1  UNL1        0.0046
      4 C         -25.5296   -1.5302   29.9014 C.ar    1  UNL1        0.0002
      5 C         -26.6577   -2.2915   30.2035 C.ar    1  UNL1        0.0000
      6 C         -27.8548   -1.9555   29.7630 C.ar    1  UNL1        0.0000
      7 C         -24.5441    0.4126   28.7379 C.ar    1  UNL1        0.0579
      8 C         -24.0952    1.3785   29.5751 C.ar    1  UNL1        0.2792
      9 N         -23.0078    2.0594   29.1906 N.ar    1  UNL1       -0.2063
     10 O         -24.7056    1.7228   30.6535 O.3     1  UNL1       -0.2652
     11 C         -22.1973    1.8252   28.0537 C.ar    1  UNL1        0.1022
     12 C         -23.7953    0.1829   27.5087 C.ar    1  UNL1        0.0064
     13 C         -22.7053    0.9115   27.2637 C.ar    1  UNL1        0.0209
@<TRIPOS>BOND
     1     3     7    1
     2     8    10    1
     3     1     2   ar
     4     2     3   ar
     5     3     4   ar
     6     4     5   ar
     7     5     6   ar
     8     6     1   ar
     9     7     8   ar
    10     8     9   ar
    11     9    11   ar
    12    11    13   ar
    13    13    12   ar
    14    12     7   ar
