@<TRIPOS>MOLECULE
No_2207-gen_results/8p0m/2024-11-26-14-13-15/
 12 12 0 0 0
SMALL
GASTEIGER

@<TRIPOS>ATOM
      1 O         -28.1229   -1.3353   28.4874 O.2     1  UNL1       -0.2733
      2 C         -28.5208   -0.4363   29.0779 C.2     1  UNL1        0.2418
      3 C         -28.5894    0.5916   28.9464 C.3     1  UNL1        0.0915
      4 N         -29.3752   -0.9434   30.2659 N.am    1  UNL1       -0.2035
      5 C         -27.5822    1.2649   28.1478 C.3     1  UNL1        0.0360
      6 C         -26.2743    1.0474   28.5730 C.ar    1  UNL1       -0.0217
      7 C         -25.3998    1.7138   28.7990 C.ar    1  UNL1       -0.0043
      8 C         -23.9306    1.3450   29.0023 C.ar    1  UNL1       -0.0003
      9 C         -23.7006   -0.0363   28.9441 C.ar    1  UNL1       -0.0000
     10 C         -24.6865   -0.9311   28.6587 C.ar    1  UNL1       -0.0003
     11 C         -25.9132   -0.4503   28.4015 C.ar    1  UNL1       -0.0043
     12 C         -29.4806   -2.3521   30.5950 C.3     1  UNL1        0.1385
@<TRIPOS>BOND
     1     1     2    2
     2     2     3    1
     3     2     4   am
     4     3     5    1
     5     5     6    1
     6     4    12    1
     7     6     7   ar
     8     7     8   ar
     9     8     9   ar
    10     9    10   ar
    11    10    11   ar
    12    11     6   ar
