@<TRIPOS>MOLECULE
No_2208-gen_results/8p0m/2024-11-26-14-13-15/
 19 20 0 0 0
SMALL
GASTEIGER

@<TRIPOS>ATOM
      1 C         -28.0162   -0.8135   28.8779 C.ar    1  UNL1        0.0531
      2 C         -28.4690   -0.7850   29.8287 C.ar    1  UNL1        0.0608
      3 C         -26.5455   -0.8762   28.8500 C.ar    1  UNL1        0.1926
      4 C         -25.8041   -1.0324   30.0571 C.ar    1  UNL1        0.0172
      5 C         -27.9437   -0.9869   31.2075 C.ar    1  UNL1        0.0113
      6 C         -26.5825   -1.0386   31.2231 C.ar    1  UNL1       -0.0002
      7 CL        -30.2809   -0.7232   29.8834 Cl      1  UNL1       -0.0821
      8 C         -24.3690   -1.1185   30.0640 C.3     1  UNL1        0.0366
      9 C         -23.6811    0.1519   30.0835 C.3     1  UNL1        0.0598
     10 C         -23.2612    0.7756   28.8972 C.ar    1  UNL1       -0.0188
     11 C         -21.9844    0.6529   28.5638 C.ar    1  UNL1       -0.0041
     12 C         -24.1929    1.4722   28.1456 C.ar    1  UNL1        0.0072
     13 C         -23.7404    2.0143   26.8817 C.ar    1  UNL1        0.0574
     14 C         -21.4467    1.3017   27.3850 C.ar    1  UNL1        0.0005
     15 C         -22.3807    2.0423   26.6057 C.ar    1  UNL1        0.0114
     16 C         -23.6210    0.9258   31.3291 C.3     1  UNL1        0.1867
     17 O         -25.9711   -0.7439   27.6188 O.3     1  UNL1       -0.2869
     18 CL        -24.7677    2.8452   25.8609 Cl      1  UNL1       -0.0823
     19 O         -24.1017    0.4632   32.3893 O.3     1  UNL1       -0.2201
@<TRIPOS>BOND
     1     2     7    1
     2     4     8    1
     3     8     9    1
     4     9    10    1
     5     9    16    1
     6     3    17    1
     7    13    18    1
     8    16    19    1
     9    10    11   ar
    10    11    14   ar
    11    14    15   ar
    12    15    13   ar
    13    13    12   ar
    14    12    10   ar
    15     1     2   ar
    16     2     5   ar
    17     5     6   ar
    18     6     4   ar
    19     4     3   ar
    20     3     1   ar
