@<TRIPOS>MOLECULE
No_221-gen_results/8p0m/2024-11-26-14-13-15/
 11 11 0 0 0
SMALL
GASTEIGER

@<TRIPOS>ATOM
      1 C         -28.0162   -0.8135   28.8779 C.1     1  UNL1        0.1246
      2 C         -27.0636   -0.1189   28.6079 C.2     1  UNL1        0.0304
      3 C         -26.9716    0.7139   27.5060 C.3     1  UNL1        0.0334
      4 C         -25.8205    1.4910   27.1160 C.3     1  UNL1        0.0143
      5 C         -24.6562    1.4242   27.9180 C.3     1  UNL1        0.0805
      6 C         -24.6847    0.5901   29.0659 C.3     1  UNL1        0.0143
      7 C         -25.8099   -0.1265   29.3338 C.3     1  UNL1        0.0334
      8 O         -28.6040   -0.5746   29.9955 O.2     1  UNL1       -0.2318
      9 C         -23.4646    2.1914   27.6038 C.2     1  UNL1        0.2603
     10 N         -22.4437    2.0963   28.4371 N.am    1  UNL1       -0.0878
     11 O         -23.4022    2.8404   26.5122 O.2     1  UNL1       -0.2717
@<TRIPOS>BOND
     1     1     2    2
     2     2     3    1
     3     3     4    1
     4     4     5    1
     5     5     6    1
     6     2     7    1
     7     6     7    1
     8     1     8    2
     9     5     9    1
    10     9    10   am
    11     9    11    2
