@<TRIPOS>MOLECULE
No_2210-gen_results/8p0m/2024-11-26-14-13-15/
 21 21 0 0 0
SMALL
GASTEIGER

@<TRIPOS>ATOM
      1 C         -28.0162   -0.8135   28.8779 C.2     1  UNL1        0.2744
      2 C         -27.0636   -0.1189   28.6079 C.ar    1  UNL1        0.0899
      3 C         -25.7923   -0.4302   29.0761 C.ar    1  UNL1        0.0078
      4 C         -24.5456    0.3494   28.8225 C.ar    1  UNL1        0.0031
      5 C         -24.6586    1.4196   27.8878 C.ar    1  UNL1        0.0319
      6 C         -25.9471    1.6811   27.3792 C.ar    1  UNL1        0.0404
      7 C         -27.0439    0.9739   27.6871 C.ar    1  UNL1        0.1499
      8 N         -27.9736   -1.7264   29.9612 N.am    1  UNL1       -0.1363
      9 O         -29.1912   -0.5380   28.5093 O.2     1  UNL1       -0.2678
     10 C         -29.0743   -2.5471   30.4575 C.2     1  UNL1        0.3132
     11 P         -23.1998    2.3172   27.5441 P.3     1  UNL1        0.1396
     12 O         -23.4782    3.5079   27.1125 O.3     1  UNL1       -0.3542
     13 O         -22.5327    2.4201   28.8914 O.3     1  UNL1       -0.3542
     14 O         -22.3749    1.5038   26.5470 O.2     1  UNL1       -0.4557
     15 C         -29.4038   -2.1137   31.7049 C.3     1  UNL1        0.3860
     16 O         -28.7982   -1.3042   32.2648 O.3     1  UNL1       -0.1738
     17 F         -30.5073   -2.7294   32.1953 F       1  UNL1       -0.1906
     18 O         -29.3062   -3.5053   29.8205 O.2     1  UNL1       -0.2670
     19 O         -28.0716    1.2766   26.9855 O.3     1  UNL1       -0.4503
     20 C         -28.0866    1.4936   25.7142 C.2     1  UNL1        0.1796
     21 C         -28.1571    2.5081   25.2802 C.2     1  UNL1        0.0439
@<TRIPOS>BOND
     1     1     2    1
     2     1     8   am
     3     1     9    2
     4     8    10   am
     5     5    11    1
     6    11    12    1
     7    11    13    1
     8    11    14    2
     9    10    15    1
    10    15    16    1
    11    15    17    1
    12    10    18    2
    13     7    19    1
    14    19    20    1
    15    20    21    2
    16     2     3   ar
    17     3     4   ar
    18     4     5   ar
    19     5     6   ar
    20     6     7   ar
    21     7     2   ar
