@<TRIPOS>MOLECULE
No_2214-gen_results/8p0m/2024-11-26-14-13-15/
 17 18 0 0 0
SMALL
GASTEIGER

@<TRIPOS>ATOM
      1 C         -28.0162   -0.8135   28.8779 C.ar    1  UNL1       -0.0003
      2 C         -27.0636   -0.1189   28.6079 C.ar    1  UNL1       -0.0043
      3 C         -26.8756    1.1325   28.9134 C.ar    1  UNL1       -0.0223
      4 C         -25.6883    1.9515   28.5672 C.3     1  UNL1        0.0291
      5 C         -25.5093    3.3042   28.8859 C.3     1  UNL1        0.0049
      6 C         -29.0972   -0.2347   29.6994 C.ar    1  UNL1       -0.0000
      7 C         -29.0303    1.0730   30.0324 C.ar    1  UNL1       -0.0003
      8 C         -27.8550    1.8594   29.6796 C.ar    1  UNL1       -0.0043
      9 C         -24.3739    1.2751   28.8644 C.3     1  UNL1        0.1071
     10 C         -23.9643    0.9865   30.1209 C.2     1  UNL1        0.3646
     11 C         -23.5228    0.9079   27.7669 C.3     1  UNL1        0.0116
     12 C         -23.5613    1.5542   26.5451 C.3     1  UNL1        0.0006
     13 C         -25.8064    2.0855   26.8977 C.3     1  UNL1        0.0043
     14 C         -26.8974    2.7893   26.5149 C.3     1  UNL1        0.0003
     15 C         -24.7893    1.7405   26.0547 C.3     1  UNL1        0.0003
     16 O         -24.2879    0.3024   30.8261 O.co2   1  UNL1       -0.2457
     17 O         -22.8691    1.8914   30.4942 O.co2   1  UNL1       -0.2457
@<TRIPOS>BOND
     1     3     4    1
     2     4     5    1
     3     4     9    1
     4     9    10    1
     5     9    11    1
     6    11    12    1
     7     4    13    1
     8    13    14    1
     9    12    15    1
    10    13    15    1
    11    10    16   ar
    12    10    17   ar
    13     1     2   ar
    14     2     3   ar
    15     3     8   ar
    16     8     7   ar
    17     7     6   ar
    18     6     1   ar
