@<TRIPOS>MOLECULE
No_2215-gen_results/8p0m/2024-11-26-14-13-15/
 11 10 0 0 0
SMALL
GASTEIGER

@<TRIPOS>ATOM
      1 O         -28.1229   -1.3353   28.4874 O.3     1  UNL1       -0.2056
      2 C         -27.0637   -0.8242   28.8687 C.3     1  UNL1        0.2299
      3 C         -27.0246    0.1877   29.7358 C.2     1  UNL1        0.0178
      4 C         -25.8391    0.8513   29.9958 C.2     1  UNL1       -0.0012
      5 BR        -25.4325   -1.7900   28.4530 Br      1  UNL1       -0.0406
      6 C         -24.6420    0.5746   29.3097 C.2     1  UNL1       -0.0005
      7 C         -23.4141    1.4488   29.5000 C.2     1  UNL1       -0.0028
      8 C         -22.2639    1.0794   28.8065 C.2     1  UNL1       -0.0032
      9 C         -21.6190    1.8170   28.0600 C.2     1  UNL1       -0.0031
     10 C         -21.9843   -0.3407   29.0773 C.3     1  UNL1        0.1356
     11 N         -20.8515   -0.7709   28.4402 N.3     1  UNL1       -0.1262
@<TRIPOS>BOND
     1     1     2    1
     2     2     3    1
     3     3     4    2
     4     2     5    1
     5     4     6    1
     6     6     7    2
     7     7     8    1
     8     8     9    2
     9     8    10    1
    10    10    11    1
