@<TRIPOS>MOLECULE
No_2216-gen_results/8p0m/2024-11-26-14-13-15/
 20 22 0 0 0
SMALL
GASTEIGER

@<TRIPOS>ATOM
      1 C         -28.0162   -0.8135   28.8779 C.ar    1  UNL1        0.0045
      2 C         -28.4690   -0.7850   29.8287 C.ar    1  UNL1        0.0536
      3 C         -26.5042   -0.7777   28.8766 C.ar    1  UNL1        0.0001
      4 C         -25.8103   -0.8531   30.1028 C.ar    1  UNL1        0.0000
      5 C         -27.9906   -0.8916   31.2257 C.ar    1  UNL1        0.0045
      6 C         -26.6042   -0.8676   31.2652 C.ar    1  UNL1        0.0001
      7 C         -24.3894   -0.8049   30.1639 C.ar    1  UNL1        0.0000
      8 C         -23.7660   -0.9500   31.0679 C.ar    1  UNL1        0.0000
      9 C         -22.2665   -0.8379   31.2250 C.ar    1  UNL1        0.0000
     10 C         -21.6701   -0.5264   30.0648 C.ar    1  UNL1        0.0000
     11 C         -23.7317   -0.4993   28.8620 C.ar    1  UNL1        0.0000
     12 C         -22.3671   -0.3419   28.8755 C.ar    1  UNL1        0.0000
     13 C         -30.0901   -0.7844   29.8465 C.2     1  UNL1        0.2490
     14 O         -30.4947   -0.3194   28.8816 O.2     1  UNL1       -0.2699
     15 N         -30.8079   -1.2721   30.8700 N.am    1  UNL1       -0.2761
     16 C         -32.2494   -1.2469   30.7961 C.3     1  UNL1        0.0937
     17 C         -32.8186   -2.0333   31.5303 C.3     1  UNL1        0.0216
     18 C         -32.1714   -2.7038   32.4752 C.3     1  UNL1        0.0035
     19 C         -30.7890   -2.8262   32.6117 C.3     1  UNL1        0.0216
     20 C         -30.1132   -2.1763   31.7330 C.3     1  UNL1        0.0937
@<TRIPOS>BOND
     1     4     7    1
     2     2    13    1
     3    13    14    2
     4    13    15   am
     5    15    16    1
     6    16    17    1
     7    18    19    1
     8    15    20    1
     9    19    20    1
    10    17    18    1
    11     7     8   ar
    12     8     9   ar
    13     9    10   ar
    14    10    12   ar
    15    12    11   ar
    16    11     7   ar
    17     1     2   ar
    18     2     5   ar
    19     5     6   ar
    20     6     4   ar
    21     4     3   ar
    22     3     1   ar
