@<TRIPOS>MOLECULE
No_2217-gen_results/8p0m/2024-11-26-14-13-15/
 17 18 0 0 0
SMALL
GASTEIGER

@<TRIPOS>ATOM
      1 C         -28.0162   -0.8135   28.8779 C.2     1  UNL1        0.0638
      2 N         -27.1876   -0.3590   28.4524 N.am    1  UNL1       -0.2534
      3 C         -29.1992    0.0398   28.9632 C.2     1  UNL1        0.0027
      4 C         -25.7733   -0.8543   28.4719 C.2     1  UNL1        0.2528
      5 C         -24.6424   -0.1185   27.9429 C.ar    1  UNL1        0.0547
      6 C         -23.3576   -0.1844   28.5417 C.ar    1  UNL1        0.0159
      7 C         -22.2964    0.6712   28.0863 C.ar    1  UNL1        0.0578
      8 C         -22.6078    1.6054   27.0564 C.ar    1  UNL1        0.0114
      9 C         -23.8886    1.7247   26.5420 C.ar    1  UNL1        0.0010
     10 C         -24.9632    0.8823   26.9628 C.ar    1  UNL1        0.0046
     11 C         -28.9687    1.0702   28.1328 C.3     1  UNL1        0.1467
     12 C         -27.5655    0.9005   27.7555 C.3     1  UNL1        0.1142
     13 O         -25.5456   -1.9819   28.8922 O.2     1  UNL1       -0.2696
     14 C         -29.7496    2.1355   27.7208 C.2     1  UNL1        0.3701
     15 O         -30.7525    2.3985   28.1766 O.co2   1  UNL1       -0.2452
     16 O         -29.2048    2.8841   26.7359 O.co2   1  UNL1       -0.2452
     17 CL        -20.7619    0.5180   28.7556 Cl      1  UNL1       -0.0822
@<TRIPOS>BOND
     1     1     2    1
     2     1     3    2
     3     2     4   am
     4     4     5    1
     5     3    11    1
     6     2    12    1
     7    11    12    1
     8     4    13    2
     9    11    14    1
    10    14    15   ar
    11    14    16   ar
    12     7    17    1
    13     5     6   ar
    14     6     7   ar
    15     7     8   ar
    16     8     9   ar
    17     9    10   ar
    18    10     5   ar
