@<TRIPOS>MOLECULE
No_2218-gen_results/8p0m/2024-11-26-14-13-15/
 13 14 0 0 0
SMALL
GASTEIGER

@<TRIPOS>ATOM
      1 C         -28.0162   -0.8135   28.8779 C.ar    1  UNL1        0.0275
      2 C         -28.4690   -0.7850   29.8287 C.ar    1  UNL1        0.1401
      3 C         -26.5042   -0.7777   28.8766 C.ar    1  UNL1        0.0022
      4 C         -25.6540   -0.6597   27.7191 C.ar    1  UNL1        0.0001
      5 C         -29.9920   -0.8134   29.9579 C.ar    1  UNL1        0.0296
      6 C         -24.2351   -0.6217   27.9719 C.ar    1  UNL1        0.0000
      7 C         -23.7091   -0.7791   29.2532 C.ar    1  UNL1        0.0000
      8 C         -24.4887   -0.9098   30.3453 C.ar    1  UNL1        0.0000
      9 C         -25.8453   -0.9368   30.1856 C.ar    1  UNL1        0.0001
     10 C         -30.5519   -0.7287   28.7598 C.ar    1  UNL1        0.0023
     11 C         -29.8995   -0.4607   27.6168 C.ar    1  UNL1        0.0001
     12 C         -28.5596   -0.4031   27.6449 C.ar    1  UNL1        0.0022
     13 F         -27.9350   -1.0645   31.1117 F       1  UNL1       -0.2042
@<TRIPOS>BOND
     1     2    13    1
     2     3     1    1
     3     3     4   ar
     4     4     6   ar
     5     6     7   ar
     6     7     8   ar
     7     8     9   ar
     8     9     3   ar
     9     1     2   ar
    10     2     5   ar
    11     5    10   ar
    12    10    11   ar
    13    11    12   ar
    14    12     1   ar
