@<TRIPOS>MOLECULE
No_2219-gen_results/8p0m/2024-11-26-14-13-15/
 9 8 0 0 0
SMALL
GASTEIGER

@<TRIPOS>ATOM
      1 O         -28.1229   -1.3353   28.4874 O.co2   1  UNL1       -0.2405
      2 C         -28.5208   -0.4363   29.0779 C.2     1  UNL1        0.3880
      3 O         -29.6218   -0.0586   29.1075 O.co2   1  UNL1       -0.2405
      4 C         -27.4030    0.3231   29.9118 C.2     1  UNL1        0.0861
      5 C         -26.3404   -0.0483   29.9852 C.2     1  UNL1        0.0068
      6 C         -25.3187    0.0244   29.6539 C.2     1  UNL1        0.0002
      7 C         -24.0190   -0.6826   29.9852 C.2     1  UNL1        0.0000
      8 C         -24.2620   -1.8117   30.7704 C.2     1  UNL1        0.0000
      9 C         -25.4942   -2.1691   31.1526 C.2     1  UNL1        0.0000
@<TRIPOS>BOND
     1     1     2   ar
     2     2     3   ar
     3     2     4    1
     4     4     5    2
     5     5     6    1
     6     6     7    2
     7     7     8    1
     8     8     9    2
