@<TRIPOS>MOLECULE
No_222-gen_results/8p0m/2024-11-26-14-13-15/
 35 39 0 0 0
SMALL
GASTEIGER

@<TRIPOS>ATOM
      1 C         -28.0162   -0.8135   28.8779 C.ar    1  UNL1        0.0369
      2 C         -27.0636   -0.1190   28.6079 C.ar    1  UNL1        0.0031
      3 C         -25.7923   -0.4302   29.0761 C.ar    1  UNL1        0.0002
      4 C         -24.5456    0.3494   28.8225 C.ar    1  UNL1        0.0000
      5 C         -23.2409    0.0217   29.3323 C.ar    1  UNL1        0.0000
      6 C         -27.8820   -1.8995   29.8633 C.ar    1  UNL1        0.1391
      7 C         -26.6526   -2.3142   30.3138 C.ar    1  UNL1        0.0369
      8 C         -25.5153   -1.5607   29.9787 C.ar    1  UNL1        0.0030
      9 C         -23.2072   -1.2289   30.0311 C.ar    1  UNL1        0.0000
     10 C         -24.2434   -1.9361   30.3879 C.ar    1  UNL1        0.0001
     11 C         -24.5768    1.5651   27.9574 C.ar    1  UNL1        0.0000
     12 C         -23.5960    1.7041   26.9962 C.ar    1  UNL1        0.0000
     13 C         -23.6909    2.8399   26.1342 C.ar    1  UNL1        0.0000
     14 C         -24.7146    3.8142   26.3027 C.ar    1  UNL1        0.0000
     15 C         -25.3823    2.6194   28.3094 C.ar    1  UNL1        0.0000
     16 C         -25.4491    3.7583   27.4861 C.ar    1  UNL1        0.0000
     17 O         -29.0345   -2.5741   30.1576 O.3     1  UNL1       -0.4696
     18 C         -30.1127   -1.8521   30.5303 C.3     1  UNL1        0.2455
     19 C         -31.2333   -2.1398   29.7156 C.2     1  UNL1        0.2662
     20 N         -31.4510   -3.2744   29.3571 N.am    1  UNL1       -0.2766
     21 C         -32.2225   -3.6833   28.2760 C.3     1  UNL1        0.0935
     22 C         -32.1795   -5.0520   27.8086 C.3     1  UNL1        0.0216
     23 C         -31.2371   -5.9164   28.4111 C.3     1  UNL1        0.0035
     24 C         -30.3894   -5.5063   29.4083 C.3     1  UNL1        0.0216
     25 C         -30.5287   -4.2410   29.8320 C.3     1  UNL1        0.0935
     26 O         -32.0844   -1.1691   29.3922 O.2     1  UNL1       -0.2710
     27 C         -30.4931   -2.0613   32.0342 C.3     1  UNL1        0.0795
     28 C         -29.8685   -1.1779   32.8313 C.ar    1  UNL1       -0.0183
     29 C         -30.2705   -0.4384   33.3740 C.ar    1  UNL1       -0.0070
     30 C         -29.5945    0.5217   34.3664 C.ar    1  UNL1       -0.0035
     31 C         -30.0462    1.6661   34.9416 C.3     1  UNL1        0.1356
     32 C         -28.3539   -1.4119   33.1573 C.ar    1  UNL1       -0.0042
     33 C         -27.5632   -0.7134   33.8677 C.ar    1  UNL1       -0.0006
     34 C         -28.1659    0.3742   34.5228 C.ar    1  UNL1       -0.0028
     35 N         -31.2203    1.9887   34.7554 N.3     1  UNL1       -0.1262
@<TRIPOS>BOND
     1     4    11    1
     2     6    17    1
     3    17    18    1
     4    18    19    1
     5    19    20   am
     6    20    21    1
     7    22    23    1
     8    20    25    1
     9    24    25    1
    10    19    26    2
    11    18    27    1
    12    27    28    1
    13    31    35    1
    14    31    30    1
    15    21    22    1
    16    23    24    1
    17     3     4   ar
    18     4     5   ar
    19     5     9   ar
    20     9    10   ar
    21    10     8   ar
    22    28    29   ar
    23    29    30   ar
    24    30    34   ar
    25    34    33   ar
    26    33    32   ar
    27    32    28   ar
    28     1     2   ar
    29     2     3   ar
    30     3     8   ar
    31     8     7   ar
    32     7     6   ar
    33     6     1   ar
    34    11    12   ar
    35    12    13   ar
    36    13    14   ar
    37    14    16   ar
    38    16    15   ar
    39    15    11   ar
