@<TRIPOS>MOLECULE
No_2220-gen_results/8p0m/2024-11-26-14-13-15/
 13 13 0 0 0
SMALL
GASTEIGER

@<TRIPOS>ATOM
      1 C         -28.0162   -0.8135   28.8779 C.ar    1  UNL1        0.0165
      2 C         -27.0636   -0.1189   28.6079 C.ar    1  UNL1        0.0705
      3 C         -25.7923   -0.4302   29.0761 C.ar    1  UNL1        0.0165
      4 C         -25.5756   -1.5654   29.9363 C.ar    1  UNL1        0.0013
      5 C         -26.7354   -2.3004   30.2173 C.ar    1  UNL1        0.0001
      6 C         -27.9184   -1.9537   29.7629 C.ar    1  UNL1        0.0013
      7 N         -26.8648    1.0550   27.7928 N.pl3   1  UNL1       -0.2112
      8 C         -27.6916    1.5642   27.1523 C.2     1  UNL1        0.0856
      9 C         -28.8670    1.2509   27.1496 C.2     1  UNL1        0.0178
     10 C         -29.8528    1.9318   26.2413 C.2     1  UNL1        0.0014
     11 C         -31.1868    1.5890   26.1731 C.2     1  UNL1        0.0000
     12 C         -31.6036    0.5458   26.9759 C.2     1  UNL1        0.0000
     13 C         -30.7571   -0.1178   27.8135 C.2     1  UNL1        0.0000
@<TRIPOS>BOND
     1     2     7    1
     2     7     8    1
     3     8     9    2
     4     9    10    1
     5    10    11    2
     6    11    12    1
     7    12    13    2
     8     1     2   ar
     9     2     3   ar
    10     3     4   ar
    11     4     5   ar
    12     5     6   ar
    13     6     1   ar
