@<TRIPOS>MOLECULE
No_2221-gen_results/8p0m/2024-11-26-14-13-15/
 17 19 0 0 0
SMALL
GASTEIGER

@<TRIPOS>ATOM
      1 C         -28.0162   -0.8135   28.8779 C.ar    1  UNL1       -0.0042
      2 C         -28.4690   -0.7850   29.8287 C.ar    1  UNL1       -0.0003
      3 C         -28.1960    0.3478   28.0550 C.ar    1  UNL1       -0.0194
      4 C         -29.0191    1.3501   28.3782 C.ar    1  UNL1        0.0307
      5 C         -29.4107    0.1803   30.3782 C.ar    1  UNL1        0.0001
      6 C         -29.6059    1.2495   29.6193 C.ar    1  UNL1        0.0024
      7 C         -27.4478    0.3799   26.7122 C.3     1  UNL1        0.0269
      8 C         -27.8571    0.8148   25.7030 C.3     1  UNL1        0.0128
      9 C         -29.1924    1.3089   25.6718 C.3     1  UNL1        0.0695
     10 C         -29.6185    1.8224   27.0021 C.2     1  UNL1        0.1727
     11 C         -30.6137    2.3203   29.9706 C.ar    1  UNL1        0.0001
     12 C         -31.6598    2.1997   30.1324 C.ar    1  UNL1        0.0000
     13 C         -32.5740    3.2852   30.5480 C.ar    1  UNL1        0.0000
     14 C         -29.8714    3.6261   30.1178 C.ar    1  UNL1        0.0000
     15 C         -30.6698    4.7295   30.4858 C.ar    1  UNL1        0.0000
     16 C         -31.9926    4.5420   30.7148 C.ar    1  UNL1        0.0000
     17 O         -30.7203    2.6522   27.1063 O.2     1  UNL1       -0.2913
@<TRIPOS>BOND
     1     3     7    1
     2     8     9    1
     3     4    10    1
     4     9    10    1
     5     6    11    1
     6    10    17    2
     7     7     8    1
     8     1     2   ar
     9     2     5   ar
    10     5     6   ar
    11     6     4   ar
    12     4     3   ar
    13     3     1   ar
    14    11    12   ar
    15    12    13   ar
    16    13    16   ar
    17    16    15   ar
    18    15    14   ar
    19    14    11   ar
