@<TRIPOS>MOLECULE
No_2222-gen_results/8p0m/2024-11-26-14-13-15/
 13 13 0 0 0
SMALL
GASTEIGER

@<TRIPOS>ATOM
      1 F         -28.0727   -1.2542   28.5316 F       1  UNL1       -0.2018
      2 C         -28.2662   -0.4214   29.1931 C.2     1  UNL1        0.1674
      3 C         -27.2356   -0.0574   30.0145 C.2     1  UNL1        0.0315
      4 C         -25.8939   -0.7075   29.9664 C.2     1  UNL1       -0.0010
      5 C         -25.8796   -1.8759   29.1861 C.2     1  UNL1        0.0165
      6 C         -26.9824   -2.1795   28.4233 C.3     1  UNL1        0.2980
      7 F         -26.8620   -3.2427   27.7898 F       1  UNL1       -0.1991
      8 O         -26.4728   -2.6741   29.1598 O.3     1  UNL1       -0.3237
      9 C         -26.4924   -3.8908   29.7630 C.3     1  UNL1        0.1454
     10 C         -26.1405   -5.0037   29.0528 C.3     1  UNL1        0.0322
     11 C         -25.1438   -4.7218   28.2014 C.3     1  UNL1        0.0029
     12 C         -24.5173   -1.7378   28.5194 C.3     1  UNL1        0.0272
     13 C         -24.3941   -3.3747   27.9522 C.3     1  UNL1        0.0046
@<TRIPOS>BOND
     1     1     2    1
     2     2     3    2
     3     3     4    1
     4     4     5    2
     5     5     6    1
     6     6     7    1
     7     6     8    1
     8     8     9    1
     9     9    10    1
    10    10    11    1
    11     5    12    1
    12    11    13    1
    13    12    13    1
