@<TRIPOS>MOLECULE
No_2223-gen_results/8p0m/2024-11-26-14-13-15/
 13 14 0 0 0
SMALL
GASTEIGER

@<TRIPOS>ATOM
      1 C         -28.0162   -0.8135   28.8779 C.ar    1  UNL1       -0.0039
      2 C         -28.4690   -0.7850   29.8287 C.ar    1  UNL1       -0.0003
      3 C         -27.1356    0.2359   28.5352 C.ar    1  UNL1       -0.0178
      4 C         -26.8745    1.2825   29.3982 C.ar    1  UNL1       -0.0039
      5 C         -28.3613    0.1987   30.9244 C.ar    1  UNL1       -0.0000
      6 C         -27.5277    1.2234   30.6356 C.ar    1  UNL1       -0.0003
      7 C         -26.3879    0.2914   27.2334 C.3     1  UNL1        0.0526
      8 C         -25.1510    0.3034   27.2564 C.ar    1  UNL1       -0.0178
      9 C         -24.3395    0.2047   28.4288 C.ar    1  UNL1       -0.0039
     10 C         -23.0044    0.7595   28.4099 C.ar    1  UNL1       -0.0003
     11 C         -22.5914    1.5137   27.2905 C.ar    1  UNL1       -0.0000
     12 C         -23.4233    1.7468   26.2367 C.ar    1  UNL1       -0.0003
     13 C         -24.6632    1.2116   26.1854 C.ar    1  UNL1       -0.0039
@<TRIPOS>BOND
     1     3     7    1
     2     7     8    1
     3     8     9   ar
     4     9    10   ar
     5    10    11   ar
     6    11    12   ar
     7    12    13   ar
     8    13     8   ar
     9     1     2   ar
    10     2     5   ar
    11     5     6   ar
    12     6     4   ar
    13     4     3   ar
    14     3     1   ar
