@<TRIPOS>MOLECULE
No_2224-gen_results/8p0m/2024-11-26-14-13-15/
 21 22 0 0 0
SMALL
GASTEIGER

@<TRIPOS>ATOM
      1 C         -28.0162   -0.8135   28.8779 C.3     1  UNL1        0.1405
      2 C         -27.0636   -0.1190   28.6079 C.ar    1  UNL1       -0.0079
      3 C         -26.9716    0.7139   27.5060 C.ar    1  UNL1        0.0357
      4 C         -25.8205    1.4909   27.1160 C.ar    1  UNL1        0.0095
      5 C         -24.6562    1.4242   27.9180 C.ar    1  UNL1        0.0799
      6 C         -24.6847    0.5901   29.0659 C.ar    1  UNL1        0.0063
      7 C         -25.8099   -0.1266   29.3338 C.ar    1  UNL1       -0.0034
      8 C         -28.6943   -0.4734   30.1587 C.2     1  UNL1        0.3692
      9 O         -29.6488   -1.3183   30.6197 O.co2   1  UNL1       -0.2453
     10 C         -23.6771    2.3782   27.6008 C.2     1  UNL1        0.3878
     11 O         -22.7011    2.4451   28.3794 O.co2   1  UNL1       -0.2406
     12 O         -23.5837    2.9345   26.4326 O.co2   1  UNL1       -0.2406
     13 O         -28.4066    0.4490   30.9011 O.co2   1  UNL1       -0.2453
     14 C         -28.0903    0.7733   26.5526 C.2     1  UNL1        0.1953
     15 C         -29.0206    1.7577   26.7147 C.ar    1  UNL1        0.0389
     16 C         -28.7564    2.8131   27.3119 C.ar    1  UNL1        0.0032
     17 C         -29.7337    3.9130   27.5192 C.ar    1  UNL1        0.0001
     18 C         -30.3396    1.5817   26.1736 C.ar    1  UNL1        0.0032
     19 C         -31.3348    2.5411   26.2972 C.ar    1  UNL1        0.0001
     20 C         -30.9774    3.7488   26.9482 C.ar    1  UNL1        0.0000
     21 O         -28.2772   -0.2742   25.9093 O.2     1  UNL1       -0.2866
@<TRIPOS>BOND
     1     1     8    1
     2     8     9   ar
     3     5    10    1
     4    10    11   ar
     5    10    12   ar
     6     8    13   ar
     7     3    14    1
     8    14    15    1
     9    14    21    2
    10     1     2    1
    11    15    16   ar
    12    16    17   ar
    13    17    20   ar
    14    20    19   ar
    15    19    18   ar
    16    18    15   ar
    17     2     3   ar
    18     3     4   ar
    19     4     5   ar
    20     5     6   ar
    21     6     7   ar
    22     7     2   ar
