@<TRIPOS>MOLECULE
No_2225-gen_results/8p0m/2024-11-26-14-13-15/
 16 17 0 0 0
SMALL
GASTEIGER

@<TRIPOS>ATOM
      1 C         -28.0162   -0.8135   28.8779 C.ar    1  UNL1       -0.0001
      2 C         -27.0636   -0.1189   28.6079 C.ar    1  UNL1       -0.0000
      3 C         -26.9716    0.7139   27.5060 C.ar    1  UNL1       -0.0001
      4 C         -28.1053    0.7744   26.6421 C.ar    1  UNL1        0.0039
      5 C         -29.2008    0.1044   27.0527 C.ar    1  UNL1        0.0714
      6 C         -29.2096   -0.6029   28.1853 C.ar    1  UNL1        0.0039
      7 C         -30.2850    0.2735   26.0122 C.3     1  UNL1        0.4186
      8 F         -30.8999    1.1870   26.0682 F       1  UNL1       -0.1659
      9 F         -31.1473   -0.7945   26.2513 F       1  UNL1       -0.1659
     10 F         -29.8647   -0.0285   24.7585 F       1  UNL1       -0.1659
     11 C         -25.6678    1.4108   27.1386 C.ar    1  UNL1       -0.0000
     12 C         -24.5489    1.0216   27.7517 C.ar    1  UNL1       -0.0000
     13 C         -23.2961    1.7793   27.4134 C.ar    1  UNL1       -0.0000
     14 C         -23.3666    2.6524   26.3044 C.ar    1  UNL1        0.0000
     15 C         -25.5357    2.3717   26.1169 C.ar    1  UNL1       -0.0000
     16 C         -24.4876    3.0460   25.7650 C.ar    1  UNL1       -0.0000
@<TRIPOS>BOND
     1     5     7    1
     2     7     8    1
     3     7     9    1
     4     7    10    1
     5     3    11    1
     6     1     2   ar
     7     2     3   ar
     8     3     4   ar
     9     4     5   ar
    10     5     6   ar
    11     6     1   ar
    12    11    12   ar
    13    12    13   ar
    14    13    14   ar
    15    14    16   ar
    16    16    15   ar
    17    15    11   ar
