@<TRIPOS>MOLECULE
No_2226-gen_results/8p0m/2024-11-26-14-13-15/
 33 38 0 0 0
SMALL
GASTEIGER

@<TRIPOS>ATOM
      1 C         -28.0162   -0.8135   28.8779 C.ar    1  UNL1       -0.0026
      2 C         -27.0636   -0.1190   28.6079 C.ar    1  UNL1       -0.0003
      3 C         -25.7923   -0.4302   29.0761 C.ar    1  UNL1        0.0001
      4 C         -24.5456    0.3494   28.8225 C.ar    1  UNL1        0.0032
      5 C         -23.2409    0.0217   29.3323 C.ar    1  UNL1        0.0002
      6 C         -27.8820   -1.8995   29.8633 C.ar    1  UNL1       -0.0024
      7 C         -26.6526   -2.3142   30.3138 C.ar    1  UNL1       -0.0026
      8 C         -25.5153   -1.5607   29.9787 C.ar    1  UNL1       -0.0003
      9 C         -22.1645    0.7936   28.9524 C.ar    1  UNL1        0.0033
     10 C         -22.1241    1.7484   27.9889 C.ar    1  UNL1        0.0420
     11 C         -24.5235    1.3782   27.7946 C.ar    1  UNL1        0.0420
     12 C         -23.3387    2.0417   27.4305 C.ar    1  UNL1        0.1957
     13 C         -29.0500   -2.7282   30.2957 C.3     1  UNL1        0.1167
     14 N         -28.9430   -4.0081   30.5113 N.3     1  UNL1       -0.2087
     15 C         -29.9695   -4.8862   30.2504 C.3     1  UNL1        0.1127
     16 C         -31.1440   -4.5460   30.7979 C.3     1  UNL1        0.1232
     17 C         -31.4809   -3.1214   30.7004 C.2     1  UNL1       -0.0033
     18 C         -30.3890   -2.1836   30.4602 C.2     1  UNL1       -0.0074
     19 CL        -32.5094   -5.5299   30.1546 Cl      1  UNL1       -0.1057
     20 C         -31.0781   -5.1032   32.2453 C.ar    1  UNL1        0.0308
     21 O         -23.4519    2.9921   26.4673 O.3     1  UNL1       -0.2866
     22 C         -31.0173   -6.2397   32.4720 C.ar    1  UNL1        0.0002
     23 C         -31.1393   -6.8086   33.3220 C.ar    1  UNL1       -0.0001
     24 C         -31.1446   -6.0932   34.6980 C.ar    1  UNL1        0.0031
     25 C         -31.1527   -4.7251   34.5967 C.ar    1  UNL1        0.0372
     26 C         -31.1368   -4.1774   33.3926 C.ar    1  UNL1        0.1427
     27 C         -32.7453   -2.5983   31.0225 C.ar    1  UNL1        0.0318
     28 C         -33.4439   -1.9571   30.5716 C.ar    1  UNL1        0.0028
     29 C         -34.7567   -1.5009   31.0188 C.ar    1  UNL1        0.0002
     30 C         -35.2102   -2.1317   32.1991 C.ar    1  UNL1        0.0031
     31 C         -34.4117   -3.0316   32.8522 C.ar    1  UNL1        0.0375
     32 C         -33.1440   -3.3181   32.3739 C.ar    1  UNL1        0.1449
     33 O         -32.4147   -3.3651   33.2970 O.3     1  UNL1       -0.4538
@<TRIPOS>BOND
     1     3     4    1
     2     6    13    1
     3    13    14    1
     4    14    15    1
     5    15    16    1
     6    16    17    1
     7    13    18    1
     8    17    18    2
     9    16    19    1
    10    16    20    1
    11    12    21    1
    12    17    27    1
    13    26    33    1
    14    32    33    1
    15     1     2   ar
    16     2     3   ar
    17     3     8   ar
    18     8     7   ar
    19     7     6   ar
    20     6     1   ar
    21    20    22   ar
    22    22    23   ar
    23    23    24   ar
    24    24    25   ar
    25    25    26   ar
    26    26    20   ar
    27    27    28   ar
    28    28    29   ar
    29    29    30   ar
    30    30    31   ar
    31    31    32   ar
    32    32    27   ar
    33     4     5   ar
    34     5     9   ar
    35     9    10   ar
    36    10    12   ar
    37    12    11   ar
    38    11     4   ar
