@<TRIPOS>MOLECULE
No_2227-gen_results/8p0m/2024-11-26-14-13-15/
 12 13 0 0 0
SMALL
GASTEIGER

@<TRIPOS>ATOM
      1 C         -28.0162   -0.8135   28.8779 C.3     1  UNL1        0.0044
      2 C         -28.4690   -0.7850   29.8287 C.3     1  UNL1        0.0003
      3 C         -26.5042   -0.7777   28.8766 C.3     1  UNL1        0.0223
      4 C         -25.7622   -0.0022   27.9705 C.ar    1  UNL1       -0.0225
      5 C         -27.9832   -1.4903   31.0818 C.3     1  UNL1        0.0000
      6 C         -26.6062   -1.5983   31.1298 C.3     1  UNL1        0.0003
      7 C         -25.8085   -1.2512   30.0553 C.3     1  UNL1        0.0044
      8 C         -26.1743    0.3804   26.8199 C.ar    1  UNL1       -0.0043
      9 C         -25.7699    1.0752   26.0854 C.ar    1  UNL1       -0.0003
     10 C         -24.3347    1.5663   26.0870 C.ar    1  UNL1       -0.0000
     11 C         -23.7135    1.1666   27.3342 C.ar    1  UNL1       -0.0003
     12 C         -24.3806    0.4855   28.2199 C.ar    1  UNL1       -0.0043
@<TRIPOS>BOND
     1     1     2    1
     2     1     3    1
     3     2     5    1
     4     5     6    1
     5     3     7    1
     6     6     7    1
     7     3     4    1
     8     4     8   ar
     9     8     9   ar
    10     9    10   ar
    11    10    11   ar
    12    11    12   ar
    13    12     4   ar
