@<TRIPOS>MOLECULE
No_2229-gen_results/8p0m/2024-11-26-14-13-15/
 20 21 0 0 0
SMALL
GASTEIGER

@<TRIPOS>ATOM
      1 C         -28.0162   -0.8135   28.8779 C.2     1  UNL1       -0.0085
      2 C         -27.0636   -0.1189   28.6079 C.2     1  UNL1       -0.0442
      3 C         -26.8756    1.1325   28.9134 C.3     1  UNL1        0.0230
      4 C         -25.6883    1.9515   28.5672 C.3     1  UNL1        0.0239
      5 C         -24.6394    1.2834   27.8753 C.3     1  UNL1        0.1045
      6 C         -24.8068   -0.0513   27.6040 C.3     1  UNL1        0.0156
      7 C         -25.9019   -0.7670   27.9511 C.3     1  UNL1        0.0226
      8 C         -29.2158   -0.1185   29.1813 C.ar    1  UNL1       -0.0006
      9 C         -30.2339   -0.7910   29.8154 C.ar    1  UNL1       -0.0000
     10 C         -23.4188    1.9753   27.5047 C.2     1  UNL1        0.3643
     11 O         -23.2912    2.7094   26.6521 O.co2   1  UNL1       -0.2457
     12 O         -22.1938    1.3508   28.0405 O.co2   1  UNL1       -0.2457
     13 C         -31.5197   -0.2835   29.8713 C.ar    1  UNL1       -0.0000
     14 C         -31.7240    1.0019   29.4134 C.ar    1  UNL1       -0.0000
     15 C         -30.7338    1.6820   28.7806 C.ar    1  UNL1       -0.0000
     16 C         -29.5023    1.1077   28.5837 C.ar    1  UNL1       -0.0000
     17 C         -25.5469    3.3860   28.8904 C.3     1  UNL1        0.0894
     18 C         -26.1841    4.3187   28.2585 C.2     1  UNL1        0.2608
     19 O         -27.1118    4.6818   28.6126 O.2     1  UNL1       -0.2717
     20 N         -25.3485    5.1482   27.4402 N.am    1  UNL1       -0.0878
@<TRIPOS>BOND
     1     1     2    2
     2     2     3    1
     3     3     4    1
     4     4     5    1
     5     5     6    1
     6     2     7    1
     7     6     7    1
     8     1     8    1
     9     5    10    1
    10    10    11   ar
    11    10    12   ar
    12     4    17    1
    13    17    18    1
    14    18    19    2
    15    18    20   am
    16     8     9   ar
    17     9    13   ar
    18    13    14   ar
    19    14    15   ar
    20    15    16   ar
    21    16     8   ar
