@<TRIPOS>MOLECULE
No_223-gen_results/8p0m/2024-11-26-14-13-15/
 23 26 0 0 0
SMALL
GASTEIGER

@<TRIPOS>ATOM
      1 C         -28.0162   -0.8135   28.8779 C.ar    1  UNL1        0.0162
      2 C         -28.4690   -0.7850   29.8287 C.ar    1  UNL1        0.0013
      3 C         -28.1960    0.3478   28.0550 C.ar    1  UNL1        0.0671
      4 C         -29.0191    1.3501   28.3782 C.ar    1  UNL1        0.0009
      5 C         -29.4107    0.1803   30.3782 C.ar    1  UNL1       -0.0002
      6 C         -29.2236    2.4924   27.5425 C.3     1  UNL1        0.0673
      7 C         -29.5873    1.2242   29.6185 C.ar    1  UNL1       -0.0023
      8 C         -28.6297    3.5259   27.9871 C.ar    1  UNL1       -0.0179
      9 C         -27.8128    3.6898   28.9363 C.ar    1  UNL1       -0.0039
     10 C         -27.1159    4.9627   29.2407 C.ar    1  UNL1       -0.0003
     11 C         -27.2878    5.9891   28.3434 C.ar    1  UNL1       -0.0003
     12 C         -28.0892    5.9024   27.2588 C.ar    1  UNL1       -0.0042
     13 C         -28.7605    4.7180   27.0161 C.ar    1  UNL1       -0.0211
     14 C         -30.0902    2.2442   26.4411 C.ar    1  UNL1       -0.0179
     15 C         -30.4648    1.0654   25.9651 C.ar    1  UNL1       -0.0039
     16 C         -31.2499    1.0070   24.8656 C.ar    1  UNL1       -0.0003
     17 C         -30.6464    3.3746   25.7615 C.ar    1  UNL1       -0.0211
     18 C         -31.4457    3.2920   24.6646 C.ar    1  UNL1       -0.0042
     19 C         -31.7178    2.0352   24.2394 C.ar    1  UNL1       -0.0003
     20 C         -29.7858    4.5013   25.9836 C.3     1  UNL1        0.0520
     21 N         -27.5568    0.4934   26.8485 N.pl3   1  UNL1       -0.2115
     22 C         -26.1859    0.4963   26.6702 C.2     1  UNL1        0.0857
     23 C         -25.6505    0.6952   25.4113 C.2     1  UNL1        0.0192
@<TRIPOS>BOND
     1     4     6    1
     2     6     8    1
     3     6    14    1
     4    13    20    1
     5    17    20    1
     6     3    21    1
     7    21    22    1
     8    22    23    2
     9     8     9   ar
    10     9    10   ar
    11    10    11   ar
    12    11    12   ar
    13    12    13   ar
    14    13     8   ar
    15    14    15   ar
    16    15    16   ar
    17    16    19   ar
    18    19    18   ar
    19    18    17   ar
    20    17    14   ar
    21     1     2   ar
    22     2     5   ar
    23     5     7   ar
    24     7     4   ar
    25     4     3   ar
    26     3     1   ar
