@<TRIPOS>MOLECULE
No_2230-gen_results/8p0m/2024-11-26-14-13-15/
 24 27 0 0 0
SMALL
GASTEIGER

@<TRIPOS>ATOM
      1 CL        -28.1493   -0.8198   28.9079 Cl      1  UNL1       -0.0822
      2 C         -27.8339    0.4961   29.0598 C.ar    1  UNL1        0.0577
      3 C         -27.6022    1.0128   30.2974 C.ar    1  UNL1        0.0114
      4 C         -27.1699    2.3964   30.5338 C.ar    1  UNL1        0.0024
      5 C         -26.9133    3.1828   29.3680 C.ar    1  UNL1        0.0192
      6 C         -27.0551    2.6221   28.1384 C.ar    1  UNL1        0.0039
      7 C         -27.4622    1.3345   27.9669 C.ar    1  UNL1        0.0119
      8 C         -27.5746    0.8563   26.5913 C.ar    1  UNL1        0.0161
      9 C         -28.5677    1.0198   25.7705 C.ar    1  UNL1        0.0013
     10 C         -28.6341    0.4453   24.4759 C.ar    1  UNL1        0.0001
     11 C         -27.5367   -0.3495   24.0371 C.ar    1  UNL1        0.0013
     12 C         -26.4374   -0.4833   24.8644 C.ar    1  UNL1        0.0165
     13 C         -26.4182    0.0510   26.1595 C.ar    1  UNL1        0.0705
     14 N         -25.3392   -0.2134   26.9663 N.pl3   1  UNL1       -0.2125
     15 C         -24.1503    0.5236   27.0752 C.ar    1  UNL1        0.0705
     16 C         -23.9045    1.7699   26.5112 C.ar    1  UNL1        0.0165
     17 C         -23.4177    0.3383   28.3391 C.ar    1  UNL1        0.0165
     18 C         -22.2652    1.0176   28.5308 C.ar    1  UNL1        0.0013
     19 C         -22.7310    2.4659   26.6497 C.ar    1  UNL1        0.0013
     20 C         -21.8968    2.0819   27.7179 C.ar    1  UNL1        0.0001
     21 C         -26.7519    3.5868   27.0216 C.ar    1  UNL1        0.0207
     22 C         -26.4310    4.5761   29.5991 C.ar    1  UNL1        0.0988
     23 N         -26.1458    5.3585   28.5326 N.ar    1  UNL1       -0.2423
     24 C         -26.2661    4.9060   27.2709 C.ar    1  UNL1        0.0989
@<TRIPOS>BOND
     1     1     2    1
     2     7     8    1
     3    13    14    1
     4    14    15    1
     5     2     3   ar
     6     3     4   ar
     7     4     5   ar
     8     6     7   ar
     9     7     2   ar
    10     8     9   ar
    11     9    10   ar
    12    10    11   ar
    13    11    12   ar
    14    12    13   ar
    15    13     8   ar
    16     5     6   ar
    17     6    21   ar
    18    21    24   ar
    19    24    23   ar
    20    23    22   ar
    21    22     5   ar
    22    15    16   ar
    23    16    19   ar
    24    19    20   ar
    25    20    18   ar
    26    18    17   ar
    27    17    15   ar
