@<TRIPOS>MOLECULE
No_2231-gen_results/8p0m/2024-11-26-14-13-15/
 18 19 0 0 0
SMALL
GASTEIGER

@<TRIPOS>ATOM
      1 C         -28.0162   -0.8135   28.8779 C.3     1  UNL1        0.0307
      2 C         -28.4690   -0.7850   29.8287 C.3     1  UNL1        0.0267
      3 C         -27.0871    0.2903   28.6377 C.ar    1  UNL1       -0.0219
      4 C         -26.9102    0.8486   27.4199 C.ar    1  UNL1       -0.0043
      5 C         -29.6069   -1.6266   30.1338 C.ar    1  UNL1       -0.0222
      6 C         -25.6353    1.4343   27.0110 C.ar    1  UNL1       -0.0003
      7 C         -24.6490    1.6986   28.0077 C.ar    1  UNL1       -0.0000
      8 C         -23.4119    2.3040   27.6635 C.2     1  UNL1       -0.0000
      9 C         -22.6765    1.5846   27.1150 C.2     1  UNL1       -0.0000
     10 C         -24.9876    1.4334   29.3743 C.ar    1  UNL1       -0.0003
     11 C         -26.0533    0.5639   29.6442 C.ar    1  UNL1       -0.0043
     12 C         -30.1330   -1.9188   31.4639 C.ar    1  UNL1       -0.0043
     13 C         -31.1387   -2.7300   31.7109 C.ar    1  UNL1       -0.0003
     14 C         -31.7496   -3.3694   30.5666 C.ar    1  UNL1       -0.0000
     15 C         -31.2922   -3.1408   29.3237 C.ar    1  UNL1       -0.0003
     16 C         -30.2500   -2.3031   29.1407 C.ar    1  UNL1       -0.0043
     17 C         -27.9990   -0.0808   31.1292 C.3     1  UNL1        0.0047
     18 C         -28.5702   -0.0232   32.3276 C.3     1  UNL1        0.0004
@<TRIPOS>BOND
     1     1     2    1
     2     1     3    1
     3     7     8    1
     4     8     9    2
     5     2    17    1
     6    17    18    1
     7     2     5    1
     8     3     4   ar
     9     4     6   ar
    10     6     7   ar
    11     7    10   ar
    12    10    11   ar
    13    11     3   ar
    14     5    12   ar
    15    12    13   ar
    16    13    14   ar
    17    14    15   ar
    18    15    16   ar
    19    16     5   ar
