@<TRIPOS>MOLECULE
No_2232-gen_results/8p0m/2024-11-26-14-13-15/
 30 31 0 0 0
SMALL
GASTEIGER

@<TRIPOS>ATOM
      1 C         -28.0162   -0.8135   28.8779 C.ar    1  UNL1        0.0415
      2 C         -27.0636   -0.1190   28.6079 C.ar    1  UNL1        0.0581
      3 C         -25.7923   -0.4302   29.0761 C.ar    1  UNL1        0.0005
      4 C         -25.5756   -1.5654   29.9363 C.ar    1  UNL1       -0.0187
      5 C         -24.3722   -1.9422   30.4466 C.3     1  UNL1        0.0311
      6 C         -27.9640   -1.9247   29.7899 C.ar    1  UNL1        0.1385
      7 C         -26.7624   -2.3055   30.3031 C.ar    1  UNL1        0.0327
      8 C         -23.7002   -0.9072   31.1951 C.3     1  UNL1        0.0312
      9 C         -24.4051   -0.2058   32.0498 C.ar    1  UNL1       -0.0155
     10 C         -27.0960    1.0803   27.7180 C.2     1  UNL1        0.2688
     11 N         -26.8693    0.9399   26.4511 N.am    1  UNL1       -0.1798
     12 C         -26.9813    1.4991   25.4933 C.2     1  UNL1        0.0518
     13 C         -26.8974    1.0235   24.1397 C.2     1  UNL1        0.0132
     14 C         -27.3874    2.9691   25.5693 C.3     1  UNL1        0.0493
     15 O         -27.0649    2.1947   28.3345 O.2     1  UNL1       -0.2680
     16 C         -24.7842    1.2464   31.8975 C.ar    1  UNL1        0.0758
     17 C         -25.5576    2.0030   32.7214 C.ar    1  UNL1        0.0063
     18 C         -26.1582    1.3272   33.7878 C.ar    1  UNL1        0.0002
     19 C         -25.9454   -0.0421   33.9885 C.ar    1  UNL1       -0.0003
     20 C         -25.1320   -0.7892   33.1665 C.ar    1  UNL1       -0.0040
     21 C         -24.0246    2.0034   30.8069 C.2     1  UNL1        0.3874
     22 O         -22.9386    1.7316   30.5248 O.co2   1  UNL1       -0.2406
     23 O         -24.7759    2.7609   29.9780 O.co2   1  UNL1       -0.2406
     24 O         -29.0615   -2.6243   30.0998 O.3     1  UNL1       -0.4736
     25 C         -30.1752   -2.0692   30.6387 C.3     1  UNL1        0.2267
     26 C         -30.7598   -2.7949   31.5837 C.3     1  UNL1        0.1361
     27 C         -30.1448   -3.9295   32.0394 C.3     1  UNL1        0.0273
     28 N         -31.0797   -1.9692   32.8228 N.pl3   1  UNL1       -0.2343
     29 C         -31.5897   -2.0679   33.6967 C.2     1  UNL1        0.0802
     30 C         -31.6696   -1.0876   34.7843 C.2     1  UNL1        0.0188
@<TRIPOS>BOND
     1     5     8    1
     2     8     9    1
     3     2    10    1
     4    10    11   am
     5    11    12    1
     6    12    13    2
     7    12    14    1
     8    10    15    2
     9    16    21    1
    10    21    22   ar
    11    21    23   ar
    12     6    24    1
    13    24    25    1
    14    25    26    1
    15    26    27    1
    16    26    28    1
    17    28    29    1
    18    29    30    2
    19     5     4    1
    20     9    16   ar
    21    16    17   ar
    22    17    18   ar
    23    18    19   ar
    24    19    20   ar
    25    20     9   ar
    26     1     2   ar
    27     2     3   ar
    28     3     4   ar
    29     4     7   ar
    30     7     6   ar
    31     6     1   ar
