@<TRIPOS>MOLECULE
No_2234-gen_results/8p0m/2024-11-26-14-13-15/
 15 16 0 0 0
SMALL
GASTEIGER

@<TRIPOS>ATOM
      1 C         -28.0162   -0.8135   28.8779 C.ar    1  UNL1        0.0687
      2 C         -27.0636   -0.1190   28.6079 C.ar    1  UNL1        0.0036
      3 C         -27.0010    0.6913   27.4910 C.ar    1  UNL1        0.0012
      4 C         -28.1373    0.7363   26.6350 C.ar    1  UNL1        0.0142
      5 C         -29.2360    0.0765   27.0690 C.ar    1  UNL1        0.0438
      6 C         -29.2177   -0.6429   28.1747 C.ar    1  UNL1       -0.0049
      7 N         -30.3516    0.1564   26.2430 N.pl3   1  UNL1       -0.3060
      8 C         -31.4313   -0.4312   26.5996 C.3     1  UNL1        0.0912
      9 C         -31.5398   -1.0043   27.8472 C.3     1  UNL1        0.0261
     10 C         -30.4352   -1.2124   28.6022 C.3     1  UNL1        0.0293
     11 C         -27.9491   -1.6373   30.1655 C.3     1  UNL1        0.4183
     12 F         -26.8171   -2.1262   30.4363 F       1  UNL1       -0.1659
     13 F         -28.4217   -0.8598   31.1779 F       1  UNL1       -0.1659
     14 F         -28.7913   -2.7344   30.0579 F       1  UNL1       -0.1659
     15 C         -30.3149    0.9089   24.9947 C.3     1  UNL1        0.1122
@<TRIPOS>BOND
     1     5     7    1
     2     7     8    1
     3     6    10    1
     4     9    10    1
     5     1    11    1
     6    11    12    1
     7    11    13    1
     8    11    14    1
     9     7    15    1
    10     9     8    1
    11     1     2   ar
    12     2     3   ar
    13     3     4   ar
    14     4     5   ar
    15     5     6   ar
    16     6     1   ar
