@<TRIPOS>MOLECULE
No_2235-gen_results/8p0m/2024-11-26-14-13-15/
 35 38 0 0 0
SMALL
GASTEIGER

@<TRIPOS>ATOM
      1 C         -28.0162   -0.8135   28.8779 C.3     1  UNL1        0.1405
      2 C         -27.0636   -0.1189   28.6079 C.ar    1  UNL1       -0.0068
      3 C         -25.7647   -0.3897   29.0360 C.ar    1  UNL1       -0.0076
      4 C         -24.5516    0.4058   28.7646 C.ar    1  UNL1       -0.0163
      5 C         -24.6957    1.4480   27.7988 C.ar    1  UNL1        0.0513
      6 C         -25.9755    1.7250   27.3077 C.ar    1  UNL1        0.0085
      7 C         -27.0718    1.0134   27.6535 C.ar    1  UNL1        0.0521
      8 C         -28.6178   -0.4695   30.2207 C.2     1  UNL1        0.3692
      9 O         -29.6245   -1.2712   30.6820 O.co2   1  UNL1       -0.2453
     10 C         -23.4834    2.1873   27.4808 C.2     1  UNL1        0.2645
     11 N         -22.2974    1.7311   27.8457 N.am    1  UNL1       -0.2013
     12 O         -23.5629    3.1185   26.6195 O.2     1  UNL1       -0.2684
     13 O         -28.2252    0.3474   30.9113 O.co2   1  UNL1       -0.2453
     14 C         -21.9958    0.8130   28.7701 C.3     1  UNL1        0.1201
     15 C         -23.1035   -0.0156   29.1666 C.3     1  UNL1        0.0499
     16 C         -28.3886    1.3599   27.0652 C.2     1  UNL1        0.2687
     17 N         -28.4269    1.9890   25.9787 N.am    1  UNL1       -0.1755
     18 C         -29.4426    2.1836   25.2326 C.ar    1  UNL1        0.0737
     19 C         -29.3579    2.4122   23.9336 C.ar    1  UNL1        0.0166
     20 C         -30.4684    2.6590   23.0057 C.ar    1  UNL1        0.0013
     21 C         -31.7555    2.5541   23.5415 C.ar    1  UNL1       -0.0002
     22 C         -32.7815    2.8174   22.6906 C.2     1  UNL1       -0.0042
     23 C         -30.8092    2.1338   25.6813 C.ar    1  UNL1        0.0166
     24 C         -31.8536    2.3325   24.8499 C.ar    1  UNL1        0.0013
     25 O         -29.3969    1.2918   27.8028 O.2     1  UNL1       -0.2680
     26 C         -33.7745    3.3921   22.8682 C.2     1  UNL1       -0.0214
     27 C         -34.6489    3.9741   22.6394 C.3     1  UNL1        0.0523
     28 C         -35.6369    4.8658   22.6796 C.ar    1  UNL1       -0.0178
     29 C         -35.4976    6.0294   23.0252 C.ar    1  UNL1       -0.0039
     30 C         -36.5785    7.0467   22.9500 C.ar    1  UNL1       -0.0003
     31 C         -37.7765    6.5520   22.4623 C.ar    1  UNL1       -0.0000
     32 C         -37.9301    5.3148   22.0699 C.ar    1  UNL1       -0.0003
     33 C         -36.8879    4.4372   22.1170 C.ar    1  UNL1       -0.0039
     34 C         -38.9034    7.5806   22.4238 C.2     1  UNL1       -0.0000
     35 C         -38.8391    8.6479   23.1615 C.2     1  UNL1       -0.0000
@<TRIPOS>BOND
     1     1     8    1
     2     8     9   ar
     3     5    10    1
     4    10    11   am
     5    10    12    2
     6     8    13   ar
     7    11    14    1
     8     4    15    1
     9     7    16    1
    10    16    17   am
    11    17    18    1
    12    21    22    1
    13    16    25    2
    14    22    26    2
    15    26    27    1
    16    31    34    1
    17    34    35    2
    18    27    28    1
    19     1     2    1
    20    15    14    1
    21    28    29   ar
    22    29    30   ar
    23    30    31   ar
    24    31    32   ar
    25    32    33   ar
    26    33    28   ar
    27     2     3   ar
    28     3     4   ar
    29     4     5   ar
    30     5     6   ar
    31     6     7   ar
    32     7     2   ar
    33    18    19   ar
    34    19    20   ar
    35    20    21   ar
    36    21    24   ar
    37    24    23   ar
    38    23    18   ar
