@<TRIPOS>MOLECULE
No_2237-gen_results/8p0m/2024-11-26-14-13-15/
 20 20 0 0 0
SMALL
GASTEIGER

@<TRIPOS>ATOM
      1 O         -28.1229   -1.3353   28.4874 O.2     1  UNL1       -0.2745
      2 C         -27.4806   -0.4044   28.7094 C.2     1  UNL1        0.2294
      3 N         -27.2412    0.3910   29.5098 N.am    1  UNL1       -0.2572
      4 C         -26.2388   -0.3380   27.6778 C.3     1  UNL1        0.0862
      5 C         -25.3093    0.6912   27.7522 C.3     1  UNL1        0.0226
      6 C         -25.3619    1.5421   28.8283 C.3     1  UNL1        0.1240
      7 C         -26.3549    1.4061   29.7468 C.3     1  UNL1        0.1094
      8 C         -24.3145    2.5712   28.8917 C.2     1  UNL1        0.3660
      9 O         -23.3891    2.6569   28.0471 O.co2   1  UNL1       -0.2456
     10 O         -24.4231    3.4163   29.9033 O.co2   1  UNL1       -0.2456
     11 C         -28.3328    0.2637   30.6756 C.2     1  UNL1        0.0629
     12 C         -28.4209   -0.1885   31.7114 C.2     1  UNL1       -0.0097
     13 C         -27.1240   -0.8108   32.2985 C.3     1  UNL1        0.0317
     14 C         -26.1181    0.0430   32.6344 C.3     1  UNL1        0.0264
     15 C         -24.8098   -0.4043   32.6259 C.3     1  UNL1        0.0050
     16 C         -26.4227    1.3934   33.0315 C.2     1  UNL1       -0.0261
     17 C         -25.4057    2.3678   33.0516 C.2     1  UNL1       -0.0049
     18 C         -25.8755    3.6666   33.6020 C.2     1  UNL1       -0.0049
     19 C         -27.1247    3.8458   34.0494 C.2     1  UNL1       -0.0258
     20 C         -28.0203    2.8264   34.0135 C.3     1  UNL1        0.0307
@<TRIPOS>BOND
     1     1     2    2
     2     2     3   am
     3     2     4    1
     4     5     6    1
     5     3     7    1
     6     6     7    1
     7     6     8    1
     8     8     9   ar
     9     8    10   ar
    10     3    11    1
    11    11    12    2
    12    12    13    1
    13    13    14    1
    14    14    15    1
    15    14    16    1
    16    16    17    2
    17    17    18    1
    18    18    19    2
    19    19    20    1
    20     4     5    1
