@<TRIPOS>MOLECULE
No_2239-gen_results/8p0m/2024-11-26-14-13-15/
 11 11 0 0 0
SMALL
GASTEIGER

@<TRIPOS>ATOM
      1 C         -28.0162   -0.8135   28.8779 C.ar    1  UNL1       -0.0000
      2 C         -27.0636   -0.1189   28.6079 C.ar    1  UNL1        0.0000
      3 C         -26.9287    1.1713   29.0083 C.ar    1  UNL1        0.0000
      4 C         -27.9560    1.7411   29.7840 C.ar    1  UNL1        0.0000
      5 C         -29.0569   -0.3271   29.7466 C.ar    1  UNL1       -0.0000
      6 C         -30.1704   -1.1582   30.1327 C.2     1  UNL1       -0.0000
      7 C         -28.9772    0.9577   30.1786 C.ar    1  UNL1       -0.0000
      8 C         -31.2739   -1.0414   29.5689 C.2     1  UNL1       -0.0003
      9 C         -31.4591   -0.0172   28.5872 C.2     1  UNL1       -0.0046
     10 C         -32.7594    0.0453   27.8717 C.2     1  UNL1       -0.0258
     11 C         -33.7032   -0.9276   28.2325 C.3     1  UNL1        0.0307
@<TRIPOS>BOND
     1     5     6    1
     2     6     8    2
     3     8     9    1
     4     9    10    2
     5    10    11    1
     6     1     2   ar
     7     2     3   ar
     8     3     4   ar
     9     4     7   ar
    10     7     5   ar
    11     5     1   ar
