@<TRIPOS>MOLECULE
No_2241-gen_results/8p0m/2024-11-26-14-13-15/
 21 23 0 0 0
SMALL
GASTEIGER

@<TRIPOS>ATOM
      1 C         -28.0162   -0.8135   28.8779 C.ar    1  UNL1        0.0375
      2 C         -27.0636   -0.1189   28.6079 C.ar    1  UNL1        0.0031
      3 C         -25.7647   -0.3897   29.0360 C.ar    1  UNL1        0.0002
      4 C         -25.5296   -1.5302   29.9014 C.ar    1  UNL1        0.0031
      5 C         -26.6888   -2.2893   30.1810 C.ar    1  UNL1        0.0375
      6 C         -27.8727   -1.9508   29.7373 C.ar    1  UNL1        0.1454
      7 O         -28.7636   -2.8289   30.2096 O.3     1  UNL1       -0.4504
      8 C         -24.5499    0.4387   28.7343 C.ar    1  UNL1        0.0000
      9 C         -24.5491    1.2893   27.7085 C.ar    1  UNL1        0.0000
     10 C         -23.3489    2.0072   27.3823 C.ar    1  UNL1        0.0000
     11 C         -22.1539    1.7966   28.0133 C.ar    1  UNL1        0.0000
     12 C         -23.3028    0.1683   29.3657 C.ar    1  UNL1        0.0000
     13 C         -22.1099    0.8615   29.0169 C.ar    1  UNL1        0.0000
     14 C         -29.4836   -2.6384   31.2218 C.ar    1  UNL1        0.1789
     15 C         -29.9641   -1.7333   31.5558 C.ar    1  UNL1        0.0406
     16 C         -29.7624   -3.9892   31.9963 C.ar    1  UNL1        0.1730
     17 C         -30.8435   -1.5649   32.7068 C.ar    1  UNL1        0.0033
     18 C         -30.5773   -3.9467   33.1278 C.ar    1  UNL1        0.0401
     19 C         -31.1502   -2.7152   33.4673 C.ar    1  UNL1        0.0033
     20 O         -29.2126   -5.1213   31.6092 O.3     1  UNL1       -0.4684
     21 C         -29.3192   -5.5018   30.2893 C.3     1  UNL1        0.2526
@<TRIPOS>BOND
     1     6     7    1
     2     3     8    1
     3     7    14    1
     4    16    20    1
     5    20    21    1
     6     1     2   ar
     7     2     3   ar
     8     3     4   ar
     9     4     5   ar
    10     5     6   ar
    11     6     1   ar
    12    14    15   ar
    13    15    17   ar
    14    17    19   ar
    15    19    18   ar
    16    18    16   ar
    17    16    14   ar
    18     8     9   ar
    19     9    10   ar
    20    10    11   ar
    21    11    13   ar
    22    13    12   ar
    23    12     8   ar
