@<TRIPOS>MOLECULE
No_2242-gen_results/8p0m/2024-11-26-14-13-15/
 20 22 0 0 0
SMALL
GASTEIGER

@<TRIPOS>ATOM
      1 C         -28.0162   -0.8135   28.8779 C.ar    1  UNL1        0.0375
      2 C         -27.0636   -0.1190   28.6079 C.ar    1  UNL1        0.0031
      3 C         -25.7647   -0.3897   29.0360 C.ar    1  UNL1        0.0003
      4 C         -25.5296   -1.5302   29.9014 C.ar    1  UNL1        0.0031
      5 C         -26.6888   -2.2893   30.1810 C.ar    1  UNL1        0.0375
      6 C         -27.8727   -1.9508   29.7373 C.ar    1  UNL1        0.1453
      7 O         -28.9304   -2.7298   30.1154 O.3     1  UNL1       -0.4535
      8 C         -24.5394    0.4211   28.7421 C.ar    1  UNL1        0.0022
      9 C         -23.3459    0.1143   29.1690 C.ar    1  UNL1        0.0001
     10 C         -22.2617    0.6586   28.9028 C.ar    1  UNL1        0.0023
     11 C         -22.1387    1.6388   27.8625 C.ar    1  UNL1        0.0296
     12 C         -24.6139    1.3695   27.6617 C.ar    1  UNL1        0.0296
     13 C         -23.3395    2.0399   27.3285 C.ar    1  UNL1        0.1401
     14 C         -28.7796   -3.9932   30.6428 C.ar    1  UNL1        0.1453
     15 C         -28.7899   -4.9908   29.8335 C.ar    1  UNL1        0.0375
     16 C         -29.0274   -4.1449   32.0239 C.ar    1  UNL1        0.0375
     17 C         -29.8127   -5.2724   32.4498 C.ar    1  UNL1        0.0031
     18 C         -29.7420   -6.4530   31.5993 C.ar    1  UNL1        0.0002
     19 C         -29.5516   -6.2171   30.2400 C.ar    1  UNL1        0.0031
     20 F         -23.4077    2.9891   26.3784 F       1  UNL1       -0.2042
@<TRIPOS>BOND
     1     6     7    1
     2     3     8    1
     3     7    14    1
     4    13    20    1
     5     1     2   ar
     6     2     3   ar
     7     3     4   ar
     8     4     5   ar
     9     5     6   ar
    10     6     1   ar
    11    14    15   ar
    12    15    19   ar
    13    19    18   ar
    14    18    17   ar
    15    17    16   ar
    16    16    14   ar
    17     8     9   ar
    18     9    10   ar
    19    10    11   ar
    20    11    13   ar
    21    13    12   ar
    22    12     8   ar
