@<TRIPOS>MOLECULE
No_2244-gen_results/8p0m/2024-11-26-14-13-15/
 33 36 0 0 0
SMALL
GASTEIGER

@<TRIPOS>ATOM
      1 O         -28.1229   -1.3353   28.4874 O.2     1  UNL1       -0.2738
      2 C         -28.5208   -0.4363   29.0779 C.2     1  UNL1        0.2398
      3 C         -28.5894    0.5916   28.9464 C.3     1  UNL1        0.1123
      4 N         -28.7866   -0.8872   30.4874 N.am    1  UNL1       -0.2043
      5 C         -27.7841    1.2822   27.9869 C.ar    1  UNL1       -0.0129
      6 C         -28.0838    1.5823   26.7801 C.ar    1  UNL1       -0.0038
      7 C         -27.1210    2.0132   25.7117 C.ar    1  UNL1       -0.0002
      8 C         -25.7656    2.1252   26.0617 C.ar    1  UNL1        0.0046
      9 C         -25.3777    1.7748   27.4171 C.ar    1  UNL1        0.0564
     10 C         -26.3154    1.3420   28.2647 C.ar    1  UNL1        0.0008
     11 C         -28.7205   -2.2974   30.9281 C.2     1  UNL1        0.2585
     12 C         -29.3202    0.0098   31.4965 C.ar    1  UNL1        0.0609
     13 C         -23.9534    1.8973   27.7332 C.2     1  UNL1        0.2842
     14 N         -23.5811    2.0324   28.9822 N.am    1  UNL1       -0.0837
     15 O         -22.9912    2.0105   26.8836 O.2     1  UNL1       -0.2667
     16 C         -29.7377   -3.1239   30.3847 C.ar    1  UNL1        0.0543
     17 C         -30.9140   -2.7159   30.1485 C.ar    1  UNL1        0.0045
     18 C         -31.8109   -3.2709   30.6973 C.ar    1  UNL1        0.0001
     19 C         -31.7717   -4.7226   31.0139 C.ar    1  UNL1        0.0000
     20 C         -30.4742   -5.2697   31.2619 C.ar    1  UNL1        0.0001
     21 C         -29.3760   -4.4643   30.9339 C.ar    1  UNL1        0.0045
     22 C         -30.5841    0.3960   31.4361 C.ar    1  UNL1        0.0153
     23 C         -31.0484    1.1368   32.4063 C.ar    1  UNL1        0.0013
     24 C         -28.4444    0.4617   32.4374 C.ar    1  UNL1        0.0141
     25 C         -26.9784    0.0945   32.5324 C.ar    1  UNL1        0.0012
     26 C         -30.2406    1.6070   33.4335 C.ar    1  UNL1        0.0001
     27 C         -28.8610    1.2845   33.4870 C.ar    1  UNL1        0.0012
     28 C         -26.4360   -0.1383   33.7099 C.ar    1  UNL1        0.0000
     29 C         -25.0720   -0.5454   33.6618 C.ar    1  UNL1        0.0000
     30 C         -24.3582   -0.7240   32.5147 C.ar    1  UNL1        0.0000
     31 C         -24.9900   -0.4037   31.2829 C.ar    1  UNL1        0.0000
     32 C         -26.3285    0.0231   31.3087 C.ar    1  UNL1        0.0000
     33 O         -27.9105   -2.4793   31.8431 O.2     1  UNL1       -0.2692
@<TRIPOS>BOND
     1     1     2    2
     2     2     3    1
     3     2     4   am
     4     3     5    1
     5     4    11   am
     6     4    12    1
     7     9    13    1
     8    13    14   am
     9    13    15    2
    10    11    16    1
    11    24    25    1
    12    11    33    2
    13    25    28   ar
    14    28    29   ar
    15    29    30   ar
    16    30    31   ar
    17    31    32   ar
    18    32    25   ar
    19    16    17   ar
    20    17    18   ar
    21    18    19   ar
    22    19    20   ar
    23    20    21   ar
    24    21    16   ar
    25     5     6   ar
    26     6     7   ar
    27     7     8   ar
    28     8     9   ar
    29     9    10   ar
    30    10     5   ar
    31    12    22   ar
    32    22    23   ar
    33    23    26   ar
    34    26    27   ar
    35    27    24   ar
    36    24    12   ar
