@<TRIPOS>MOLECULE
No_2245-gen_results/8p0m/2024-11-26-14-13-15/
 35 39 0 0 0
SMALL
GASTEIGER

@<TRIPOS>ATOM
      1 C         -28.0162   -0.8135   28.8779 C.ar    1  UNL1        0.0043
      2 C         -27.0636   -0.1189   28.6079 C.ar    1  UNL1       -0.0041
      3 C         -25.7647   -0.3897   29.0360 C.ar    1  UNL1       -0.0221
      4 C         -24.5516    0.4058   28.7646 C.3     1  UNL1        0.0297
      5 C         -23.2300    0.1178   29.2575 C.3     1  UNL1        0.0052
      6 C         -22.1393    0.9427   28.9224 C.3     1  UNL1        0.0081
      7 C         -27.8294   -1.9287   29.8545 C.ar    1  UNL1        0.0554
      8 C         -26.5882   -2.3272   30.2682 C.ar    1  UNL1        0.0043
      9 C         -25.4565   -1.5432   29.9146 C.ar    1  UNL1       -0.0041
     10 C         -22.2302    1.9089   27.8723 C.3     1  UNL1        0.0645
     11 C         -24.5538    1.4700   27.7617 C.3     1  UNL1        0.0688
     12 C         -23.4471    2.1666   27.3764 C.2     1  UNL1        0.1510
     13 C         -28.9842   -2.7701   30.2567 C.2     1  UNL1        0.2690
     14 N         -28.8382   -4.0775   30.4091 N.am    1  UNL1       -0.1755
     15 C         -29.6586   -4.8147   31.2005 C.ar    1  UNL1        0.0734
     16 O         -30.0569   -2.2457   30.4220 O.2     1  UNL1       -0.2680
     17 C         -30.5735   -5.6289   30.3766 C.ar    1  UNL1        0.0130
     18 C         -31.1716   -6.7267   30.9286 C.ar    1  UNL1       -0.0130
     19 C         -30.9374   -7.0533   32.3318 C.ar    1  UNL1       -0.0035
     20 C         -30.0375   -6.3013   33.0635 C.ar    1  UNL1        0.0010
     21 C         -29.3187   -5.2539   32.4776 C.ar    1  UNL1        0.0166
     22 O         -23.6081    3.0984   26.4092 O.2     1  UNL1       -0.2960
     23 C         -32.1548   -7.4662   30.1889 C.3     1  UNL1        0.0667
     24 C         -31.6770   -8.1663   29.1447 C.ar    1  UNL1       -0.0143
     25 C         -32.4221   -8.7927   28.1648 C.ar    1  UNL1       -0.0036
     26 C         -31.7871   -9.3855   27.0287 C.ar    1  UNL1       -0.0003
     27 C         -30.4972   -9.2991   26.8767 C.ar    1  UNL1       -0.0000
     28 C         -29.7380   -8.6637   27.8277 C.ar    1  UNL1       -0.0003
     29 C         -30.2396   -8.0768   28.8588 C.ar    1  UNL1       -0.0036
     30 C         -33.6452   -7.4566   30.3232 C.ar    1  UNL1       -0.0143
     31 C         -34.2065   -6.5913   31.3024 C.ar    1  UNL1       -0.0036
     32 C         -35.5888   -6.6131   31.4409 C.ar    1  UNL1       -0.0003
     33 C         -36.3192   -7.4475   30.6377 C.ar    1  UNL1       -0.0000
     34 C         -35.7750   -8.2611   29.7175 C.ar    1  UNL1       -0.0003
     35 C         -34.3994   -8.2650   29.5851 C.ar    1  UNL1       -0.0036
@<TRIPOS>BOND
     1     3     4    1
     2     4     5    1
     3     6    10    1
     4     4    11    1
     5    10    12    1
     6    11    12    1
     7     7    13    1
     8    13    14   am
     9    14    15    1
    10    13    16    2
    11    12    22    2
    12    18    23    1
    13    23    24    1
    14    23    30    1
    15     6     5    1
    16    24    25   ar
    17    25    26   ar
    18    26    27   ar
    19    27    28   ar
    20    28    29   ar
    21    29    24   ar
    22     1     2   ar
    23     2     3   ar
    24     3     9   ar
    25     9     8   ar
    26     8     7   ar
    27     7     1   ar
    28    30    31   ar
    29    31    32   ar
    30    32    33   ar
    31    33    34   ar
    32    34    35   ar
    33    35    30   ar
    34    15    17   ar
    35    17    18   ar
    36    18    19   ar
    37    19    20   ar
    38    20    21   ar
    39    21    15   ar
