@<TRIPOS>MOLECULE
No_2246-gen_results/8p0m/2024-11-26-14-13-15/
 19 20 0 0 0
SMALL
GASTEIGER

@<TRIPOS>ATOM
      1 C         -28.0162   -0.8135   28.8779 C.3     1  UNL1        0.0181
      2 C         -27.0636   -0.1190   28.6079 C.3     1  UNL1        0.0269
      3 C         -25.7923   -0.4302   29.0761 C.2     1  UNL1       -0.0261
      4 C         -25.2700   -0.0487   30.0123 C.2     1  UNL1       -0.0049
      5 C         -28.5191   -0.6302   30.0918 C.3     1  UNL1        0.0989
      6 C         -27.6457   -0.5646   31.3559 C.2     1  UNL1       -0.0174
      7 C         -26.2550   -0.2092   31.4004 C.2     1  UNL1       -0.0044
      8 C         -29.8542   -1.0864   30.5161 C.2     1  UNL1        0.2293
      9 N         -30.7685   -0.5586   29.8019 N.am    1  UNL1       -0.2765
     10 C         -30.7507    0.5849   29.3621 C.3     1  UNL1        0.1093
     11 C         -31.8770    1.0293   28.4239 C.3     1  UNL1        0.0774
     12 C         -32.1701   -1.0193   29.8736 C.3     1  UNL1        0.1107
     13 C         -33.0786   -0.7657   28.9487 C.3     1  UNL1        0.0939
     14 N         -33.0355    0.5063   28.4699 N.3     1  UNL1       -0.2697
     15 O         -30.0378   -1.9691   31.3808 O.2     1  UNL1       -0.2745
     16 C         -33.9004    0.7715   27.2594 C.3     1  UNL1        0.0897
     17 C         -31.6590    2.3745   27.7021 C.3     1  UNL1        0.0164
     18 C         -30.4907    3.1312   27.9860 C.3     1  UNL1        0.0014
     19 C         -32.5804    2.7530   26.7928 C.3     1  UNL1        0.0014
@<TRIPOS>BOND
     1     1     2    1
     2     2     3    1
     3     3     4    2
     4     1     5    1
     5     5     6    1
     6     4     7    1
     7     6     7    2
     8     5     8    1
     9     8     9   am
    10     9    10    1
    11     9    12    1
    12    12    13    1
    13    11    14    1
    14    13    14    1
    15     8    15    2
    16    14    16    1
    17    11    17    1
    18    17    18    1
    19    17    19    1
    20    11    10    1
