@<TRIPOS>MOLECULE
No_2248-gen_results/8p0m/2024-11-26-14-13-15/
 20 22 0 0 0
SMALL
GASTEIGER

@<TRIPOS>ATOM
      1 C         -28.0162   -0.8135   28.8779 C.ar    1  UNL1        0.0015
      2 C         -27.0636   -0.1190   28.6079 C.ar    1  UNL1        0.0000
      3 C         -25.7923   -0.4302   29.0761 C.ar    1  UNL1        0.0000
      4 C         -24.5456    0.3494   28.8225 C.ar    1  UNL1        0.0000
      5 C         -23.2409    0.0217   29.3323 C.ar    1  UNL1        0.0000
      6 C         -27.8820   -1.8995   29.8633 C.ar    1  UNL1        0.0191
      7 C         -26.6526   -2.3142   30.3138 C.ar    1  UNL1        0.0015
      8 C         -25.5153   -1.5607   29.9787 C.ar    1  UNL1        0.0000
      9 C         -22.1588    0.7866   28.9507 C.ar    1  UNL1        0.0000
     10 C         -22.1309    1.7439   27.9818 C.ar    1  UNL1        0.0000
     11 C         -24.3467    1.2383   27.6692 C.ar    1  UNL1        0.0000
     12 C         -23.2713    1.9480   27.3587 C.ar    1  UNL1        0.0000
     13 C         -29.0481   -2.7255   30.2948 C.2     1  UNL1        0.0988
     14 N         -28.9460   -4.0187   30.4062 N.2     1  UNL1       -0.2438
     15 C         -30.0416   -4.7965   30.7440 C.ar    1  UNL1        0.0814
     16 C         -29.9700   -6.0038   31.2496 C.ar    1  UNL1        0.0191
     17 C         -30.9064   -7.0762   31.0956 C.ar    1  UNL1        0.0015
     18 C         -32.1177   -6.7129   30.4832 C.ar    1  UNL1        0.0001
     19 C         -31.0879   -4.8151   29.7679 C.ar    1  UNL1        0.0191
     20 C         -32.1184   -5.6069   29.7079 C.ar    1  UNL1        0.0015
@<TRIPOS>BOND
     1     3     4    1
     2     6    13    1
     3    13    14    2
     4    14    15    1
     5    15    16   ar
     6    16    17   ar
     7    17    18   ar
     8    18    20   ar
     9    20    19   ar
    10    19    15   ar
    11     1     2   ar
    12     2     3   ar
    13     3     8   ar
    14     8     7   ar
    15     7     6   ar
    16     6     1   ar
    17     4     5   ar
    18     5     9   ar
    19     9    10   ar
    20    10    12   ar
    21    12    11   ar
    22    11     4   ar
