@<TRIPOS>MOLECULE
No_2249-gen_results/8p0m/2024-11-26-14-13-15/
 22 23 0 0 0
SMALL
GASTEIGER

@<TRIPOS>ATOM
      1 C         -28.0162   -0.8135   28.8779 C.ar    1  UNL1        0.0552
      2 C         -27.0636   -0.1190   28.6079 C.ar    1  UNL1        0.0046
      3 C         -27.0010    0.6913   27.4910 C.ar    1  UNL1        0.0003
      4 C         -28.1373    0.7363   26.6350 C.ar    1  UNL1        0.0046
      5 C         -29.2360    0.0765   27.0690 C.ar    1  UNL1        0.0552
      6 C         -29.2177   -0.6429   28.1747 C.ar    1  UNL1        0.0091
      7 C         -28.0030   -1.6604   30.1266 C.2     1  UNL1        0.2648
      8 O         -28.6910   -1.7921   30.8886 O.2     1  UNL1       -0.2684
      9 N         -26.8311   -2.5697   30.0583 N.am    1  UNL1       -0.2013
     10 C         -30.4336    0.1824   26.2068 C.2     1  UNL1        0.2648
     11 O         -30.4775    0.2190   25.0038 O.2     1  UNL1       -0.2684
     12 N         -31.6518    0.0061   26.8514 N.am    1  UNL1       -0.1998
     13 C         -32.8877   -0.0162   26.1395 C.3     1  UNL1        0.1388
     14 C         -25.7165   -2.4185   29.2569 C.3     1  UNL1        0.1201
     15 C         -24.5411   -2.3554   29.9541 C.3     1  UNL1        0.0498
     16 C         -23.8155   -1.0265   29.9069 C.ar    1  UNL1       -0.0182
     17 C         -22.8000   -0.8433   28.9312 C.ar    1  UNL1       -0.0041
     18 C         -22.2405    0.4307   28.7607 C.ar    1  UNL1        0.0020
     19 C         -22.9119    1.5053   29.3039 C.ar    1  UNL1        0.0296
     20 C         -23.8968    1.3938   30.2559 C.ar    1  UNL1        0.1398
     21 C         -24.4217    0.0441   30.5534 C.ar    1  UNL1        0.0254
     22 F         -24.3925    2.4376   30.8807 F       1  UNL1       -0.2042
@<TRIPOS>BOND
     1     1     7    1
     2     7     8    2
     3     7     9   am
     4     5    10    1
     5    10    11    2
     6    10    12   am
     7    12    13    1
     8     9    14    1
     9    14    15    1
    10    15    16    1
    11    20    22    1
    12     1     2   ar
    13     2     3   ar
    14     3     4   ar
    15     4     5   ar
    16     5     6   ar
    17     6     1   ar
    18    16    17   ar
    19    17    18   ar
    20    18    19   ar
    21    19    20   ar
    22    20    21   ar
    23    21    16   ar
