@<TRIPOS>MOLECULE
No_225-gen_results/8p0m/2024-11-26-14-13-15/
 35 37 0 0 0
SMALL
GASTEIGER

@<TRIPOS>ATOM
      1 C         -28.0162   -0.8135   28.8779 C.ar    1  UNL1       -0.0012
      2 C         -27.0636   -0.1189   28.6079 C.ar    1  UNL1       -0.0001
      3 C         -25.7647   -0.3897   29.0360 C.ar    1  UNL1        0.0029
      4 C         -25.5296   -1.5302   29.9014 C.ar    1  UNL1       -0.0001
      5 C         -26.6888   -2.2893   30.1810 C.ar    1  UNL1       -0.0012
      6 C         -27.8727   -1.9508   29.7373 C.ar    1  UNL1        0.0139
      7 C         -29.0016   -2.8142   30.1793 C.3     1  UNL1        0.1907
      8 N         -28.8271   -4.0755   30.4770 N.3     1  UNL1       -0.1940
      9 N         -30.2126   -2.3195   30.2766 N.am    1  UNL1       -0.1844
     10 C         -31.2181   -3.1377   30.6365 C.2     1  UNL1        0.2523
     11 C         -29.7645   -4.9384   30.8310 C.3     1  UNL1        0.1086
     12 C         -31.0316   -4.4727   30.9244 C.3     1  UNL1        0.1901
     13 C         -32.1671   -5.3181   31.3294 C.3     1  UNL1        0.4070
     14 F         -33.2632   -5.0184   31.4595 F       1  UNL1       -0.1694
     15 F         -32.1386   -6.4639   30.4419 F       1  UNL1       -0.1694
     16 F         -31.8094   -5.9842   32.5231 F       1  UNL1       -0.1694
     17 C         -24.5434    0.4113   28.6739 C.ar    1  UNL1        0.0348
     18 C         -24.5895    1.2580   27.6061 C.ar    1  UNL1        0.0144
     19 C         -23.6506    1.9358   27.2526 C.ar    1  UNL1        0.0579
     20 C         -22.3306    1.8365   27.8278 C.ar    1  UNL1        0.0145
     21 C         -23.2014    0.2242   29.1606 C.ar    1  UNL1        0.1386
     22 C         -22.1269    0.9157   28.7681 C.ar    1  UNL1        0.0378
     23 CL        -23.7667    3.1687   25.9532 Cl      1  UNL1       -0.0822
     24 O         -32.3714   -2.6281   30.7081 O.2     1  UNL1       -0.2729
     25 O         -23.0283   -0.6725   30.2209 O.3     1  UNL1       -0.4727
     26 C         -22.8290   -0.3428   31.5136 C.3     1  UNL1        0.2373
     27 C         -23.0162   -1.4556   32.4162 C.3     1  UNL1        0.1900
     28 O         -24.3415   -1.5006   32.8439 O.3     1  UNL1       -0.3389
     29 C         -24.7123   -0.5255   33.7619 C.3     1  UNL1        0.2521
     30 C         -25.7356    0.3207   33.3941 C.2     1  UNL1        0.3475
     31 O         -26.8497   -0.0684   33.2398 O.2     1  UNL1       -0.2473
     32 O         -25.5821    1.6148   33.4305 O.3     1  UNL1       -0.4468
     33 C         -26.0507    2.4659   32.3801 C.3     1  UNL1        0.2085
     34 C         -25.0257    3.1863   31.7530 C.3     1  UNL1        0.0474
     35 C         -24.8758    4.5066   32.2386 C.3     1  UNL1        0.0040
@<TRIPOS>BOND
     1     6     7    1
     2     7     8    1
     3     9    10   am
     4    10    12    1
     5    11    12    1
     6    12    13    1
     7    13    14    1
     8    13    15    1
     9    13    16    1
    10     3    17    1
    11    19    23    1
    12    10    24    2
    13    21    25    1
    14    25    26    1
    15    26    27    1
    16    27    28    1
    17    28    29    1
    18    29    30    1
    19    30    31    2
    20    30    32    1
    21    32    33    1
    22    33    34    1
    23    34    35    1
    24     9     7    1
    25     8    11    1
    26     1     2   ar
    27     2     3   ar
    28     3     4   ar
    29     4     5   ar
    30     5     6   ar
    31     6     1   ar
    32    17    18   ar
    33    18    19   ar
    34    19    20   ar
    35    20    22   ar
    36    22    21   ar
    37    21    17   ar
