@<TRIPOS>MOLECULE
No_2250-gen_results/8p0m/2024-11-26-14-13-15/
 19 20 0 0 0
SMALL
GASTEIGER

@<TRIPOS>ATOM
      1 C         -28.0162   -0.8135   28.8779 C.3     1  UNL1        0.0992
      2 C         -27.0636   -0.1189   28.6079 C.ar    1  UNL1       -0.0046
      3 C         -26.9716    0.7139   27.5060 C.ar    1  UNL1        0.0162
      4 C         -25.8205    1.4909   27.1160 C.ar    1  UNL1        0.0051
      5 C         -24.6562    1.4242   27.9180 C.ar    1  UNL1        0.0476
      6 C         -24.7114    0.5419   29.0507 C.ar    1  UNL1        0.0036
      7 C         -25.8042   -0.2058   29.3881 C.ar    1  UNL1       -0.0027
      8 N         -28.7233   -0.6113   29.9885 N.3     1  UNL1       -0.2690
      9 C         -29.8128   -1.4112   30.4034 C.3     1  UNL1        0.0724
     10 C         -23.4660    2.1584   27.6247 C.2     1  UNL1        0.2416
     11 N         -23.2326    2.6386   26.4363 N.2     1  UNL1       -0.1156
     12 F         -22.4466    2.0294   28.3856 F       1  UNL1       -0.1815
     13 C         -30.5313   -1.1102   31.4940 C.3     1  UNL1        0.0174
     14 C         -28.5093    0.4414   30.9141 C.3     1  UNL1        0.0724
     15 C         -29.2075    0.7571   31.9983 C.3     1  UNL1        0.0174
     16 C         -30.2338   -0.0534   32.3420 C.3     1  UNL1        0.0029
     17 C         -28.0782    0.8510   26.5841 C.2     1  UNL1        0.0929
     18 N         -28.0253    1.0288   25.4297 N.2     1  UNL1       -0.2668
     19 C         -29.1094    1.0800   24.5804 C.3     1  UNL1        0.1517
@<TRIPOS>BOND
     1     1     8    1
     2     8     9    1
     3     5    10    1
     4    10    11    2
     5    10    12    1
     6     8    14    1
     7    13    16    1
     8    15    16    1
     9     3    17    1
    10    17    18    2
    11    18    19    1
    12     1     2    1
    13     9    13    1
    14    15    14    1
    15     2     3   ar
    16     3     4   ar
    17     4     5   ar
    18     5     6   ar
    19     6     7   ar
    20     7     2   ar
