@<TRIPOS>MOLECULE
No_2251-gen_results/8p0m/2024-11-26-14-13-15/
 35 37 0 0 0
SMALL
GASTEIGER

@<TRIPOS>ATOM
      1 C         -28.0162   -0.8135   28.8779 C.ar    1  UNL1        0.0153
      2 C         -28.4690   -0.7850   29.8287 C.ar    1  UNL1        0.0613
      3 C         -26.5042   -0.7777   28.8766 C.ar    1  UNL1        0.0051
      4 C         -25.8103   -0.8531   30.1028 C.ar    1  UNL1        0.0715
      5 C         -27.9864   -0.8420   31.0657 C.ar    1  UNL1        0.0153
      6 C         -26.6147   -0.8427   31.2304 C.ar    1  UNL1        0.0051
      7 C         -24.3918   -0.7954   30.1617 C.3     1  UNL1        0.4186
      8 F         -23.8376   -1.6463   29.4561 F       1  UNL1       -0.1659
      9 F         -23.7490   -1.0229   31.2852 F       1  UNL1       -0.1659
     10 F         -23.9243    0.4291   29.7196 F       1  UNL1       -0.1659
     11 N         -29.9761   -0.7961   29.7519 N.am    1  UNL1       -0.2008
     12 C         -30.6966    0.2765   30.0838 C.ar    1  UNL1        0.0615
     13 C         -30.0363    1.3479   30.3841 C.ar    1  UNL1        0.0153
     14 C         -30.8334    2.5881   30.6971 C.ar    1  UNL1        0.0014
     15 C         -32.1133    2.5293   30.5406 C.ar    1  UNL1        0.0047
     16 C         -32.0803    0.2079   29.9608 C.ar    1  UNL1        0.0199
     17 C         -32.7919    1.3850   30.2350 C.ar    1  UNL1        0.0566
     18 C         -30.5882   -2.0292   29.4547 C.2     1  UNL1        0.4546
     19 O         -31.6395   -2.0862   28.9742 O.co2   1  UNL1       -0.2216
     20 O         -29.9433   -3.0760   29.8621 O.co2   1  UNL1       -0.2216
     21 C         -34.2754    1.3577   30.1320 C.2     1  UNL1        0.2690
     22 N         -35.0300    2.1900   30.4668 N.am    1  UNL1       -0.1754
     23 O         -34.7888    0.1675   29.9564 O.2     1  UNL1       -0.2680
     24 C         -36.4630    2.1857   30.4377 C.ar    1  UNL1        0.0737
     25 C         -37.0389    3.2888   30.3958 C.ar    1  UNL1        0.0168
     26 C         -38.4038    3.4430   30.4031 C.ar    1  UNL1        0.0059
     27 C         -39.1554    2.2087   30.4007 C.ar    1  UNL1        0.0555
     28 C         -38.4983    1.0200   30.4098 C.ar    1  UNL1        0.0059
     29 C         -37.1296    0.9749   30.4724 C.ar    1  UNL1        0.0168
     30 C         -40.6225    2.2588   30.3754 C.2     1  UNL1        0.2690
     31 N         -41.2052    3.2654   30.7999 N.am    1  UNL1       -0.1745
     32 O         -41.2031    1.2569   29.9430 O.2     1  UNL1       -0.2680
     33 C         -42.6631    3.3851   30.8161 C.2     1  UNL1        0.0844
     34 C         -43.4889    2.7642   30.9754 C.2     1  UNL1       -0.0079
     35 C         -44.8860    3.0178   30.9679 C.3     1  UNL1        0.0321
@<TRIPOS>BOND
     1     4     7    1
     2     7     8    1
     3     7     9    1
     4     7    10    1
     5     2    11    1
     6    11    12    1
     7    11    18   am
     8    18    19   ar
     9    18    20   ar
    10    17    21    1
    11    21    22   am
    12    21    23    2
    13    22    24    1
    14    27    30    1
    15    30    31   am
    16    30    32    2
    17    31    33    1
    18    33    34    2
    19    34    35    1
    20    12    13   ar
    21    13    14   ar
    22    14    15   ar
    23    15    17   ar
    24    17    16   ar
    25    16    12   ar
    26    24    25   ar
    27    25    26   ar
    28    26    27   ar
    29    27    28   ar
    30    28    29   ar
    31    29    24   ar
    32     1     2   ar
    33     2     5   ar
    34     5     6   ar
    35     6     4   ar
    36     4     3   ar
    37     3     1   ar
