@<TRIPOS>MOLECULE
No_2252-gen_results/8p0m/2024-11-26-14-13-15/
 13 14 0 0 0
SMALL
GASTEIGER

@<TRIPOS>ATOM
      1 C         -28.0162   -0.8135   28.8779 C.ar    1  UNL1       -0.0003
      2 C         -28.4690   -0.7850   29.8287 C.ar    1  UNL1       -0.0000
      3 C         -26.5042   -0.7777   28.8766 C.ar    1  UNL1       -0.0039
      4 C         -25.9150   -0.6580   29.9230 C.ar    1  UNL1       -0.0178
      5 C         -27.9691   -0.7243   31.2047 C.ar    1  UNL1       -0.0003
      6 C         -26.5847   -0.6393   31.2062 C.ar    1  UNL1       -0.0039
      7 C         -24.4026   -0.5847   30.0419 C.3     1  UNL1        0.0526
      8 C         -23.6753   -0.1487   28.9955 C.ar    1  UNL1       -0.0178
      9 C         -22.5262    0.3897   29.0332 C.ar    1  UNL1       -0.0039
     10 C         -21.9192    0.9170   27.8544 C.ar    1  UNL1       -0.0003
     11 C         -22.7471    1.3656   26.8107 C.ar    1  UNL1       -0.0000
     12 C         -24.0877    1.0977   26.8708 C.ar    1  UNL1       -0.0003
     13 C         -24.6317    0.4002   27.9438 C.ar    1  UNL1       -0.0039
@<TRIPOS>BOND
     1     4     7    1
     2     7     8    1
     3     8     9   ar
     4     9    10   ar
     5    10    11   ar
     6    11    12   ar
     7    12    13   ar
     8    13     8   ar
     9     1     2   ar
    10     2     5   ar
    11     5     6   ar
    12     6     4   ar
    13     4     3   ar
    14     3     1   ar
