@<TRIPOS>MOLECULE
No_2253-gen_results/8p0m/2024-11-26-14-13-15/
 7 6 0 0 0
SMALL
GASTEIGER

@<TRIPOS>ATOM
      1 C         -28.0162   -0.8135   28.8779 C.2     1  UNL1       -0.0081
      2 C         -27.0636   -0.1189   28.6079 C.2     1  UNL1       -0.0311
      3 C         -26.8756    1.1325   28.9134 C.3     1  UNL1        0.0981
      4 C         -25.6883    1.9515   28.5672 C.1     1  UNL1       -0.0866
      5 C         -24.6394    1.2834   27.8753 C.1     1  UNL1       -0.0897
      6 C         -23.4674    1.9392   27.5210 C.3     1  UNL1        0.0900
      7 C         -25.8585   -0.7372   27.9198 C.3     1  UNL1        0.0274
@<TRIPOS>BOND
     1     1     2    2
     2     2     3    1
     3     3     4    1
     4     4     5    3
     5     5     6    1
     6     2     7    1
