@<TRIPOS>MOLECULE
No_2255-gen_results/8p0m/2024-11-26-14-13-15/
 12 13 0 0 0
SMALL
GASTEIGER

@<TRIPOS>ATOM
      1 C         -28.0162   -0.8135   28.8779 C.ar    1  UNL1       -0.0003
      2 C         -28.4690   -0.7850   29.8287 C.ar    1  UNL1       -0.0000
      3 C         -28.1960    0.3478   28.0550 C.ar    1  UNL1       -0.0043
      4 C         -27.4421    0.5100   26.7946 C.ar    1  UNL1       -0.0222
      5 C         -26.1689   -0.0794   26.6787 C.ar    1  UNL1       -0.0043
      6 C         -25.7312   -0.9607   27.6875 C.ar    1  UNL1       -0.0003
      7 C         -26.1461   -0.9085   28.7825 C.ar    1  UNL1       -0.0000
      8 C         -28.0971   -1.8474   30.8848 C.ar    1  UNL1       -0.0000
      9 C         -26.7672   -2.2795   30.9065 C.ar    1  UNL1       -0.0000
     10 C         -26.0253   -2.3105   29.6048 C.ar    1  UNL1       -0.0000
     11 C         -27.8929    1.3432   25.6878 C.3     1  UNL1        0.0264
     12 C         -28.2535    0.7742   24.5140 C.3     1  UNL1        0.0050
@<TRIPOS>BOND
     1     4    11    1
     2    11    12    1
     3     1     2   ar
     4     2     8   ar
     5     8     9   ar
     6     9    10   ar
     7    10     7   ar
     8     1     3   ar
     9     3     4   ar
    10     4     5   ar
    11     5     6   ar
    12     6     7   ar
    13     7     1   ar
