@<TRIPOS>MOLECULE
No_2257-gen_results/8p0m/2024-11-26-14-13-15/
 7 6 0 0 0
SMALL
GASTEIGER

@<TRIPOS>ATOM
      1 F         -28.0727   -1.2542   28.5316 F       1  UNL1       -0.1659
      2 C         -27.0607   -0.6291   28.8721 C.3     1  UNL1        0.4182
      3 F         -26.4722   -0.5474   28.0086 F       1  UNL1       -0.1659
      4 F         -26.4368   -1.4050   29.8551 F       1  UNL1       -0.1659
      5 C         -27.3897    0.6485   29.6104 C.2     1  UNL1        0.0708
      6 C         -27.2396    0.7707   30.9089 C.2     1  UNL1       -0.0220
      7 C         -26.5645   -0.3014   31.6817 C.3     1  UNL1        0.0306
@<TRIPOS>BOND
     1     1     2    1
     2     2     3    1
     3     2     4    1
     4     2     5    1
     5     5     6    2
     6     6     7    1
