@<TRIPOS>MOLECULE
No_2258-gen_results/8p0m/2024-11-26-14-13-15/
 12 13 0 0 0
SMALL
GASTEIGER

@<TRIPOS>ATOM
      1 C         -28.0162   -0.8135   28.8779 C.ar    1  UNL1        0.0000
      2 C         -27.0636   -0.1189   28.6079 C.ar    1  UNL1        0.0000
      3 C         -25.7647   -0.3897   29.0360 C.ar    1  UNL1        0.0000
      4 C         -25.4887   -1.1536   29.7171 C.ar    1  UNL1        0.0000
      5 C         -26.4902   -2.1223   30.2112 C.ar    1  UNL1        0.0000
      6 C         -27.7302   -1.9094   29.8268 C.ar    1  UNL1        0.0000
      7 C         -24.6459    0.6287   28.5254 C.ar    1  UNL1        0.0000
      8 C         -24.6119    1.3371   27.5056 C.ar    1  UNL1        0.0000
      9 C         -23.5427    2.0385   27.0869 C.ar    1  UNL1        0.0000
     10 C         -22.2865    1.9563   27.6701 C.ar    1  UNL1        0.0000
     11 C         -23.3152    0.4568   29.2359 C.ar    1  UNL1        0.0000
     12 C         -22.1870    1.1142   28.8000 C.ar    1  UNL1        0.0000
@<TRIPOS>BOND
     1     3     7    1
     2     7     8   ar
     3     8     9   ar
     4     9    10   ar
     5    10    12   ar
     6    12    11   ar
     7    11     7   ar
     8     1     2   ar
     9     2     3   ar
    10     3     4   ar
    11     4     5   ar
    12     5     6   ar
    13     6     1   ar
