@<TRIPOS>MOLECULE
No_226-gen_results/8p0m/2024-11-26-14-13-15/
 27 29 0 0 0
SMALL
GASTEIGER

@<TRIPOS>ATOM
      1 C         -28.0162   -0.8135   28.8779 C.ar    1  UNL1        0.0053
      2 C         -28.4690   -0.7850   29.8287 C.ar    1  UNL1        0.0678
      3 C         -26.5455   -0.8762   28.8500 C.ar    1  UNL1       -0.0038
      4 C         -25.8041   -1.0324   30.0571 C.ar    1  UNL1       -0.0184
      5 C         -27.9437   -0.9869   31.2075 C.ar    1  UNL1        0.0053
      6 C         -26.5825   -1.0386   31.2231 C.ar    1  UNL1       -0.0038
      7 C         -30.0606   -0.7371   29.9024 C.2     1  UNL1        0.3334
      8 O         -30.7252   -1.5544   30.2697 O.2     1  UNL1       -0.2541
      9 F         -30.5270    0.3280   29.3297 F       1  UNL1       -0.1586
     10 C         -24.3746   -1.0938   30.0697 C.3     1  UNL1        0.0446
     11 C         -23.6709   -1.7172   30.4718 C.3     1  UNL1        0.0094
     12 C         -23.7987    0.0744   29.2152 C.ar    1  UNL1       -0.0183
     13 C         -24.3028    1.1116   28.6504 C.ar    1  UNL1        0.0006
     14 C         -23.5266    1.9190   27.8294 C.ar    1  UNL1        0.0551
     15 C         -22.1011    1.7793   27.8323 C.ar    1  UNL1        0.0046
     16 C         -22.2733    0.0634   29.1184 C.ar    1  UNL1       -0.0040
     17 C         -21.5057    0.8376   28.4645 C.ar    1  UNL1       -0.0002
     18 C         -24.1379    3.1107   27.1276 C.2     1  UNL1        0.2690
     19 N         -24.8335    3.9507   27.7528 N.am    1  UNL1       -0.1746
     20 C         -26.0433    4.1801   27.7737 C.ar    1  UNL1        0.0842
     21 C         -26.8211    4.2161   28.6152 C.ar    1  UNL1        0.0730
     22 C         -28.2792    4.3190   28.5366 C.ar    1  UNL1        0.0127
     23 C         -28.7554    4.5557   27.2721 C.ar    1  UNL1        0.0010
     24 C         -27.9348    4.5692   26.1937 C.ar    1  UNL1        0.0014
     25 C         -26.5455    4.3844   26.3393 C.ar    1  UNL1        0.0175
     26 O         -24.0419    3.1558   25.8785 O.2     1  UNL1       -0.2680
     27 CL        -26.3130    3.9349   30.3164 Cl      1  UNL1       -0.0809
@<TRIPOS>BOND
     1     2     7    1
     2     7     8    2
     3     7     9    1
     4     4    10    1
     5    10    11    1
     6    10    12    1
     7    14    18    1
     8    18    19   am
     9    19    20    1
    10    18    26    2
    11    21    27    1
    12    12    13   ar
    13    13    14   ar
    14    14    15   ar
    15    15    17   ar
    16    17    16   ar
    17    16    12   ar
    18     1     2   ar
    19     2     5   ar
    20     5     6   ar
    21     6     4   ar
    22     4     3   ar
    23     3     1   ar
    24    20    21   ar
    25    21    22   ar
    26    22    23   ar
    27    23    24   ar
    28    24    25   ar
    29    25    20   ar
