@<TRIPOS>MOLECULE
No_2260-gen_results/8p0m/2024-11-26-14-13-15/
 19 20 0 0 0
SMALL
GASTEIGER

@<TRIPOS>ATOM
      1 F         -28.0727   -1.2542   28.5316 F       1  UNL1       -0.2010
      2 C         -27.3591   -0.3792   28.7224 C.ar    1  UNL1        0.1738
      3 C         -26.3323   -0.6441   29.4520 C.ar    1  UNL1        0.0328
      4 C         -25.2562    0.3203   29.7818 C.ar    1  UNL1        0.0025
      5 C         -25.4242    1.6275   29.2026 C.ar    1  UNL1        0.0033
      6 C         -26.5263    1.8254   28.4032 C.ar    1  UNL1        0.0392
      7 C         -27.4513    0.8601   28.1355 C.ar    1  UNL1        0.1657
      8 O         -28.4783    1.1476   27.3388 O.3     1  UNL1       -0.4743
      9 C         -28.2967    1.1110   26.0067 C.3     1  UNL1        0.1952
     10 C         -29.2807    0.4981   25.2430 C.3     1  UNL1        0.0393
     11 C         -30.2035   -0.1684   25.8969 C.3     1  UNL1        0.0035
     12 C         -31.3612   -0.0384   25.5213 C.3     1  UNL1        0.0001
     13 C         -31.6843    0.2244   24.0960 C.3     1  UNL1        0.0000
     14 C         -30.7039    0.8672   23.3867 C.3     1  UNL1        0.0001
     15 C         -29.7437    1.4824   24.2841 C.3     1  UNL1        0.0035
     16 C         -27.0609    1.6690   25.4794 C.3     1  UNL1        0.1855
     17 C         -28.4075   -0.5834   24.3509 C.3     1  UNL1        0.0037
     18 O         -28.2249    2.1782   25.9263 O.3     1  UNL1       -0.3473
     19 C         -28.6855    3.1672   26.8455 C.3     1  UNL1        0.1743
@<TRIPOS>BOND
     1     1     2    1
     2     7     8    1
     3     8     9    1
     4     9    10    1
     5    10    11    1
     6    12    13    1
     7    10    15    1
     8    14    15    1
     9     9    16    1
    10    10    17    1
    11    16    18    1
    12    18    19    1
    13    11    12    1
    14    13    14    1
    15     2     3   ar
    16     3     4   ar
    17     4     5   ar
    18     5     6   ar
    19     6     7   ar
    20     7     2   ar
