@<TRIPOS>MOLECULE
No_2262-gen_results/8p0m/2024-11-26-14-13-15/
 16 18 0 0 0
SMALL
GASTEIGER

@<TRIPOS>ATOM
      1 C         -28.0162   -0.8135   28.8779 C.ar    1  UNL1        0.0814
      2 C         -27.0636   -0.1189   28.6079 C.ar    1  UNL1        0.0177
      3 C         -25.7923   -0.4302   29.0761 C.ar    1  UNL1        0.0015
      4 C         -25.5756   -1.5654   29.9363 C.ar    1  UNL1        0.0001
      5 C         -26.7354   -2.3004   30.2173 C.ar    1  UNL1        0.0015
      6 C         -27.9184   -1.9537   29.7629 C.ar    1  UNL1        0.0191
      7 C         -27.1057    1.1023   27.7593 C.ar    1  UNL1        0.0031
      8 C         -27.8576    1.5309   27.2156 C.ar    1  UNL1        0.0207
      9 C         -29.2421    0.8816   27.2919 C.ar    1  UNL1        0.1150
     10 C         -30.1363    1.1221   26.2917 C.ar    1  UNL1        0.1562
     11 C         -29.8995    2.2403   25.4307 C.ar    1  UNL1        0.0385
     12 C         -28.7143    2.9514   25.3572 C.ar    1  UNL1        0.0032
     13 C         -27.7288    2.5759   26.1326 C.ar    1  UNL1        0.0017
     14 N         -29.2654   -0.4136   28.2983 N.ar    1  UNL1       -0.2423
     15 O         -31.3021    0.5563   26.3592 O.3     1  UNL1       -0.4699
     16 C         -31.5403   -0.5672   25.6021 C.3     1  UNL1        0.2525
@<TRIPOS>BOND
     1    10    15    1
     2    15    16    1
     3     2     3   ar
     4     3     4   ar
     5     4     5   ar
     6     5     6   ar
     7     6     1   ar
     8     9    10   ar
     9    10    11   ar
    10    11    12   ar
    11    12    13   ar
    12    13     8   ar
    13     1     2   ar
    14     2     7   ar
    15     7     8   ar
    16     8     9   ar
    17     9    14   ar
    18    14     1   ar
