@<TRIPOS>MOLECULE
No_2263-gen_results/8p0m/2024-11-26-14-13-15/
 13 13 0 0 0
SMALL
GASTEIGER

@<TRIPOS>ATOM
      1 C         -28.0162   -0.8135   28.8779 C.ar    1  UNL1        0.0045
      2 C         -28.4690   -0.7850   29.8287 C.ar    1  UNL1        0.0001
      3 C         -27.0871    0.2903   28.6377 C.ar    1  UNL1        0.0539
      4 C         -26.8317    1.2487   29.5869 C.ar    1  UNL1        0.0045
      5 C         -28.3914    0.0801   31.0065 C.ar    1  UNL1        0.0000
      6 C         -27.4940    1.1521   30.7841 C.ar    1  UNL1        0.0001
      7 C         -26.3109    0.3918   27.3640 C.2     1  UNL1        0.2528
      8 N         -25.1298    0.0734   27.3738 N.am    1  UNL1       -0.2525
      9 O         -26.8964    0.7261   26.2951 O.2     1  UNL1       -0.2696
     10 C         -24.2400    0.2466   26.1990 C.3     1  UNL1        0.1204
     11 C         -24.3524   -0.4204   28.5114 C.2     1  UNL1        0.0632
     12 C         -23.1668    0.2816   28.9293 C.2     1  UNL1       -0.0096
     13 C         -22.3459   -0.3341   29.8906 C.3     1  UNL1        0.0321
@<TRIPOS>BOND
     1     3     7    1
     2     7     8   am
     3     7     9    2
     4     8    10    1
     5     8    11    1
     6    11    12    2
     7    12    13    1
     8     1     2   ar
     9     2     5   ar
    10     5     6   ar
    11     6     4   ar
    12     4     3   ar
    13     3     1   ar
