@<TRIPOS>MOLECULE
No_2264-gen_results/8p0m/2024-11-26-14-13-15/
 12 13 0 0 0
SMALL
GASTEIGER

@<TRIPOS>ATOM
      1 C         -28.0162   -0.8135   28.8779 C.ar    1  UNL1        0.1971
      2 C         -27.0636   -0.1189   28.6079 C.ar    1  UNL1        0.0418
      3 C         -27.0010    0.6913   27.4910 C.ar    1  UNL1        0.0005
      4 C         -28.1373    0.7363   26.6350 C.ar    1  UNL1       -0.0040
      5 C         -29.2360    0.0765   27.0690 C.ar    1  UNL1        0.0804
      6 C         -29.2658   -0.3923   28.1737 C.ar    1  UNL1        0.0563
      7 O         -28.0752   -1.4886   30.0655 O.3     1  UNL1       -0.2865
      8 N         -30.2399    0.3535   26.0556 N.ar    1  UNL1       -0.2441
      9 C         -31.3962   -0.2735   26.2932 C.ar    1  UNL1        0.0988
     10 C         -31.6234   -1.0309   27.3319 C.ar    1  UNL1        0.0208
     11 C         -30.5690   -1.1216   28.3731 C.ar    1  UNL1        0.0063
     12 C         -28.1060    1.6184   25.5002 C.3     1  UNL1        0.0326
@<TRIPOS>BOND
     1     1     7    1
     2     4    12    1
     3     6    11   ar
     4    11    10   ar
     5    10     9   ar
     6     9     8   ar
     7     8     5   ar
     8     1     2   ar
     9     2     3   ar
    10     3     4   ar
    11     4     5   ar
    12     5     6   ar
    13     6     1   ar
