@<TRIPOS>MOLECULE
No_2265-gen_results/8p0m/2024-11-26-14-13-15/
 14 15 0 0 0
SMALL
GASTEIGER

@<TRIPOS>ATOM
      1 C         -28.0162   -0.8135   28.8779 C.ar    1  UNL1       -0.0003
      2 C         -28.4690   -0.7850   29.8287 C.ar    1  UNL1       -0.0000
      3 C         -27.1356    0.2359   28.5352 C.ar    1  UNL1       -0.0040
      4 C         -26.8745    1.2825   29.3982 C.ar    1  UNL1       -0.0184
      5 C         -28.3613    0.1987   30.9244 C.ar    1  UNL1       -0.0003
      6 C         -25.9723    2.3852   29.1040 C.3     1  UNL1        0.0446
      7 C         -27.5118    1.2316   30.6323 C.ar    1  UNL1       -0.0040
      8 C         -25.3009    2.5053   28.0335 C.ar    1  UNL1       -0.0184
      9 C         -24.7278    1.4799   27.3812 C.ar    1  UNL1       -0.0040
     10 C         -24.0263    1.7088   26.1686 C.ar    1  UNL1       -0.0003
     11 C         -23.9584    3.0129   25.6867 C.ar    1  UNL1       -0.0000
     12 C         -24.5038    4.1402   26.3650 C.ar    1  UNL1       -0.0003
     13 C         -25.1256    3.9113   27.5229 C.ar    1  UNL1       -0.0040
     14 C         -24.9209    2.5827   30.3211 C.3     1  UNL1        0.0094
@<TRIPOS>BOND
     1     4     6    1
     2     6    14    1
     3     6     8    1
     4     8     9   ar
     5     9    10   ar
     6    10    11   ar
     7    11    12   ar
     8    12    13   ar
     9    13     8   ar
    10     1     2   ar
    11     2     5   ar
    12     5     7   ar
    13     7     4   ar
    14     4     3   ar
    15     3     1   ar
