@<TRIPOS>MOLECULE
No_2266-gen_results/8p0m/2024-11-26-14-13-15/
 15 16 0 0 0
SMALL
GASTEIGER

@<TRIPOS>ATOM
      1 C         -28.0162   -0.8135   28.8779 C.ar    1  UNL1        0.0086
      2 C         -27.0636   -0.1190   28.6079 C.ar    1  UNL1        0.0574
      3 C         -25.7923   -0.4302   29.0761 C.ar    1  UNL1        0.0114
      4 C         -25.5756   -1.5654   29.9363 C.ar    1  UNL1        0.0006
      5 C         -26.7354   -2.3004   30.2173 C.ar    1  UNL1       -0.0027
      6 C         -27.9184   -1.9537   29.7629 C.ar    1  UNL1       -0.0025
      7 CL        -27.3552    1.2839   27.7056 Cl      1  UNL1       -0.0823
      8 C         -29.0553   -2.8109   30.1824 C.3     1  UNL1        0.1243
      9 CL        -29.0678   -4.3864   30.5834 Cl      1  UNL1       -0.1053
     10 C         -30.3400   -2.1112   30.3472 C.ar    1  UNL1       -0.0034
     11 C         -30.5031   -1.2309   31.1161 C.ar    1  UNL1       -0.0028
     12 C         -31.8305   -0.5521   31.2145 C.ar    1  UNL1       -0.0003
     13 C         -32.7956   -1.0706   30.3731 C.ar    1  UNL1       -0.0000
     14 C         -31.3798   -2.6203   29.5349 C.ar    1  UNL1       -0.0028
     15 C         -32.5403   -2.0558   29.5200 C.ar    1  UNL1       -0.0003
@<TRIPOS>BOND
     1     2     7    1
     2     6     8    1
     3     8     9    1
     4     8    10    1
     5     1     2   ar
     6     2     3   ar
     7     3     4   ar
     8     4     5   ar
     9     5     6   ar
    10     6     1   ar
    11    10    11   ar
    12    11    12   ar
    13    12    13   ar
    14    13    15   ar
    15    15    14   ar
    16    14    10   ar
