@<TRIPOS>MOLECULE
No_2267-gen_results/8p0m/2024-11-26-14-13-15/
 27 27 0 0 0
SMALL
GASTEIGER

@<TRIPOS>ATOM
      1 CL        -28.1493   -0.8198   28.9079 Cl      1  UNL1       -0.0453
      2 C         -28.5324   -0.0471   29.7727 C.3     1  UNL1        0.3480
      3 F         -29.6682   -0.0995   30.1894 F       1  UNL1       -0.1848
      4 C         -27.5674   -0.0766   31.0006 C.3     1  UNL1        0.1712
      5 F         -28.3579    1.2470   29.2780 F       1  UNL1       -0.1848
      6 N         -26.9172   -0.9583   31.3463 N.3     1  UNL1       -0.2036
      7 C         -25.5025   -0.8532   31.0879 C.3     1  UNL1        0.1150
      8 C         -24.9691   -0.6282   29.8092 C.2     1  UNL1       -0.0112
      9 C         -24.4319    0.3713   29.5650 C.2     1  UNL1       -0.0160
     10 C         -23.9481    0.7024   28.2282 C.3     1  UNL1        0.1234
     11 C         -23.0660    1.8085   27.9112 C.2     1  UNL1        0.2684
     12 C         -25.0569    0.7805   27.2531 C.2     1  UNL1       -0.0128
     13 N         -21.9868    1.9155   28.7963 N.am    1  UNL1       -0.0872
     14 O         -22.8268    2.2203   26.7329 O.2     1  UNL1       -0.2710
     15 C         -25.2697    1.1620   26.2685 C.2     1  UNL1       -0.0022
     16 C         -26.3547    0.7340   25.3692 C.ar    1  UNL1        0.0191
     17 C         -27.6540    0.8981   25.8435 C.ar    1  UNL1        0.0097
     18 C         -28.6986    0.3752   25.2095 C.ar    1  UNL1        0.0989
     19 C         -28.4294   -0.3260   24.0035 C.ar    1  UNL1        0.1054
     20 N         -27.1621   -0.5921   23.7259 N.ar    1  UNL1       -0.2421
     21 C         -26.1431   -0.1252   24.4065 C.ar    1  UNL1        0.0988
     22 C         -30.1123    0.6341   25.5166 C.2     1  UNL1        0.3893
     23 O         -30.4756    1.4986   26.2922 O.co2   1  UNL1       -0.2405
     24 O         -31.0161   -0.0899   24.9853 O.co2   1  UNL1       -0.2405
     25 C         -27.6327    1.0652   31.9742 C.2     1  UNL1       -0.0068
     26 C         -28.5844    1.1351   32.8567 C.2     1  UNL1       -0.0288
     27 C         -28.5754    2.2493   33.7635 C.3     1  UNL1        0.0304
@<TRIPOS>BOND
     1     1     2    1
     2     2     3    1
     3     2     4    1
     4     2     5    1
     5     4     6    1
     6     6     7    1
     7     7     8    1
     8     8     9    2
     9     9    10    1
    10    10    11    1
    11    10    12    1
    12    11    13   am
    13    11    14    2
    14    12    15    2
    15    15    16    1
    16    18    22    1
    17    22    23   ar
    18    22    24   ar
    19     4    25    1
    20    25    26    2
    21    26    27    1
    22    16    17   ar
    23    17    18   ar
    24    18    19   ar
    25    19    20   ar
    26    20    21   ar
    27    21    16   ar
