@<TRIPOS>MOLECULE
No_2269-gen_results/8p0m/2024-11-26-14-13-15/
 11 11 0 0 0
SMALL
GASTEIGER

@<TRIPOS>ATOM
      1 C         -28.0162   -0.8135   28.8779 C.ar    1  UNL1       -0.0026
      2 C         -28.4690   -0.7850   29.8287 C.ar    1  UNL1       -0.0003
      3 C         -27.0871    0.2903   28.6377 C.ar    1  UNL1       -0.0007
      4 C         -26.2516    0.4114   27.4223 C.3     1  UNL1        0.1386
      5 C         -28.3913    0.1041   30.9805 C.ar    1  UNL1       -0.0000
      6 C         -27.5332    1.1666   30.7866 C.ar    1  UNL1       -0.0003
      7 C         -26.8281    1.2557   29.6454 C.ar    1  UNL1       -0.0026
      8 N         -25.0637    0.2673   27.5265 N.pl3   1  UNL1       -0.2319
      9 C         -24.1412    1.1287   26.8758 C.2     1  UNL1        0.0759
     10 C         -22.8612    1.3453   27.5333 C.2     1  UNL1       -0.0084
     11 C         -22.0513    2.4091   27.2945 C.3     1  UNL1        0.0321
@<TRIPOS>BOND
     1     3     4    1
     2     4     8    1
     3     8     9    1
     4     9    10    2
     5    10    11    1
     6     1     2   ar
     7     2     5   ar
     8     5     6   ar
     9     6     7   ar
    10     7     3   ar
    11     3     1   ar
