@<TRIPOS>MOLECULE
No_227-gen_results/8p0m/2024-11-26-14-13-15/
 14 15 0 0 0
SMALL
GASTEIGER

@<TRIPOS>ATOM
      1 C         -28.0162   -0.8135   28.8779 C.ar    1  UNL1        0.0114
      2 C         -28.4690   -0.7850   29.8287 C.ar    1  UNL1        0.0577
      3 C         -27.1356    0.2359   28.5352 C.ar    1  UNL1        0.0010
      4 C         -26.8745    1.2825   29.3982 C.ar    1  UNL1        0.0064
      5 C         -28.3613    0.1987   30.9244 C.ar    1  UNL1        0.0114
      6 C         -27.5277    1.2234   30.6356 C.ar    1  UNL1        0.0011
      7 C         -26.3987    0.2949   27.2279 C.ar    1  UNL1        0.0000
      8 C         -25.8882    1.5487   26.8334 C.ar    1  UNL1        0.0002
      9 C         -25.5177    2.4958   27.7684 C.ar    1  UNL1        0.0066
     10 C         -26.1831    2.4486   29.0453 C.ar    1  UNL1        0.0798
     11 C         -25.9237    3.6064   29.9554 C.2     1  UNL1        0.3878
     12 O         -25.9701    4.7806   29.4784 O.co2   1  UNL1       -0.2406
     13 O         -25.2356    3.3064   31.0318 O.co2   1  UNL1       -0.2406
     14 CL        -29.5110   -2.2089   30.3993 Cl      1  UNL1       -0.0822
@<TRIPOS>BOND
     1    10    11    1
     2    11    12   ar
     3    11    13   ar
     4     2    14    1
     5     4    10   ar
     6    10     9   ar
     7     9     8   ar
     8     8     7   ar
     9     7     3   ar
    10     1     2   ar
    11     2     5   ar
    12     5     6   ar
    13     6     4   ar
    14     4     3   ar
    15     3     1   ar
