@<TRIPOS>MOLECULE
No_2270-gen_results/8p0m/2024-11-26-14-13-15/
 20 22 0 0 0
SMALL
GASTEIGER

@<TRIPOS>ATOM
      1 C         -28.0162   -0.8135   28.8779 C.ar    1  UNL1       -0.0039
      2 C         -28.4690   -0.7850   29.8287 C.ar    1  UNL1       -0.0003
      3 C         -28.1960    0.3478   28.0550 C.ar    1  UNL1       -0.0170
      4 C         -29.0191    1.3501   28.3782 C.ar    1  UNL1       -0.0036
      5 C         -29.4107    0.1803   30.3782 C.ar    1  UNL1       -0.0000
      6 C         -29.2236    2.4924   27.5425 C.ar    1  UNL1       -0.0003
      7 C         -29.5873    1.2242   29.6185 C.ar    1  UNL1       -0.0003
      8 C         -28.8767    3.6034   28.0657 C.ar    1  UNL1       -0.0000
      9 C         -29.1545    3.8376   29.5027 C.ar    1  UNL1       -0.0000
     10 C         -29.3948    2.6199   30.2722 C.ar    1  UNL1       -0.0000
     11 C         -27.5433    0.2591   26.6551 C.3     1  UNL1        0.0619
     12 C         -26.0493    0.2280   26.6406 C.ar    1  UNL1       -0.0170
     13 C         -25.3749    0.8965   25.6704 C.ar    1  UNL1       -0.0039
     14 C         -24.4599    1.8761   25.8920 C.ar    1  UNL1       -0.0003
     15 C         -23.6364    1.7962   27.1069 C.ar    1  UNL1       -0.0000
     16 C         -24.1704    0.8614   28.1130 C.ar    1  UNL1       -0.0003
     17 C         -25.4468    0.2590   27.9960 C.ar    1  UNL1       -0.0039
     18 C         -28.2259    0.0819   25.5146 C.3     1  UNL1        0.0974
     19 N         -29.4111    0.2421   25.2543 N.3     1  UNL1       -0.2158
     20 C         -30.0543   -0.1283   24.1853 C.3     1  UNL1        0.1075
@<TRIPOS>BOND
     1     3    11    1
     2    11    12    1
     3    11    18    1
     4    18    19    1
     5    19    20    1
     6    12    13   ar
     7    13    14   ar
     8    14    15   ar
     9    15    16   ar
    10    16    17   ar
    11    17    12   ar
    12     4     6   ar
    13     6     8   ar
    14     8     9   ar
    15     9    10   ar
    16    10     7   ar
    17     1     2   ar
    18     2     5   ar
    19     5     7   ar
    20     7     4   ar
    21     4     3   ar
    22     3     1   ar
