@<TRIPOS>MOLECULE
No_2271-gen_results/8p0m/2024-11-26-14-13-15/
 14 14 0 0 0
SMALL
GASTEIGER

@<TRIPOS>ATOM
      1 CL        -28.1493   -0.8198   28.9079 Cl      1  UNL1       -0.0823
      2 C         -26.9116   -0.0797   28.9452 C.ar    1  UNL1        0.0616
      3 C         -26.7384    1.0439   29.2534 C.ar    1  UNL1        0.0822
      4 C         -25.4392    1.7115   29.2755 C.ar    1  UNL1        0.0113
      5 C         -24.2813    0.9888   28.8542 C.ar    1  UNL1        0.0798
      6 C         -24.4869   -0.3041   28.4957 C.ar    1  UNL1        0.0074
      7 C         -25.7046   -0.8667   28.5244 C.ar    1  UNL1        0.0116
      8 C         -22.9690    1.6346   28.7977 C.2     1  UNL1        0.3877
      9 O         -21.9160    1.0426   28.7571 O.co2   1  UNL1       -0.2406
     10 O         -22.9930    2.9440   28.3935 O.co2   1  UNL1       -0.2406
     11 C         -27.8147    1.9695   29.7406 C.3     1  UNL1        0.4194
     12 F         -28.4979    1.7838   30.6792 F       1  UNL1       -0.1658
     13 F         -27.2419    3.2437   29.9177 F       1  UNL1       -0.1658
     14 F         -28.5556    2.2715   28.5340 F       1  UNL1       -0.1658
@<TRIPOS>BOND
     1     1     2    1
     2     5     8    1
     3     8     9   ar
     4     8    10   ar
     5     3    11    1
     6    11    12    1
     7    11    13    1
     8    11    14    1
     9     2     3   ar
    10     3     4   ar
    11     4     5   ar
    12     5     6   ar
    13     6     7   ar
    14     7     2   ar
