@<TRIPOS>MOLECULE
No_2272-gen_results/8p0m/2024-11-26-14-13-15/
 10 11 0 0 0
SMALL
GASTEIGER

@<TRIPOS>ATOM
      1 C         -28.0162   -0.8135   28.8779 C.ar    1  UNL1        0.0000
      2 C         -27.0636   -0.1189   28.6079 C.ar    1  UNL1        0.0000
      3 C         -27.0010    0.6913   27.4910 C.ar    1  UNL1        0.0000
      4 C         -25.7770    1.0214   26.9135 C.ar    1  UNL1        0.0000
      5 C         -24.5088    0.7364   27.5686 C.ar    1  UNL1        0.0000
      6 C         -24.5930   -0.0361   28.7390 C.ar    1  UNL1        0.0000
      7 C         -25.8114   -0.4771   29.1584 C.ar    1  UNL1        0.0000
      8 C         -28.1069   -1.4831   30.2046 C.ar    1  UNL1        0.0000
      9 C         -26.9076   -1.8560   30.8505 C.ar    1  UNL1        0.0000
     10 C         -25.7217   -1.3535   30.3451 C.ar    1  UNL1        0.0000
@<TRIPOS>BOND
     1     2     3   ar
     2     3     4   ar
     3     4     5   ar
     4     5     6   ar
     5     6     7   ar
     6     1     2   ar
     7     2     7   ar
     8     7    10   ar
     9    10     9   ar
    10     9     8   ar
    11     8     1   ar
