@<TRIPOS>MOLECULE
No_2273-gen_results/8p0m/2024-11-26-14-13-15/
 11 11 0 0 0
SMALL
GASTEIGER

@<TRIPOS>ATOM
      1 C         -28.0162   -0.8135   28.8779 C.3     1  UNL1        0.0523
      2 C         -27.0636   -0.1189   28.6079 C.ar    1  UNL1       -0.0178
      3 C         -25.7647   -0.3897   29.0360 C.ar    1  UNL1       -0.0039
      4 C         -24.5516    0.4058   28.7646 C.ar    1  UNL1       -0.0003
      5 C         -24.6957    1.4480   27.7988 C.ar    1  UNL1       -0.0000
      6 C         -25.9755    1.7250   27.3077 C.ar    1  UNL1       -0.0003
      7 C         -27.0718    1.0134   27.6535 C.ar    1  UNL1       -0.0039
      8 C         -27.9653   -1.6216   30.1356 C.2     1  UNL1       -0.0214
      9 C         -29.0906   -2.3578   30.5660 C.2     1  UNL1       -0.0042
     10 C         -30.2783   -2.0215   30.0398 C.2     1  UNL1       -0.0003
     11 C         -30.4060   -1.0694   29.0821 C.2     1  UNL1       -0.0000
@<TRIPOS>BOND
     1     1     8    1
     2     8     9    2
     3     9    10    1
     4    10    11    2
     5     1     2    1
     6     2     3   ar
     7     3     4   ar
     8     4     5   ar
     9     5     6   ar
    10     6     7   ar
    11     7     2   ar
