@<TRIPOS>MOLECULE
No_2275-gen_results/8p0m/2024-11-26-14-13-15/
 24 26 0 0 0
SMALL
GASTEIGER

@<TRIPOS>ATOM
      1 O         -28.1229   -1.3353   28.4874 O.2     1  UNL1       -0.2730
      2 C         -27.4806   -0.4044   28.7094 C.2     1  UNL1        0.2450
      3 C         -26.3804   -0.0867   27.9394 C.3     1  UNL1        0.1004
      4 N         -27.6664    0.4468   29.8988 N.am    1  UNL1       -0.2052
      5 C         -25.1773   -0.4388   28.3946 C.3     1  UNL1        0.0153
      6 C         -24.8702   -0.1051   29.8315 C.3     1  UNL1        0.0225
      7 C         -26.1926    0.2176   30.5619 C.3     1  UNL1        0.1151
      8 C         -26.5189    0.4360   26.6004 C.ar    1  UNL1       -0.0137
      9 C         -25.4983    0.9308   25.8658 C.ar    1  UNL1       -0.0038
     10 C         -27.7996    0.4438   25.9833 C.ar    1  UNL1        0.0007
     11 C         -27.9394    0.9133   24.6885 C.ar    1  UNL1        0.0533
     12 C         -25.6105    1.3970   24.5395 C.ar    1  UNL1       -0.0002
     13 C         -29.2364    1.0420   24.1159 C.2     1  UNL1        0.2490
     14 C         -26.8117    1.4144   24.0697 C.ar    1  UNL1        0.0045
     15 N         -30.0527    0.1082   24.3593 N.am    1  UNL1       -0.2761
     16 C         -30.0356   -0.8769   24.7744 C.3     1  UNL1        0.0937
     17 C         -31.2837   -1.7328   25.0120 C.3     1  UNL1        0.0216
     18 C         -31.4630    0.6689   24.5433 C.3     1  UNL1        0.0937
     19 C         -32.0986   -1.1366   25.1381 C.3     1  UNL1        0.0035
     20 C         -32.4991    0.0996   24.7147 C.3     1  UNL1        0.0216
     21 O         -29.3852    1.8888   23.2037 O.2     1  UNL1       -0.2699
     22 C         -23.6864   -0.1044   30.4764 C.3     1  UNL1        0.0017
     23 C         -23.4707    0.3046   31.5435 C.3     1  UNL1        0.0001
     24 C         -22.5705   -0.4974   29.6004 C.3     1  UNL1        0.0001
@<TRIPOS>BOND
     1     1     2    2
     2     2     3    1
     3     2     4   am
     4     5     6    1
     5     4     7    1
     6     3     8    1
     7    11    13    1
     8    13    15   am
     9    15    16    1
    10    15    18    1
    11    17    19    1
    12    18    20    1
    13    13    21    2
    14     6    22    1
    15    22    23    1
    16    22    24    1
    17    16    17    1
    18    19    20    1
    19     3     5    1
    20     6     7    1
    21     8     9   ar
    22     9    12   ar
    23    12    14   ar
    24    14    11   ar
    25    11    10   ar
    26    10     8   ar
