@<TRIPOS>MOLECULE
No_2276-gen_results/8p0m/2024-11-26-14-13-15/
 27 29 0 0 0
SMALL
GASTEIGER

@<TRIPOS>ATOM
      1 C         -28.0162   -0.8135   28.8779 C.ar    1  UNL1        0.0064
      2 C         -27.0636   -0.1189   28.6079 C.ar    1  UNL1        0.0002
      3 C         -25.7647   -0.3897   29.0360 C.ar    1  UNL1        0.0001
      4 C         -24.5516    0.4058   28.7646 C.ar    1  UNL1        0.0022
      5 C         -24.6957    1.4480   27.7988 C.ar    1  UNL1        0.0296
      6 C         -23.5821    2.2166   27.4626 C.ar    1  UNL1        0.1401
      7 C         -22.3211    1.8240   27.9807 C.ar    1  UNL1        0.0296
      8 C         -22.1777    0.8172   28.8883 C.ar    1  UNL1        0.0023
      9 C         -23.3181    0.0418   29.2597 C.ar    1  UNL1        0.0001
     10 C         -27.8970   -1.8952   29.8587 C.ar    1  UNL1        0.0757
     11 C         -26.6530   -2.3395   30.2732 C.ar    1  UNL1        0.0064
     12 C         -25.5330   -1.5566   29.9092 C.ar    1  UNL1        0.0002
     13 C         -29.0621   -2.7222   30.2424 C.2     1  UNL1        0.3417
     14 O         -28.9743   -3.9297   30.2769 O.2     1  UNL1       -0.2449
     15 O         -29.9660   -2.1701   30.9789 O.3     1  UNL1       -0.4353
     16 F         -23.6516    3.1742   26.5868 F       1  UNL1       -0.2042
     17 C         -31.1835   -2.7741   31.2377 C.3     1  UNL1        0.2933
     18 C         -31.3624   -3.3674   32.2723 C.2     1  UNL1        0.2740
     19 O         -31.0270   -2.8434   33.3304 O.2     1  UNL1       -0.2705
     20 N         -31.8014   -4.6815   32.3500 N.am    1  UNL1       -0.2538
     21 C         -31.9033   -5.5139   33.6226 C.3     1  UNL1        0.1201
     22 C         -32.2218   -5.4020   31.1945 C.ar    1  UNL1        0.0540
     23 C         -32.8807   -5.2550   30.3871 C.ar    1  UNL1        0.0149
     24 C         -33.0759   -6.0189   29.1385 C.ar    1  UNL1        0.0013
     25 C         -32.1847   -7.1083   29.0037 C.ar    1  UNL1        0.0001
     26 C         -31.1906   -7.3772   29.9427 C.ar    1  UNL1        0.0013
     27 C         -31.0824   -6.5966   31.0577 C.ar    1  UNL1        0.0149
@<TRIPOS>BOND
     1     3     4    1
     2    10    13    1
     3    13    14    2
     4    13    15    1
     5     6    16    1
     6    15    17    1
     7    17    18    1
     8    18    19    2
     9    18    20   am
    10    20    21    1
    11    20    22    1
    12    22    23   ar
    13    23    24   ar
    14    24    25   ar
    15    25    26   ar
    16    26    27   ar
    17    27    22   ar
    18     1     2   ar
    19     2     3   ar
    20     3    12   ar
    21    12    11   ar
    22    11    10   ar
    23    10     1   ar
    24     4     5   ar
    25     5     6   ar
    26     6     7   ar
    27     7     8   ar
    28     8     9   ar
    29     9     4   ar
