@<TRIPOS>MOLECULE
No_2277-gen_results/8p0m/2024-11-26-14-13-15/
 14 14 0 0 0
SMALL
GASTEIGER

@<TRIPOS>ATOM
      1 C         -28.0162   -0.8135   28.8779 C.3     1  UNL1        0.1516
      2 C         -27.0636   -0.1189   28.6079 C.ar    1  UNL1       -0.0019
      3 C         -26.8756    1.1325   28.9134 C.ar    1  UNL1       -0.0242
      4 C         -25.6883    1.9515   28.5672 C.ar    1  UNL1       -0.0088
      5 C         -24.6394    1.2834   27.8753 C.ar    1  UNL1       -0.0222
      6 C         -24.8068   -0.0513   27.6040 C.ar    1  UNL1       -0.0045
      7 C         -25.9019   -0.7670   27.9511 C.ar    1  UNL1       -0.0030
      8 N         -28.7095   -0.5833   30.0504 N.2     1  UNL1       -0.2625
      9 C         -23.5905    2.1780   27.4681 C.3     1  UNL1        0.0310
     10 C         -28.2516    0.0212   30.8769 C.2     1  UNL1        0.1137
     11 C         -27.2891    0.6896   30.7976 C.2     1  UNL1        0.1134
     12 N         -27.1831    1.3871   30.4680 N.2     1  UNL1       -0.2652
     13 C         -27.2929    2.7995   30.6155 C.3     1  UNL1        0.1518
     14 C         -27.9062    1.9312   27.9385 C.3     1  UNL1        0.0307
@<TRIPOS>BOND
     1     1     8    1
     2     5     9    1
     3     8    10    2
     4    10    11    1
     5    11    12    2
     6    12    13    1
     7     3    14    1
     8     1     2    1
     9     2     3   ar
    10     3     4   ar
    11     4     5   ar
    12     5     6   ar
    13     6     7   ar
    14     7     2   ar
