@<TRIPOS>MOLECULE
No_2278-gen_results/8p0m/2024-11-26-14-13-15/
 12 13 0 0 0
SMALL
GASTEIGER

@<TRIPOS>ATOM
      1 C         -28.0162   -0.8135   28.8779 C.ar    1  UNL1       -0.0000
      2 C         -28.4690   -0.7850   29.8287 C.ar    1  UNL1       -0.0000
      3 C         -27.1356    0.2359   28.5352 C.ar    1  UNL1       -0.0002
      4 C         -26.8745    1.2825   29.3982 C.ar    1  UNL1       -0.0015
      5 C         -27.5070    1.2380   30.6295 C.ar    1  UNL1       -0.0002
      6 C         -28.3293    0.1745   30.9350 C.ar    1  UNL1       -0.0000
      7 C         -26.4077    0.3070   27.2259 C.ar    1  UNL1       -0.0000
      8 C         -25.7128    1.4905   26.9212 C.ar    1  UNL1       -0.0002
      9 C         -25.4301    2.4538   27.8655 C.ar    1  UNL1       -0.0017
     10 C         -26.0916    2.4163   29.0923 C.ar    1  UNL1        0.0106
     11 C         -25.8331    3.5594   30.0163 C.3     1  UNL1        0.2086
     12 O         -26.8009    3.8670   30.6677 O.3     1  UNL1       -0.2152
@<TRIPOS>BOND
     1    10    11    1
     2    11    12    1
     3     4    10   ar
     4    10     9   ar
     5     9     8   ar
     6     8     7   ar
     7     7     3   ar
     8     1     2   ar
     9     2     6   ar
    10     6     5   ar
    11     5     4   ar
    12     4     3   ar
    13     3     1   ar
