@<TRIPOS>MOLECULE
No_228-gen_results/8p0m/2024-11-26-14-13-15/
 16 17 0 0 0
SMALL
GASTEIGER

@<TRIPOS>ATOM
      1 O         -28.1229   -1.3353   28.4874 O.2     1  UNL1       -0.2730
      2 C         -27.0637   -0.8242   28.8687 C.2     1  UNL1        0.2450
      3 C         -26.9592    0.0926   29.7582 C.3     1  UNL1        0.1010
      4 N         -25.8012   -1.3566   28.3971 N.am    1  UNL1       -0.2046
      5 C         -27.8641    0.8180   30.2806 C.ar    1  UNL1       -0.0138
      6 C         -24.5359   -0.9360   28.7790 C.3     1  UNL1        0.1264
      7 C         -24.4421    0.1083   29.6161 C.3     1  UNL1        0.1258
      8 C         -25.5448    0.6675   30.1415 C.3     1  UNL1        0.0266
      9 C         -28.2429    0.6838   31.4751 C.ar    1  UNL1       -0.0038
     10 C         -29.3970    1.3972   32.1461 C.ar    1  UNL1       -0.0003
     11 C         -30.1745    2.1312   31.2481 C.ar    1  UNL1       -0.0000
     12 C         -29.8406    2.1790   29.9229 C.ar    1  UNL1       -0.0003
     13 C         -28.6971    1.5413   29.3910 C.ar    1  UNL1       -0.0038
     14 C         -23.0484    0.5141   30.0209 C.2     1  UNL1        0.3661
     15 O         -23.0345    1.5043   30.7285 O.co2   1  UNL1       -0.2456
     16 O         -21.9858   -0.0448   29.7022 O.co2   1  UNL1       -0.2456
@<TRIPOS>BOND
     1     1     2    2
     2     2     3    1
     3     2     4   am
     4     3     5    1
     5     4     6    1
     6     3     8    1
     7     7     8    1
     8     7    14    1
     9    14    15   ar
    10    14    16   ar
    11     7     6    1
    12     5     9   ar
    13     9    10   ar
    14    10    11   ar
    15    11    12   ar
    16    12    13   ar
    17    13     5   ar
