@<TRIPOS>MOLECULE
No_2281-gen_results/8p0m/2024-11-26-14-13-15/
 22 24 0 0 0
SMALL
GASTEIGER

@<TRIPOS>ATOM
      1 C         -28.0162   -0.8135   28.8779 C.ar    1  UNL1        0.1312
      2 C         -27.0636   -0.1189   28.6079 C.2     1  UNL1        0.2720
      3 O         -25.8586   -0.4059   28.9035 O.2     1  UNL1       -0.2679
      4 N         -27.1835    1.0379   27.7428 N.am    1  UNL1       -0.2268
      5 N         -27.9085   -1.5501   30.0049 N.ar    1  UNL1       -0.2396
      6 C         -26.0356    1.7337   27.2102 C.ar    1  UNL1        0.0563
      7 C         -25.7770    1.5993   25.9563 C.ar    1  UNL1        0.0150
      8 C         -24.9528    0.8985   25.7012 C.ar    1  UNL1        0.0010
      9 C         -23.6667    0.7751   26.4032 C.ar    1  UNL1       -0.0028
     10 C         -23.7159    1.4201   27.7043 C.ar    1  UNL1       -0.0049
     11 C         -25.0083    1.9691   28.0953 C.ar    1  UNL1        0.0121
     12 C         -29.2202    0.1389   29.1377 C.ar    1  UNL1        0.0046
     13 C         -22.4774    1.4938   28.4746 C.3     1  UNL1        0.0993
     14 N         -21.8954    0.6593   28.9597 N.3     1  UNL1       -0.2665
     15 C         -29.8113    0.1251   30.0085 C.ar    1  UNL1       -0.0009
     16 C         -29.7911   -0.8589   31.0971 C.ar    1  UNL1        0.0204
     17 C         -28.7784   -1.8140   30.9997 C.ar    1  UNL1        0.0990
     18 C         -21.0044   -0.1533   28.3675 C.3     1  UNL1        0.0899
     19 C         -22.5700   -0.0455   30.1113 C.3     1  UNL1        0.0899
     20 C         -28.4541    1.4910   27.2700 C.3     1  UNL1        0.2478
     21 C         -29.3208    1.0772   27.6915 C.3     1  UNL1        0.0850
     22 F         -28.4474    2.3824   26.3837 F       1  UNL1       -0.2140
@<TRIPOS>BOND
     1     1     2    1
     2     2     3    2
     3     2     4   am
     4     4     6    1
     5    10    13    1
     6    13    14    1
     7    14    18    1
     8    14    19    1
     9     4    20    1
    10    12    21    1
    11    20    22    1
    12    21    20    1
    13     6     7   ar
    14     7     8   ar
    15     8     9   ar
    16     9    10   ar
    17    10    11   ar
    18    11     6   ar
    19     1     5   ar
    20     5    17   ar
    21    17    16   ar
    22    16    15   ar
    23    15    12   ar
    24    12     1   ar
