@<TRIPOS>MOLECULE
No_2282-gen_results/8p0m/2024-11-26-14-13-15/
 18 19 0 0 0
SMALL
GASTEIGER

@<TRIPOS>ATOM
      1 C         -28.0162   -0.8135   28.8779 C.ar    1  UNL1       -0.0042
      2 C         -27.0636   -0.1190   28.6079 C.ar    1  UNL1       -0.0194
      3 C         -26.8756    1.1325   28.9134 C.ar    1  UNL1        0.0312
      4 C         -25.6883    1.9515   28.5672 C.2     1  UNL1        0.1831
      5 C         -24.6394    1.2834   27.8753 C.3     1  UNL1        0.1651
      6 C         -24.8068   -0.0513   27.6040 C.3     1  UNL1        0.0238
      7 C         -25.9019   -0.7670   27.9511 C.3     1  UNL1        0.0275
      8 C         -28.6392   -0.5118   30.2403 C.ar    1  UNL1        0.0035
      9 C         -28.8731    0.8215   30.4840 C.ar    1  UNL1        0.0715
     10 C         -29.6580    1.2802   31.5038 C.3     1  UNL1        0.4186
     11 C         -27.8272    1.6725   29.8682 C.ar    1  UNL1        0.0064
     12 C         -23.4606    1.9804   27.4102 C.2     1  UNL1        0.3716
     13 O         -22.3264    1.6948   27.7913 O.co2   1  UNL1       -0.2452
     14 O         -23.6819    3.1960   26.8931 O.co2   1  UNL1       -0.2452
     15 F         -30.4873    0.7656   31.8130 F       1  UNL1       -0.1659
     16 F         -30.1080    2.5766   31.0758 F       1  UNL1       -0.1659
     17 F         -28.8196    1.5851   32.5739 F       1  UNL1       -0.1659
     18 O         -25.5907    3.2102   28.9262 O.2     1  UNL1       -0.2908
@<TRIPOS>BOND
     1     3     4    1
     2     4     5    1
     3     5     6    1
     4     2     7    1
     5     9    10    1
     6     5    12    1
     7    12    13   ar
     8    12    14   ar
     9    10    15    1
    10    10    16    1
    11    10    17    1
    12     4    18    2
    13     7     6    1
    14     1     2   ar
    15     2     3   ar
    16     3    11   ar
    17    11     9   ar
    18     9     8   ar
    19     8     1   ar
