@<TRIPOS>MOLECULE
No_2283-gen_results/8p0m/2024-11-26-14-13-15/
 18 20 0 0 0
SMALL
GASTEIGER

@<TRIPOS>ATOM
      1 O         -28.1229   -1.3353   28.4874 O.2     1  UNL1       -0.2726
      2 C         -27.0637   -0.8242   28.8687 C.2     1  UNL1        0.2508
      3 C         -26.9592    0.0926   29.7582 C.3     1  UNL1        0.1053
      4 N         -25.8011   -1.3566   28.3971 N.am    1  UNL1       -0.1603
      5 C         -25.7368    0.7239   30.2099 C.3     1  UNL1        0.0444
      6 C         -24.6285   -0.7791   28.9300 C.ar    1  UNL1        0.1537
      7 C         -24.5300    0.2016   29.7469 C.ar    1  UNL1        0.0312
      8 C         -23.2507    0.7358   30.1385 C.ar    1  UNL1        0.0992
      9 N         -22.1517    0.0966   29.6161 N.ar    1  UNL1       -0.2227
     10 N         -23.4129   -1.3227   28.4422 N.ar    1  UNL1       -0.2074
     11 C         -22.2154   -0.8896   28.8425 C.ar    1  UNL1        0.2001
     12 C         -28.2536    0.6135   30.3342 C.ar    1  UNL1       -0.0112
     13 C         -28.8830    0.0437   31.0830 C.ar    1  UNL1       -0.0037
     14 C         -30.1567    0.5330   31.6927 C.ar    1  UNL1        0.0020
     15 C         -30.5105    1.8321   31.3110 C.ar    1  UNL1        0.0296
     16 C         -29.7444    2.5242   30.4325 C.ar    1  UNL1        0.1398
     17 C         -28.5375    2.0126   29.9462 C.ar    1  UNL1        0.0258
     18 F         -30.0589    3.7803   30.1234 F       1  UNL1       -0.2042
@<TRIPOS>BOND
     1     1     2    2
     2     2     3    1
     3     2     4   am
     4     4     6    1
     5     5     7    1
     6     3    12    1
     7    16    18    1
     8     3     5    1
     9    12    13   ar
    10    13    14   ar
    11    14    15   ar
    12    15    16   ar
    13    16    17   ar
    14    17    12   ar
    15     6     7   ar
    16     7     8   ar
    17     8     9   ar
    18     9    11   ar
    19    11    10   ar
    20    10     6   ar
