@<TRIPOS>MOLECULE
No_2285-gen_results/8p0m/2024-11-26-14-13-15/
 19 21 0 0 0
SMALL
GASTEIGER

@<TRIPOS>ATOM
      1 C         -28.0162   -0.8135   28.8779 C.ar    1  UNL1       -0.0001
      2 C         -27.0636   -0.1189   28.6079 C.ar    1  UNL1       -0.0000
      3 C         -26.9716    0.7139   27.5060 C.ar    1  UNL1        0.0000
      4 C         -28.1053    0.7744   26.6421 C.ar    1  UNL1        0.0039
      5 C         -29.2041    0.1179   27.0477 C.ar    1  UNL1        0.0714
      6 C         -29.2127   -0.6088   28.1281 C.ar    1  UNL1        0.0039
      7 C         -25.7106    1.4518   27.1380 C.ar    1  UNL1        0.0029
      8 C         -24.6052    0.9253   27.6902 C.ar    1  UNL1        0.0348
      9 C         -24.6227    0.0600   28.8225 C.ar    1  UNL1        0.0043
     10 C         -25.7269   -0.4734   29.2409 C.ar    1  UNL1        0.0001
     11 C         -23.2721    1.6772   27.4377 C.ar    1  UNL1        0.1696
     12 N         -22.3871    1.8817   27.9488 N.ar    1  UNL1       -0.2259
     13 N         -23.2667    2.2319   26.0636 N.pl3   1  UNL1       -0.1072
     14 C         -30.4212    0.3315   26.2224 C.3     1  UNL1        0.4186
     15 F         -30.3296   -0.3221   25.1110 F       1  UNL1       -0.1659
     16 F         -30.6354    1.6097   25.9346 F       1  UNL1       -0.1659
     17 F         -31.5420   -0.1150   26.7996 F       1  UNL1       -0.1659
     18 C         -22.0633    1.2317   29.1381 C.ar    1  UNL1        0.1004
     19 C         -23.4059   -0.1318   29.6464 C.ar    1  UNL1        0.0208
@<TRIPOS>BOND
     1    11    13    1
     2     5    14    1
     3    14    15    1
     4    14    16    1
     5    14    17    1
     6     1     2   ar
     7     3     4   ar
     8     4     5   ar
     9     5     6   ar
    10     6     1   ar
    11     9    19   ar
    12    19    18   ar
    13    18    12   ar
    14    12    11   ar
    15    11     8   ar
    16     2     3   ar
    17     3     7   ar
    18     7     8   ar
    19     8     9   ar
    20     9    10   ar
    21    10     2   ar
