@<TRIPOS>MOLECULE
No_2286-gen_results/8p0m/2024-11-26-14-13-15/
 13 13 0 0 0
SMALL
GASTEIGER

@<TRIPOS>ATOM
      1 C         -28.0162   -0.8135   28.8779 C.ar    1  UNL1        0.0000
      2 C         -28.4690   -0.7850   29.8287 C.ar    1  UNL1        0.0000
      3 C         -28.1960    0.3478   28.0550 C.ar    1  UNL1        0.0000
      4 C         -29.0191    1.3501   28.3782 C.ar    1  UNL1        0.0000
      5 C         -29.1993    2.4568   27.5396 C.2     1  UNL1       -0.0000
      6 C         -29.3831    0.1511   30.4352 C.ar    1  UNL1        0.0000
      7 C         -29.6005    1.2796   29.6234 C.ar    1  UNL1        0.0000
      8 C         -28.9183    3.6276   27.9282 C.2     1  UNL1       -0.0000
      9 C         -28.4312    4.5045   27.8213 C.2     1  UNL1       -0.0000
     10 C         -27.5758    5.5498   28.1538 C.2     1  UNL1       -0.0003
     11 C         -26.4271    5.8514   27.4795 C.2     1  UNL1       -0.0046
     12 C         -25.7693    4.8878   26.7139 C.2     1  UNL1       -0.0258
     13 C         -26.4715    3.7337   26.3657 C.3     1  UNL1        0.0307
@<TRIPOS>BOND
     1     4     5    1
     2     5     8    2
     3     8     9    1
     4     9    10    2
     5    10    11    1
     6    11    12    2
     7    12    13    1
     8     1     2   ar
     9     2     6   ar
    10     6     7   ar
    11     7     4   ar
    12     4     3   ar
    13     3     1   ar
