@<TRIPOS>MOLECULE
No_2288-gen_results/8p0m/2024-11-26-14-13-15/
 35 38 0 0 0
SMALL
GASTEIGER

@<TRIPOS>ATOM
      1 N         -28.0544   -1.0498   28.7246 N.ar    1  UNL1       -0.1966
      2 C         -28.6544   -0.5669   29.5076 C.ar    1  UNL1        0.1472
      3 C         -26.6945   -1.3221   29.0236 C.ar    1  UNL1        0.2414
      4 N         -26.3171   -1.0619   30.3116 N.ar    1  UNL1       -0.1959
      5 N         -30.0524   -0.2833   29.1917 N.am    1  UNL1       -0.2184
      6 C         -28.2268   -0.2923   30.8776 C.ar    1  UNL1        0.0709
      7 C         -27.0274   -0.5120   31.2177 C.ar    1  UNL1        0.1533
      8 C         -31.0720   -0.9094   29.7517 C.ar    1  UNL1        0.0598
      9 C         -31.0986   -1.5796   30.6134 C.ar    1  UNL1        0.0155
     10 C         -32.2725   -2.3503   31.1579 C.ar    1  UNL1        0.0079
     11 C         -33.4380   -2.0805   30.4532 C.ar    1  UNL1        0.0799
     12 C         -32.3627   -0.7519   29.0444 C.ar    1  UNL1        0.0155
     13 C         -33.4612   -1.3165   29.4036 C.ar    1  UNL1        0.0079
     14 C         -30.1787    1.1128   28.8827 C.2     1  UNL1        0.2576
     15 C         -30.2531    1.3252   27.4621 C.ar    1  UNL1        0.0543
     16 C         -29.5523    1.9247   26.8902 C.ar    1  UNL1        0.0045
     17 C         -29.5033    1.9756   25.4435 C.ar    1  UNL1        0.0001
     18 C         -30.3901    1.1989   24.7024 C.ar    1  UNL1        0.0000
     19 C         -31.0184    0.4065   26.5407 C.ar    1  UNL1        0.0045
     20 C         -31.1163    0.4108   25.3224 C.ar    1  UNL1        0.0001
     21 O         -30.3558    2.0819   29.6244 O.2     1  UNL1       -0.2692
     22 C         -34.7091   -2.8121   30.9232 C.2     1  UNL1        0.3878
     23 O         -35.6055   -3.0309   30.4002 O.co2   1  UNL1       -0.2406
     24 O         -34.7610   -2.8515   32.3318 O.co2   1  UNL1       -0.2406
     25 N         -25.7735   -1.7608   28.1665 N.pl3   1  UNL1       -0.1673
     26 C         -24.5269   -2.1099   28.6789 C.3     1  UNL1        0.2788
     27 C         -23.5241   -1.3038   28.7536 C.ar    1  UNL1        0.0308
     28 C         -23.6058    0.0544   28.3878 C.ar    1  UNL1        0.0001
     29 C         -22.4311    0.8973   28.4336 C.ar    1  UNL1       -0.0002
     30 C         -21.2422    0.3241   28.7821 C.ar    1  UNL1       -0.0000
     31 C         -21.1286   -1.0202   29.1232 C.ar    1  UNL1       -0.0002
     32 C         -22.2108   -1.7863   29.1225 C.ar    1  UNL1        0.0001
     33 F         -24.4006   -3.3915   28.8420 F       1  UNL1       -0.2080
     34 N         -26.5382   -0.3437   32.4730 N.pl3   1  UNL1       -0.2183
     35 C         -25.9878    0.8494   32.9272 C.3     1  UNL1        0.1371
@<TRIPOS>BOND
     1     2     5    1
     2     5     8    1
     3     5    14   am
     4    14    15    1
     5    14    21    2
     6    11    22    1
     7    22    23   ar
     8    22    24   ar
     9     3    25    1
    10    25    26    1
    11    26    27    1
    12    26    33    1
    13     7    34    1
    14    34    35    1
    15    15    16   ar
    16    16    17   ar
    17    17    18   ar
    18    18    20   ar
    19    20    19   ar
    20    19    15   ar
    21    27    28   ar
    22    28    29   ar
    23    29    30   ar
    24    30    31   ar
    25    31    32   ar
    26    32    27   ar
    27     1     2   ar
    28     2     6   ar
    29     6     7   ar
    30     7     4   ar
    31     4     3   ar
    32     3     1   ar
    33     8     9   ar
    34     9    10   ar
    35    10    11   ar
    36    11    13   ar
    37    13    12   ar
    38    12     8   ar
