@<TRIPOS>MOLECULE
No_2289-gen_results/8p0m/2024-11-26-14-13-15/
 19 20 0 0 0
SMALL
GASTEIGER

@<TRIPOS>ATOM
      1 C         -28.0162   -0.8135   28.8779 C.3     1  UNL1        0.0506
      2 C         -27.0636   -0.1190   28.6079 C.ar    1  UNL1       -0.0202
      3 C         -27.0010    0.6913   27.4910 C.ar    1  UNL1       -0.0041
      4 C         -25.8548    1.4825   27.0830 C.ar    1  UNL1        0.0043
      5 C         -24.6901    1.4526   27.8807 C.ar    1  UNL1        0.0566
      6 C         -24.7379    0.6010   29.0416 C.ar    1  UNL1        0.0043
      7 C         -25.8234   -0.1688   29.3887 C.ar    1  UNL1       -0.0041
      8 C         -29.2252   -0.0469   29.2805 C.3     1  UNL1        0.0997
      9 C         -30.3126   -0.8267   29.7606 C.2     1  UNL1       -0.0064
     10 C         -30.5247   -0.8786   30.9749 C.2     1  UNL1       -0.0032
     11 C         -23.5153    2.2034   27.5435 C.2     1  UNL1        0.2842
     12 N         -22.5014    2.1751   28.3537 N.am    1  UNL1       -0.0837
     13 O         -23.3173    2.5924   26.3196 O.2     1  UNL1       -0.2667
     14 C         -30.0977    0.2121   31.8417 C.2     1  UNL1       -0.0032
     15 C         -29.3774    1.2288   31.3013 C.2     1  UNL1       -0.0048
     16 N         -29.4874    1.1571   28.7521 N.pl3   1  UNL1       -0.3001
     17 C         -29.2435    1.8364   30.1576 C.3     1  UNL1        0.1177
     18 C         -29.9271    1.6266   27.7254 C.2     1  UNL1        0.0618
     19 C         -29.7867    2.9635   27.6479 C.2     1  UNL1        0.0171
@<TRIPOS>BOND
     1     1     2    1
     2     1     8    1
     3     8     9    1
     4     9    10    2
     5     5    11    1
     6    11    12   am
     7    11    13    2
     8    10    14    1
     9    14    15    2
    10     8    16    1
    11    15    17    1
    12    16    17    1
    13    16    18    1
    14    18    19    2
    15     2     3   ar
    16     3     4   ar
    17     4     5   ar
    18     5     6   ar
    19     6     7   ar
    20     7     2   ar
