@<TRIPOS>MOLECULE
No_229-gen_results/8p0m/2024-11-26-14-13-15/
 34 36 0 0 0
SMALL
GASTEIGER

@<TRIPOS>ATOM
      1 C         -28.0162   -0.8135   28.8779 C.ar    1  UNL1        0.1394
      2 C         -27.0636   -0.1189   28.6079 C.ar    1  UNL1        0.0340
      3 C         -27.0010    0.6913   27.4910 C.ar    1  UNL1        0.0039
      4 C         -28.1373    0.7363   26.6350 C.ar    1  UNL1        0.0116
      5 C         -29.2360    0.0765   27.0690 C.ar    1  UNL1        0.0607
      6 C         -29.2177   -0.6429   28.1747 C.ar    1  UNL1        0.0483
      7 CL        -30.6116    0.1653   26.0711 Cl      1  UNL1       -0.0821
      8 C         -25.6201   -0.1214   29.2332 C.ar    1  UNL1        0.0032
      9 C         -24.6258    0.5180   28.8340 C.ar    1  UNL1        0.0047
     10 C         -24.7046    1.3584   27.6759 C.ar    1  UNL1        0.0567
     11 C         -25.8070    1.4132   26.9751 C.ar    1  UNL1        0.0047
     12 C         -23.4771    2.1287   27.2896 C.2     1  UNL1        0.2842
     13 N         -22.7456    2.6219   28.2444 N.am    1  UNL1       -0.0837
     14 O         -23.2832    2.4703   26.0898 O.2     1  UNL1       -0.2667
     15 O         -28.0402   -1.6031   30.0139 O.3     1  UNL1       -0.4723
     16 C         -28.8912   -2.6484   30.1820 C.3     1  UNL1        0.2426
     17 C         -28.9774   -2.9422   31.6591 C.3     1  UNL1        0.2181
     18 C         -30.3013   -2.6785   32.1402 C.ar    1  UNL1        0.0181
     19 C         -31.1048   -3.5621   32.0975 C.ar    1  UNL1        0.0052
     20 C         -32.5090   -3.4047   32.5382 C.ar    1  UNL1        0.0760
     21 C         -32.8047   -2.1614   33.1544 C.ar    1  UNL1        0.0135
     22 C         -31.8607   -1.1829   33.2456 C.ar    1  UNL1        0.0859
     23 C         -30.5588   -1.4017   32.7869 C.ar    1  UNL1        0.0394
     24 C         -32.1722    0.1315   33.8865 C.2     1  UNL1        0.3882
     25 O         -31.8960    1.0561   33.5408 O.co2   1  UNL1       -0.2405
     26 O         -32.8589   -0.0556   35.0390 O.co2   1  UNL1       -0.2405
     27 O         -28.5036   -4.2654   31.8993 O.3     1  UNL1       -0.2142
     28 BR        -29.0751   -0.2963   33.1016 Br      1  UNL1       -0.0490
     29 C         -33.4936   -4.3996   32.3446 C.2     1  UNL1        0.3458
     30 O         -34.4744   -4.5787   32.7238 O.2     1  UNL1       -0.2445
     31 O         -32.9657   -5.4652   31.6892 O.3     1  UNL1       -0.4182
     32 C         -33.6038   -6.0150   30.6446 C.2     1  UNL1        0.1785
     33 C         -33.9872   -5.7642   29.6941 C.2     1  UNL1        0.0149
     34 C         -34.5657   -6.5192   28.6491 C.3     1  UNL1        0.0341
@<TRIPOS>BOND
     1     5     7    1
     2    10    12    1
     3    12    13   am
     4    12    14    2
     5     1    15    1
     6    15    16    1
     7    16    17    1
     8    17    18    1
     9    22    24    1
    10    24    25   ar
    11    24    26   ar
    12    17    27    1
    13    23    28    1
    14    20    29    1
    15    29    30    2
    16    29    31    1
    17    31    32    1
    18    32    33    2
    19    33    34    1
    20    18    19   ar
    21    19    20   ar
    22    20    21   ar
    23    21    22   ar
    24    22    23   ar
    25    23    18   ar
    26     1     2   ar
    27     3     4   ar
    28     4     5   ar
    29     5     6   ar
    30     6     1   ar
    31     2     3   ar
    32     3    11   ar
    33    11    10   ar
    34    10     9   ar
    35     9     8   ar
    36     8     2   ar
