@<TRIPOS>MOLECULE
No_2290-gen_results/8p0m/2024-11-26-14-13-15/
 17 17 0 0 0
SMALL
GASTEIGER

@<TRIPOS>ATOM
      1 C         -28.0162   -0.8135   28.8779 C.3     1  UNL1        0.1418
      2 C         -27.0636   -0.1189   28.6079 C.ar    1  UNL1       -0.0005
      3 C         -25.7923   -0.4302   29.0761 C.ar    1  UNL1       -0.0023
      4 C         -24.5456    0.3494   28.8225 C.ar    1  UNL1        0.0063
      5 C         -24.6586    1.4196   27.8878 C.ar    1  UNL1        0.0798
      6 C         -25.9471    1.6811   27.3792 C.ar    1  UNL1        0.0063
      7 C         -27.0439    0.9739   27.6871 C.ar    1  UNL1       -0.0023
      8 N         -28.6567   -0.5529   30.0960 N.am    1  UNL1       -0.1968
      9 C         -29.5646   -0.5256   30.5354 C.2     1  UNL1        0.2666
     10 C         -30.7160   -0.6890   29.7092 C.2     1  UNL1        0.0768
     11 O         -29.9572   -0.2776   31.8044 O.2     1  UNL1       -0.2683
     12 C         -23.4581    2.1675   27.5881 C.2     1  UNL1        0.3878
     13 O         -22.3235    1.9013   28.0452 O.co2   1  UNL1       -0.2406
     14 O         -23.6048    3.2256   26.8304 O.co2   1  UNL1       -0.2406
     15 C         -31.7122   -1.5153   30.1378 C.2     1  UNL1        0.0848
     16 N         -31.8012   -2.3981   30.7481 N.pl3   1  UNL1       -0.2343
     17 C         -32.8677   -3.2179   31.0744 C.3     1  UNL1        0.1355
@<TRIPOS>BOND
     1     1     2    1
     2     1     8    1
     3     8     9   am
     4     9    10    1
     5     9    11    2
     6     5    12    1
     7    12    13   ar
     8    12    14   ar
     9    10    15    2
    10    15    16    1
    11    16    17    1
    12     2     3   ar
    13     3     4   ar
    14     4     5   ar
    15     5     6   ar
    16     6     7   ar
    17     7     2   ar
