@<TRIPOS>MOLECULE
No_2294-gen_results/8p0m/2024-11-26-14-13-15/
 16 17 0 0 0
SMALL
GASTEIGER

@<TRIPOS>ATOM
      1 O         -28.1229   -1.3353   28.4874 O.2     1  UNL1       -0.2692
      2 C         -27.4806   -0.4044   28.7094 C.2     1  UNL1        0.2565
      3 C         -26.3804   -0.0867   27.9394 C.ar    1  UNL1        0.0539
      4 N         -27.6664    0.4468   29.8988 N.am    1  UNL1       -0.2314
      5 C         -26.4086    0.8567   26.8802 C.ar    1  UNL1        0.0003
      6 C         -25.2466    1.1198   26.1102 C.ar    1  UNL1       -0.0217
      7 C         -25.2607    1.9700   25.0634 C.3     1  UNL1        0.0310
      8 C         -25.0599   -0.7159   28.1661 C.ar    1  UNL1        0.0045
      9 C         -23.9021   -0.3217   27.4716 C.ar    1  UNL1       -0.0002
     10 C         -23.9543    0.5275   26.4893 C.ar    1  UNL1       -0.0043
     11 C         -28.7861    0.1533   30.7869 C.2     1  UNL1        0.0724
     12 C         -29.5708    0.9493   30.8849 C.2     1  UNL1        0.0165
     13 C         -29.4946    2.2656   30.3362 C.2     1  UNL1        0.0014
     14 C         -28.2531    2.6239   29.8298 C.2     1  UNL1        0.0014
     15 C         -26.6770    1.1991   30.3851 C.2     1  UNL1        0.0724
     16 C         -26.9156    2.3703   30.8408 C.2     1  UNL1        0.0165
@<TRIPOS>BOND
     1     1     2    2
     2     2     3    1
     3     2     4   am
     4     4    11    1
     5    11    12    2
     6    12    13    1
     7    13    14    2
     8     4    15    1
     9    14    16    1
    10    15    16    2
    11     7     6    1
    12     3     5   ar
    13     5     6   ar
    14     6    10   ar
    15    10     9   ar
    16     9     8   ar
    17     8     3   ar
