@<TRIPOS>MOLECULE
No_2295-gen_results/8p0m/2024-11-26-14-13-15/
 19 20 0 0 0
SMALL
GASTEIGER

@<TRIPOS>ATOM
      1 O         -28.1229   -1.3353   28.4874 O.2     1  UNL1       -0.2684
      2 C         -27.4806   -0.4044   28.7094 C.2     1  UNL1        0.2648
      3 C         -26.3804   -0.0867   27.9394 C.ar    1  UNL1        0.0550
      4 N         -27.8993    0.6459   29.6320 N.am    1  UNL1       -0.2016
      5 C         -25.1243   -0.5319   28.3714 C.ar    1  UNL1        0.0047
      6 C         -23.9129    0.2827   28.3242 C.ar    1  UNL1        0.0032
      7 C         -23.9022    1.4022   27.4490 C.ar    1  UNL1        0.0192
      8 C         -25.1773    1.7974   26.9001 C.ar    1  UNL1        0.0017
      9 C         -26.2992    1.1814   27.1716 C.ar    1  UNL1        0.0046
     10 C         -29.0818    0.3495   30.4116 C.3     1  UNL1        0.1175
     11 C         -22.6282    2.0680   27.2680 C.ar    1  UNL1        0.0988
     12 N         -21.5155    1.4397   27.7336 N.ar    1  UNL1       -0.2423
     13 C         -22.5704   -0.1132   28.7702 C.ar    1  UNL1        0.0207
     14 C         -21.4394    0.4987   28.5506 C.ar    1  UNL1        0.0989
     15 C         -30.2984    0.5478   29.7789 C.3     1  UNL1        0.0497
     16 C         -30.4103    1.5211   28.9628 C.3     1  UNL1        0.1270
     17 N         -30.0190    2.6206   29.3817 N.2     1  UNL1       -0.2735
     18 C         -30.2711    3.7632   28.8690 C.2     1  UNL1        0.0671
     19 C         -29.6640    5.0094   29.3569 C.3     1  UNL1        0.0529
@<TRIPOS>BOND
     1     1     2    2
     2     2     3    1
     3     2     4   am
     4     4    10    1
     5    10    15    1
     6    15    16    1
     7    16    17    1
     8    17    18    2
     9    18    19    1
    10     3     5   ar
    11     5     6   ar
    12     7     8   ar
    13     8     9   ar
    14     9     3   ar
    15     6     7   ar
    16     7    11   ar
    17    11    12   ar
    18    12    14   ar
    19    14    13   ar
    20    13     6   ar
