@<TRIPOS>MOLECULE
No_2296-gen_results/8p0m/2024-11-26-14-13-15/
 20 22 0 0 0
SMALL
GASTEIGER

@<TRIPOS>ATOM
      1 C         -28.0162   -0.8135   28.8779 C.ar    1  UNL1        0.0556
      2 C         -27.0636   -0.1189   28.6079 C.ar    1  UNL1        0.0151
      3 C         -27.0010    0.6913   27.4910 C.ar    1  UNL1        0.0013
      4 C         -28.1373    0.7363   26.6350 C.ar    1  UNL1        0.0001
      5 C         -29.2360    0.0765   27.0690 C.ar    1  UNL1        0.0013
      6 C         -29.2177   -0.6429   28.1747 C.ar    1  UNL1        0.0151
      7 N         -28.0102   -1.6025   30.0500 N.pl3   1  UNL1       -0.2647
      8 C         -28.8131   -1.7796   30.8725 C.ar    1  UNL1        0.0556
      9 C         -26.8163   -2.5379   30.0907 C.2     1  UNL1        0.0655
     10 C         -28.8169   -1.0269   31.9839 C.ar    1  UNL1        0.0151
     11 C         -29.8187   -2.8601   30.7825 C.ar    1  UNL1        0.0151
     12 C         -29.8289   -1.1444   33.0009 C.ar    1  UNL1        0.0013
     13 C         -30.7974   -3.0023   31.7645 C.ar    1  UNL1        0.0013
     14 C         -30.7476   -2.1765   32.9076 C.ar    1  UNL1        0.0001
     15 C         -26.3937   -3.3415   29.2609 C.2     1  UNL1       -0.0013
     16 C         -25.0596   -3.8238   29.0997 C.3     1  UNL1        0.0671
     17 C         -24.7075   -4.8398   28.2602 C.2     1  UNL1       -0.0176
     18 C         -23.3588   -4.9562   28.1848 C.2     1  UNL1       -0.0042
     19 C         -22.7693   -3.8265   28.7243 C.2     1  UNL1       -0.0042
     20 C         -23.8738   -3.0034   29.2744 C.2     1  UNL1       -0.0176
@<TRIPOS>BOND
     1     1     7    1
     2     7     8    1
     3     7     9    1
     4     9    15    2
     5    15    16    1
     6    16    17    1
     7    17    18    2
     8    18    19    1
     9    16    20    1
    10    19    20    2
    11     1     2   ar
    12     2     3   ar
    13     3     4   ar
    14     4     5   ar
    15     5     6   ar
    16     6     1   ar
    17     8    10   ar
    18    10    12   ar
    19    12    14   ar
    20    14    13   ar
    21    13    11   ar
    22    11     8   ar
