@<TRIPOS>MOLECULE
No_2297-gen_results/8p0m/2024-11-26-14-13-15/
 10 10 0 0 0
SMALL
GASTEIGER

@<TRIPOS>ATOM
      1 C         -28.0162   -0.8135   28.8779 C.ar    1  UNL1        0.0550
      2 C         -28.4690   -0.7850   29.8287 C.2     1  UNL1        0.2648
      3 C         -28.1816    0.4277   28.1134 C.ar    1  UNL1        0.0046
      4 C         -27.4498    0.6435   26.8500 C.ar    1  UNL1        0.0001
      5 C         -26.1815    0.0357   26.7145 C.ar    1  UNL1        0.0000
      6 C         -25.7800   -0.9326   27.6938 C.ar    1  UNL1        0.0001
      7 C         -26.5568   -1.2134   28.7413 C.ar    1  UNL1        0.0046
      8 N         -29.5918   -0.3147   30.2054 N.am    1  UNL1       -0.1998
      9 O         -28.0130   -1.6416   30.8646 O.2     1  UNL1       -0.2684
     10 C         -30.4462   -0.5794   31.4071 C.3     1  UNL1        0.1388
@<TRIPOS>BOND
     1     1     2    1
     2     2     8   am
     3     2     9    2
     4     8    10    1
     5     1     3   ar
     6     3     4   ar
     7     4     5   ar
     8     5     6   ar
     9     6     7   ar
    10     7     1   ar
