@<TRIPOS>MOLECULE
No_2298-gen_results/8p0m/2024-11-26-14-13-15/
 22 24 0 0 0
SMALL
GASTEIGER

@<TRIPOS>ATOM
      1 C         -28.0162   -0.8135   28.8779 C.ar    1  UNL1        0.0000
      2 C         -28.4690   -0.7850   29.8287 C.ar    1  UNL1        0.0012
      3 C         -26.5455   -0.8762   28.8500 C.ar    1  UNL1        0.0000
      4 C         -25.8041   -1.0324   30.0571 C.ar    1  UNL1        0.0000
      5 C         -27.9437   -0.9869   31.2075 C.ar    1  UNL1        0.0000
      6 C         -26.5825   -1.0386   31.2231 C.ar    1  UNL1        0.0000
      7 C         -30.0606   -0.7371   29.9024 C.ar    1  UNL1        0.0131
      8 C         -30.5805    0.1359   28.9739 C.ar    1  UNL1        0.0012
      9 C         -30.6998   -2.0847   29.9177 C.ar    1  UNL1        0.0449
     10 C         -31.5476    0.4961   28.8564 C.ar    1  UNL1       -0.0002
     11 C         -32.1672   -1.9425   29.7326 C.ar    1  UNL1        0.0059
     12 C         -32.5907   -0.8072   28.9097 C.ar    1  UNL1       -0.0019
     13 N         -30.4456   -2.8775   31.0124 N.pl3   1  UNL1       -0.3077
     14 C         -30.6392   -2.6286   32.2372 C.3     1  UNL1        0.0908
     15 C         -29.7292   -4.1539   30.6759 C.3     1  UNL1        0.0908
     16 C         -29.0990   -4.8767   31.6359 C.3     1  UNL1        0.0215
     17 C         -30.1431   -3.4315   33.3240 C.3     1  UNL1        0.0215
     18 C         -29.4655   -4.5626   33.0277 C.3     1  UNL1        0.0035
     19 C         -33.0456   -3.0100   29.8693 C.3     1  UNL1        0.1032
     20 CL        -33.0518   -3.9165   30.4157 Cl      1  UNL1       -0.1102
     21 C         -34.2852   -2.6353   28.9495 C.3     1  UNL1        0.0208
     22 C         -35.2648   -3.5962   29.1275 C.3     1  UNL1        0.0017
@<TRIPOS>BOND
     1     2     7    1
     2     9    13    1
     3    13    14    1
     4    13    15    1
     5    16    18    1
     6    17    18    1
     7    11    19    1
     8    19    20    1
     9    19    21    1
    10    21    22    1
    11    14    17    1
    12    16    15    1
    13     1     2   ar
    14     2     5   ar
    15     5     6   ar
    16     6     4   ar
    17     4     3   ar
    18     3     1   ar
    19     7     8   ar
    20     8    10   ar
    21    10    12   ar
    22    12    11   ar
    23    11     9   ar
    24     9     7   ar
