@<TRIPOS>MOLECULE
No_230-gen_results/8p0m/2024-11-26-14-13-15/
 20 20 0 0 0
SMALL
GASTEIGER

@<TRIPOS>ATOM
      1 C         -28.0162   -0.8135   28.8779 C.ar    1  UNL1        0.0553
      2 C         -27.0636   -0.1189   28.6079 C.ar    1  UNL1        0.0081
      3 C         -26.9716    0.7139   27.5060 C.ar    1  UNL1        0.0021
      4 C         -28.1053    0.7744   26.6421 C.ar    1  UNL1        0.0712
      5 C         -28.0677    1.4872   25.5121 C.3     1  UNL1        0.4186
      6 C         -29.2691   -0.5335   28.2245 C.ar    1  UNL1        0.0111
      7 C         -29.2230    0.1355   27.0328 C.ar    1  UNL1        0.0047
      8 CL        -28.0600   -1.7764   30.3495 Cl      1  UNL1       -0.0825
      9 F         -28.6081    2.3672   25.1670 F       1  UNL1       -0.1659
     10 F         -26.6865    1.9710   25.2456 F       1  UNL1       -0.1659
     11 F         -28.0496    0.5296   24.3594 F       1  UNL1       -0.1659
     12 C         -25.6860   -0.2203   29.4107 C.3     1  UNL1        0.1186
     13 N         -25.5182    0.5197   30.4299 N.pl3   1  UNL1       -0.3008
     14 C         -24.3379    0.6108   31.0326 C.3     1  UNL1        0.1125
     15 C         -26.4333    1.5642   30.8375 C.2     1  UNL1        0.0616
     16 C         -26.1026    2.7855   30.6007 C.2     1  UNL1        0.0158
     17 C         -27.0924    3.7402   31.0522 C.2     1  UNL1        0.0013
     18 C         -26.9195    5.0951   30.7162 C.2     1  UNL1        0.0000
     19 C         -25.8342    5.4681   29.9052 C.2     1  UNL1        0.0000
     20 C         -25.1100    4.5046   29.2213 C.2     1  UNL1        0.0000
@<TRIPOS>BOND
     1     4     5    1
     2     1     8    1
     3     5     9    1
     4     5    10    1
     5     5    11    1
     6     2    12    1
     7    12    13    1
     8    13    14    1
     9    13    15    1
    10    15    16    2
    11    16    17    1
    12    17    18    2
    13    18    19    1
    14    19    20    2
    15     1     2   ar
    16     2     3   ar
    17     3     4   ar
    18     4     7   ar
    19     7     6   ar
    20     6     1   ar
