@<TRIPOS>MOLECULE
No_2300-gen_results/8p0m/2024-11-26-14-13-15/
 15 16 0 0 0
SMALL
GASTEIGER

@<TRIPOS>ATOM
      1 O         -28.1229   -1.3353   28.4874 O.2     1  UNL1       -0.2723
      2 C         -27.4806   -0.4044   28.7094 C.2     1  UNL1        0.2577
      3 C         -27.1904    0.2460   29.5268 C.3     1  UNL1        0.1858
      4 N         -26.6021   -0.1576   27.5515 N.am    1  UNL1       -0.1602
      5 C         -25.6821    0.8355   27.5846 C.ar    1  UNL1        0.1520
      6 C         -26.2468    1.3606   29.7944 C.3     1  UNL1        0.0498
      7 C         -25.4625    1.6158   28.6762 C.ar    1  UNL1        0.0124
      8 N         -24.8955    1.0848   26.4642 N.ar    1  UNL1       -0.2112
      9 C         -23.8852    1.6041   26.4320 C.ar    1  UNL1        0.1711
     10 C         -23.4912    2.4967   27.6070 C.ar    1  UNL1        0.0374
     11 C         -24.2739    2.4567   28.6562 C.ar    1  UNL1        0.0015
     12 C         -28.0947    0.0169   30.8945 C.2     1  UNL1        0.3734
     13 O         -27.5511   -0.3614   31.8405 O.co2   1  UNL1       -0.2451
     14 O         -29.2117    0.5785   30.8397 O.co2   1  UNL1       -0.2451
     15 N         -23.0792    1.9130   25.3714 N.pl3   1  UNL1       -0.1072
@<TRIPOS>BOND
     1     1     2    2
     2     2     3    1
     3     2     4   am
     4     6     7    1
     5     3    12    1
     6    12    13   ar
     7    12    14   ar
     8     9    15    1
     9     3     6    1
    10     5     4    1
    11     5     7   ar
    12     7    11   ar
    13    11    10   ar
    14    10     9   ar
    15     9     8   ar
    16     8     5   ar
