@<TRIPOS>MOLECULE
No_2301-gen_results/8p0m/2024-11-26-14-13-15/
 8 8 0 0 0
SMALL
GASTEIGER

@<TRIPOS>ATOM
      1 C         -28.0162   -0.8135   28.8779 C.ar    1  UNL1        0.0305
      2 C         -28.4690   -0.7850   29.8287 C.ar    1  UNL1        0.0137
      3 C         -28.1960    0.3478   28.0550 C.ar    1  UNL1        0.1402
      4 C         -29.0191    1.3501   28.3782 C.ar    1  UNL1        0.0305
      5 C         -29.4107    0.1803   30.3782 C.ar    1  UNL1        0.0578
      6 C         -29.6059    1.2495   29.6193 C.ar    1  UNL1        0.0137
      7 F         -27.5400    0.3372   26.8421 F       1  UNL1       -0.2042
      8 CL        -30.1135   -0.0422   31.9592 Cl      1  UNL1       -0.0822
@<TRIPOS>BOND
     1     3     7    1
     2     5     8    1
     3     1     2   ar
     4     2     5   ar
     5     5     6   ar
     6     6     4   ar
     7     4     3   ar
     8     3     1   ar
