@<TRIPOS>MOLECULE
No_2302-gen_results/8p0m/2024-11-26-14-13-15/
 10 11 0 0 0
SMALL
GASTEIGER

@<TRIPOS>ATOM
      1 C         -28.0162   -0.8135   28.8779 C.ar    1  UNL1        0.0000
      2 C         -28.4690   -0.7850   29.8287 C.ar    1  UNL1        0.0000
      3 C         -28.1960    0.3478   28.0550 C.ar    1  UNL1        0.0000
      4 C         -27.4421    0.5100   26.7946 C.ar    1  UNL1        0.0000
      5 C         -26.1689   -0.0794   26.6787 C.ar    1  UNL1        0.0000
      6 C         -25.7312   -0.9607   27.6875 C.ar    1  UNL1        0.0000
      7 C         -26.5043   -1.2222   28.7582 C.ar    1  UNL1        0.0000
      8 C         -28.3432   -2.0040   30.7789 C.ar    1  UNL1        0.0000
      9 C         -27.1022   -2.6901   30.6797 C.ar    1  UNL1        0.0000
     10 C         -26.1200   -2.3552   29.6514 C.ar    1  UNL1        0.0000
@<TRIPOS>BOND
     1     1     2   ar
     2     2     8   ar
     3     8     9   ar
     4     9    10   ar
     5    10     7   ar
     6     1     3   ar
     7     3     4   ar
     8     4     5   ar
     9     5     6   ar
    10     6     7   ar
    11     7     1   ar
