@<TRIPOS>MOLECULE
No_2303-gen_results/8p0m/2024-11-26-14-13-15/
 10 10 0 0 0
SMALL
GASTEIGER

@<TRIPOS>ATOM
      1 C         -28.0162   -0.8135   28.8779 C.ar    1  UNL1        0.0298
      2 C         -27.0636   -0.1190   28.6079 C.ar    1  UNL1        0.1401
      3 C         -26.9716    0.7139   27.5060 C.ar    1  UNL1        0.0298
      4 C         -28.1053    0.7744   26.6421 C.ar    1  UNL1        0.0089
      5 C         -29.2008    0.1044   27.0527 C.ar    1  UNL1        0.0799
      6 C         -29.2096   -0.6029   28.1853 C.ar    1  UNL1        0.0089
      7 C         -30.2851    0.2916   26.0027 C.2     1  UNL1        0.3878
      8 O         -30.2014    0.4920   24.8778 O.co2   1  UNL1       -0.2406
      9 O         -31.5349   -0.0596   26.5003 O.co2   1  UNL1       -0.2406
     10 F         -25.8647   -0.1892   29.3835 F       1  UNL1       -0.2042
@<TRIPOS>BOND
     1     5     7    1
     2     7     8   ar
     3     7     9   ar
     4     2    10    1
     5     1     2   ar
     6     2     3   ar
     7     3     4   ar
     8     4     5   ar
     9     5     6   ar
    10     6     1   ar
