@<TRIPOS>MOLECULE
No_2304-gen_results/8p0m/2024-11-26-14-13-15/
 25 27 0 0 0
SMALL
GASTEIGER

@<TRIPOS>ATOM
      1 C         -28.0162   -0.8135   28.8779 C.3     1  UNL1        0.0324
      2 C         -27.0636   -0.1189   28.6079 C.ar    1  UNL1       -0.0218
      3 C         -25.7647   -0.3897   29.0360 C.ar    1  UNL1       -0.0040
      4 C         -24.5516    0.4058   28.7646 C.ar    1  UNL1        0.0063
      5 C         -24.6957    1.4480   27.7988 C.ar    1  UNL1        0.0798
      6 C         -25.9755    1.7250   27.3077 C.ar    1  UNL1        0.0063
      7 C         -27.0718    1.0134   27.6535 C.ar    1  UNL1       -0.0040
      8 C         -28.6178   -0.4695   30.2207 C.3     1  UNL1        0.0469
      9 C         -29.7296   -1.2768   30.7206 C.ar    1  UNL1       -0.0205
     10 C         -23.4863    2.1902   27.4840 C.2     1  UNL1        0.3878
     11 O         -23.5616    3.1509   26.7083 O.co2   1  UNL1       -0.2406
     12 O         -22.2889    1.8104   27.8553 O.co2   1  UNL1       -0.2406
     13 C         -30.1168   -2.1940   29.9227 C.ar    1  UNL1       -0.0042
     14 C         -31.2671   -2.9453   30.4768 C.ar    1  UNL1       -0.0003
     15 C         -31.7836   -2.6855   31.5883 C.ar    1  UNL1       -0.0000
     16 C         -31.3351   -1.7048   32.4389 C.ar    1  UNL1       -0.0003
     17 C         -30.2660   -0.9326   31.9979 C.ar    1  UNL1       -0.0042
     18 C         -28.0667    0.5927   31.0658 C.3     1  UNL1        0.1013
     19 N         -27.1754    1.2939   30.7471 N.pl3   1  UNL1       -0.2336
     20 C         -26.7216    2.2010   31.7959 C.2     1  UNL1        0.1288
     21 C         -27.2452    2.1543   32.8270 C.2     1  UNL1       -0.0026
     22 C         -28.3953    0.7846   32.4730 C.3     1  UNL1        0.0494
     23 C         -25.6185    3.1815   31.5198 C.2     1  UNL1        0.3477
     24 O         -24.8705    3.0100   30.6153 O.2     1  UNL1       -0.2527
     25 F         -25.4451    4.0637   32.3965 F       1  UNL1       -0.1572
@<TRIPOS>BOND
     1     1     8    1
     2     8     9    1
     3     5    10    1
     4    10    11   ar
     5    10    12   ar
     6     8    18    1
     7    18    19    1
     8    19    20    1
     9    20    21    2
    10    18    22    1
    11    21    22    1
    12    20    23    1
    13    23    24    2
    14    23    25    1
    15     1     2    1
    16     2     3   ar
    17     3     4   ar
    18     4     5   ar
    19     5     6   ar
    20     6     7   ar
    21     7     2   ar
    22     9    13   ar
    23    13    14   ar
    24    14    15   ar
    25    15    16   ar
    26    16    17   ar
    27    17     9   ar
