@<TRIPOS>MOLECULE
No_2305-gen_results/8p0m/2024-11-26-14-13-15/
 10 10 0 0 0
SMALL
GASTEIGER

@<TRIPOS>ATOM
      1 C         -28.0162   -0.8135   28.8779 C.ar    1  UNL1        0.0012
      2 C         -28.4690   -0.7850   29.8287 C.ar    1  UNL1        0.0153
      3 C         -27.1356    0.2359   28.5352 C.ar    1  UNL1        0.0000
      4 C         -26.8745    1.2825   29.3982 C.ar    1  UNL1        0.0000
      5 C         -29.3953   -1.9238   30.2863 C.2     1  UNL1        0.0805
      6 C         -27.5236    1.2089   30.6379 C.ar    1  UNL1        0.0000
      7 C         -28.3224    0.1273   30.9590 C.ar    1  UNL1        0.0012
      8 N         -29.1915   -3.1694   30.3695 N.2     1  UNL1       -0.1527
      9 C         -30.8267   -1.6509   30.6168 C.3     1  UNL1        0.0477
     10 C         -31.6672   -2.6737   30.8728 C.3     1  UNL1        0.0068
@<TRIPOS>BOND
     1     2     5    1
     2     5     8    2
     3     5     9    1
     4     9    10    1
     5     1     2   ar
     6     2     7   ar
     7     7     6   ar
     8     6     4   ar
     9     4     3   ar
    10     3     1   ar
