@<TRIPOS>MOLECULE
No_2306-gen_results/8p0m/2024-11-26-14-13-15/
 12 13 0 0 0
SMALL
GASTEIGER

@<TRIPOS>ATOM
      1 C         -28.0162   -0.8135   28.8779 C.ar    1  UNL1       -0.0003
      2 C         -27.0636   -0.1189   28.6079 C.ar    1  UNL1       -0.0034
      3 C         -25.7647   -0.3897   29.0360 C.ar    1  UNL1       -0.0118
      4 C         -25.5296   -1.5302   29.9014 C.ar    1  UNL1       -0.0034
      5 C         -26.6888   -2.2893   30.1810 C.ar    1  UNL1       -0.0003
      6 C         -27.8727   -1.9508   29.7373 C.ar    1  UNL1       -0.0000
      7 C         -24.5486    0.4144   28.7309 C.3     1  UNL1        0.0780
      8 S         -23.1239    0.0705   29.2578 S.3     1  UNL1       -0.1096
      9 C         -22.3108    1.2556   28.3534 C.2     1  UNL1        0.0266
     10 C         -24.6751    1.5492   27.8502 C.3     1  UNL1        0.0369
     11 C         -25.7200    2.1116   27.2547 C.3     1  UNL1        0.0059
     12 C         -23.2622    2.0792   27.6661 C.2     1  UNL1       -0.0186
@<TRIPOS>BOND
     1     3     7    1
     2     7     8    1
     3     8     9    1
     4     7    10    1
     5    10    11    1
     6     9    12    2
     7    10    12    1
     8     1     2   ar
     9     2     3   ar
    10     3     4   ar
    11     4     5   ar
    12     5     6   ar
    13     6     1   ar
