@<TRIPOS>MOLECULE
No_2308-gen_results/8p0m/2024-11-26-14-13-15/
 18 19 0 0 0
SMALL
GASTEIGER

@<TRIPOS>ATOM
      1 N         -28.0544   -1.0498   28.7246 N.ar    1  UNL1       -0.2278
      2 C         -28.6544   -0.5669   29.5076 C.ar    1  UNL1        0.1460
      3 C         -26.7777   -0.5807   28.6029 C.ar    1  UNL1        0.1049
      4 C         -26.3749    0.4542   29.4646 C.ar    1  UNL1        0.0746
      5 C         -28.5139    0.4315   30.4781 C.ar    1  UNL1        0.0357
      6 C         -27.2275    0.9697   30.4013 C.ar    1  UNL1        0.0091
      7 C         -24.9761    0.9950   29.3451 C.2     1  UNL1        0.2702
      8 N         -24.0760    0.5952   28.6798 N.am    1  UNL1       -0.1798
      9 C         -22.8212    1.0624   28.5553 C.2     1  UNL1        0.0518
     10 C         -21.7316    0.2344   28.3174 C.2     1  UNL1        0.0132
     11 O         -24.8117    2.0665   30.1884 O.2     1  UNL1       -0.2680
     12 C         -22.7434    2.0649   27.3155 C.3     1  UNL1        0.0493
     13 N         -30.0099   -1.2073   29.5769 N.pl3   1  UNL1       -0.2210
     14 C         -30.9147   -1.0822   30.2807 C.3     1  UNL1        0.1117
     15 C         -32.0739   -1.7244   30.1921 C.3     1  UNL1        0.0247
     16 C         -32.1878   -2.6011   29.1442 C.3     1  UNL1        0.0226
     17 C         -31.2454   -2.7335   28.2058 C.3     1  UNL1        0.1117
     18 N         -30.1158   -2.0202   28.4702 N.3     1  UNL1       -0.1290
@<TRIPOS>BOND
     1     4     7    1
     2     7     8   am
     3     8     9    1
     4     9    10    2
     5     7    11    2
     6     9    12    1
     7     2    13    1
     8    13    14    1
     9    15    16    1
    10    13    18    1
    11    14    15    1
    12    16    17    1
    13    17    18    1
    14     1     2   ar
    15     2     5   ar
    16     5     6   ar
    17     6     4   ar
    18     4     3   ar
    19     3     1   ar
