@<TRIPOS>MOLECULE
No_2309-gen_results/8p0m/2024-11-26-14-13-15/
 12 12 0 0 0
SMALL
GASTEIGER

@<TRIPOS>ATOM
      1 C         -28.0162   -0.8135   28.8779 C.2     1  UNL1        0.2709
      2 C         -27.0636   -0.1190   28.6079 C.2     1  UNL1        0.0116
      3 C         -26.9716    0.7139   27.5060 C.3     1  UNL1        0.0272
      4 C         -25.8205    1.4909   27.1160 C.3     1  UNL1        0.0157
      5 C         -24.6562    1.4242   27.9180 C.3     1  UNL1        0.1041
      6 C         -24.6847    0.5901   29.0659 C.3     1  UNL1        0.0157
      7 C         -25.8099   -0.1266   29.3338 C.3     1  UNL1        0.0272
      8 F         -27.8678   -1.9973   29.2855 F       1  UNL1       -0.1727
      9 F         -28.8029   -0.1899   29.8735 F       1  UNL1       -0.1727
     10 C         -23.4731    2.2179   27.6148 C.2     1  UNL1        0.3643
     11 O         -23.5163    3.2429   27.1105 O.co2   1  UNL1       -0.2457
     12 O         -22.1897    1.6640   27.8174 O.co2   1  UNL1       -0.2457
@<TRIPOS>BOND
     1     1     2    2
     2     2     3    1
     3     3     4    1
     4     4     5    1
     5     5     6    1
     6     2     7    1
     7     6     7    1
     8     1     8    1
     9     1     9    1
    10     5    10    1
    11    10    11   ar
    12    10    12   ar
