@<TRIPOS>MOLECULE
No_231-gen_results/8p0m/2024-11-26-14-13-15/
 25 28 0 0 0
SMALL
GASTEIGER

@<TRIPOS>ATOM
      1 C         -28.0162   -0.8135   28.8779 C.ar    1  UNL1        0.0215
      2 C         -27.0636   -0.1190   28.6079 C.ar    1  UNL1       -0.0018
      3 C         -26.9716    0.7139   27.5060 C.ar    1  UNL1       -0.0196
      4 C         -28.1053    0.7744   26.6421 C.ar    1  UNL1        0.0024
      5 C         -29.2041    0.1179   27.0477 C.ar    1  UNL1        0.0795
      6 C         -29.2127   -0.6088   28.1281 C.ar    1  UNL1        0.0080
      7 C         -30.3709    0.2326   26.1381 C.2     1  UNL1        0.3877
      8 O         -31.2520   -0.4036   26.3042 O.co2   1  UNL1       -0.2406
      9 O         -30.3125    1.0175   25.0722 O.co2   1  UNL1       -0.2406
     10 C         -25.6591    1.4028   27.1328 C.3     1  UNL1        0.0550
     11 C         -24.5319    1.0316   27.7470 C.ar    1  UNL1        0.0153
     12 C         -24.3110    0.0957   28.7050 C.ar    1  UNL1        0.0083
     13 C         -25.0085   -0.5049   29.2239 C.3     1  UNL1        0.0572
     14 C         -25.9193   -0.5932   29.2021 C.3     1  UNL1        0.1298
     15 C         -23.2939    1.8399   27.2517 C.ar    1  UNL1        0.1658
     16 N         -23.3086    2.8441   26.4287 N.pl3   1  UNL1       -0.1075
     17 N         -22.0027    1.4804   27.6829 N.ar    1  UNL1       -0.2239
     18 N         -26.4596   -1.6598   30.1608 N.2     1  UNL1       -0.2612
     19 CA        -27.7981   -1.6270   29.9528 C.2     1  UNL1        0.1557
     20 C         -28.6994   -2.4804   30.6751 C.2     1  UNL1        0.4047
     21 O         -29.5733   -2.0958   31.2793 O.co2   1  UNL1       -0.2389
     22 OXT       -28.5568   -3.8291   30.3049 O.co2   1  UNL1       -0.2389
     23 C         -21.7631    0.6494   28.6963 C.ar    1  UNL1        0.1296
     24 C         -22.7949   -0.2045   29.1640 C.ar    1  UNL1        0.1551
     25 F         -22.5575   -1.0163   30.0762 F       1  UNL1       -0.2029
@<TRIPOS>BOND
     1     5     7    1
     2     7     8   ar
     3     7     9   ar
     4     3    10    1
     5     2    14    1
     6    13    14    1
     7    14    18    1
     8     1    19    1
     9    18    19    2
    10    19    20    1
    11    20    21   ar
    12    20    22   ar
    13    24    25    1
    14    16    15    1
    15    10    11    1
    16    13    12    1
    17     1     2   ar
    18     2     3   ar
    19     3     4   ar
    20     4     5   ar
    21     5     6   ar
    22     6     1   ar
    23    11    12   ar
    24    12    24   ar
    25    24    23   ar
    26    23    17   ar
    27    17    15   ar
    28    15    11   ar
