@<TRIPOS>MOLECULE
No_2311-gen_results/8p0m/2024-11-26-14-13-15/
 13 13 0 0 0
SMALL
GASTEIGER

@<TRIPOS>ATOM
      1 C         -28.0162   -0.8135   28.8779 C.ar    1  UNL1        0.1467
      2 C         -27.0636   -0.1189   28.6079 C.ar    1  UNL1        0.0376
      3 C         -27.0010    0.6913   27.4910 C.ar    1  UNL1        0.0044
      4 C         -28.1373    0.7363   26.6350 C.ar    1  UNL1        0.0147
      5 C         -29.2360    0.0765   27.0690 C.ar    1  UNL1        0.0510
      6 C         -29.2177   -0.6429   28.1747 C.ar    1  UNL1        0.0520
      7 O         -27.7872   -1.5838   30.0230 O.3     1  UNL1       -0.4507
      8 N         -30.3614    0.1487   26.2617 N.pl3   1  UNL1       -0.3040
      9 C         -30.3426    0.1920   24.9276 C.3     1  UNL1        0.1122
     10 C         -31.6603   -0.0476   26.8338 C.3     1  UNL1        0.1122
     11 C         -26.6758   -2.3094   30.0239 C.2     1  UNL1        0.1750
     12 C         -26.4265   -3.4686   30.2089 C.2     1  UNL1        0.0148
     13 C         -27.6787   -4.3100   30.1469 C.3     1  UNL1        0.0341
@<TRIPOS>BOND
     1     1     7    1
     2     5     8    1
     3     8     9    1
     4     8    10    1
     5     7    11    1
     6    11    12    2
     7    12    13    1
     8     1     2   ar
     9     2     3   ar
    10     3     4   ar
    11     4     5   ar
    12     5     6   ar
    13     6     1   ar
