@<TRIPOS>MOLECULE
No_2312-gen_results/8p0m/2024-11-26-14-13-15/
 26 28 0 0 0
SMALL
GASTEIGER

@<TRIPOS>ATOM
      1 C         -28.0162   -0.8135   28.8779 C.3     1  UNL1        0.0269
      2 C         -27.0636   -0.1189   28.6079 C.ar    1  UNL1       -0.0221
      3 C         -26.9287    1.1713   29.0083 C.ar    1  UNL1       -0.0034
      4 C         -25.7702    2.0341   28.6884 C.ar    1  UNL1        0.0111
      5 C         -24.7141    1.4431   27.9188 C.ar    1  UNL1        0.0577
      6 C         -24.8590    0.0783   27.5836 C.ar    1  UNL1        0.0111
      7 C         -25.9647   -0.6606   27.9164 C.ar    1  UNL1       -0.0034
      8 C         -28.0422   -1.5426   30.2417 C.3     1  UNL1        0.0152
      9 C         -29.0635   -2.4584   30.5917 C.3     1  UNL1        0.0932
     10 C         -28.7027   -3.7565   30.7123 C.2     1  UNL1        0.2422
     11 O         -27.5894   -4.1451   30.3655 O.2     1  UNL1       -0.2733
     12 N         -29.7000   -4.7678   30.7360 N.am    1  UNL1       -0.2054
     13 CL        -23.3377    2.3061   27.5004 Cl      1  UNL1       -0.0822
     14 C         -31.0646   -4.4652   30.9636 C.3     1  UNL1        0.1165
     15 C         -30.3847   -2.1951   30.3382 C.3     1  UNL1        0.0695
     16 N         -30.7841   -0.8554   30.3336 N.3     1  UNL1       -0.2558
     17 C         -31.3681   -3.1215   30.7171 C.3     1  UNL1        0.0399
     18 C         -31.4185   -0.4075   29.1483 C.3     1  UNL1        0.0737
     19 C         -31.8832    0.5976   29.0246 C.3     1  UNL1        0.0162
     20 C         -30.6554    0.1066   31.2972 C.3     1  UNL1        0.1624
     21 N         -30.0231   -0.1908   32.5347 N.2     1  UNL1       -0.2590
     22 C         -32.4775    1.0690   27.7895 C.3     1  UNL1        0.0014
     23 C         -29.7276    0.7145   33.4160 C.2     1  UNL1        0.0687
     24 C         -31.0498    1.3952   31.1265 C.3     1  UNL1        0.0412
     25 C         -31.6452    1.7521   29.9755 C.3     1  UNL1        0.0048
     26 C         -30.2113    2.0137   33.2068 C.3     1  UNL1        0.0529
@<TRIPOS>BOND
     1     1     2    1
     2     1     8    1
     3     8     9    1
     4     9    10    1
     5    10    11    2
     6    10    12   am
     7     5    13    1
     8    12    14    1
     9     9    15    1
    10    15    16    1
    11    15    17    1
    12    16    18    1
    13    16    20    1
    14    20    21    1
    15    19    22    1
    16    21    23    2
    17    20    24    1
    18    19    25    1
    19    23    26    1
    20    18    19    1
    21    25    24    1
    22    17    14    1
    23     2     3   ar
    24     3     4   ar
    25     4     5   ar
    26     5     6   ar
    27     6     7   ar
    28     7     2   ar
