@<TRIPOS>MOLECULE
No_2313-gen_results/8p0m/2024-11-26-14-13-15/
 20 22 0 0 0
SMALL
GASTEIGER

@<TRIPOS>ATOM
      1 C         -28.0162   -0.8135   28.8779 C.3     1  UNL1        0.0526
      2 C         -27.0636   -0.1189   28.6079 C.ar    1  UNL1       -0.0178
      3 C         -27.0010    0.6913   27.4910 C.ar    1  UNL1       -0.0038
      4 C         -25.8548    1.4825   27.0830 C.ar    1  UNL1        0.0036
      5 C         -24.6901    1.4526   27.8807 C.ar    1  UNL1        0.0475
      6 C         -24.7379    0.6010   29.0416 C.ar    1  UNL1        0.0036
      7 C         -25.8234   -0.1688   29.3887 C.ar    1  UNL1       -0.0038
      8 C         -29.2455   -0.0678   29.1937 C.ar    1  UNL1       -0.0177
      9 C         -29.5938    0.1182   30.4252 C.ar    1  UNL1       -0.0039
     10 C         -30.9050    0.5810   30.6985 C.ar    1  UNL1       -0.0003
     11 C         -31.7172    0.8579   29.5932 C.ar    1  UNL1        0.0015
     12 C         -30.3999   -0.0956   28.2962 C.ar    1  UNL1       -0.0006
     13 C         -31.4823    0.4756   28.4276 C.ar    1  UNL1        0.0189
     14 C         -23.5004    2.1753   27.5645 C.2     1  UNL1        0.2416
     15 N         -22.3517    1.8625   28.1712 N.2     1  UNL1       -0.1156
     16 F         -23.5115    2.9302   26.5722 F       1  UNL1       -0.1815
     17 C         -32.4160    0.5659   27.2965 C.ar    1  UNL1        0.0988
     18 N         -32.4735   -0.0421   26.3594 N.ar    1  UNL1       -0.2423
     19 C         -31.5796   -1.0133   26.2209 C.ar    1  UNL1        0.0989
     20 C         -30.3518   -0.9514   26.9869 C.ar    1  UNL1        0.0204
@<TRIPOS>BOND
     1     1     2    1
     2     1     8    1
     3     5    14    1
     4    14    15    2
     5    14    16    1
     6     2     3   ar
     7     3     4   ar
     8     4     5   ar
     9     5     6   ar
    10     6     7   ar
    11     7     2   ar
    12    13    17   ar
    13    17    18   ar
    14    18    19   ar
    15    19    20   ar
    16    20    12   ar
    17     8     9   ar
    18     9    10   ar
    19    10    11   ar
    20    11    13   ar
    21    13    12   ar
    22    12     8   ar
