@<TRIPOS>MOLECULE
No_2314-gen_results/8p0m/2024-11-26-14-13-15/
 15 17 0 0 0
SMALL
GASTEIGER

@<TRIPOS>ATOM
      1 C         -28.0162   -0.8135   28.8779 C.3     1  UNL1        0.0324
      2 C         -27.0636   -0.1189   28.6079 C.ar    1  UNL1       -0.0066
      3 C         -25.7647   -0.3897   29.0360 C.ar    1  UNL1        0.0665
      4 C         -24.5516    0.4058   28.7646 C.ar    1  UNL1        0.0162
      5 C         -24.6957    1.4480   27.7988 C.ar    1  UNL1        0.0013
      6 C         -25.9755    1.7250   27.3077 C.ar    1  UNL1       -0.0002
      7 C         -27.0718    1.0134   27.6535 C.ar    1  UNL1       -0.0030
      8 C         -28.6178   -0.4695   30.2207 C.3     1  UNL1        0.0324
      9 C         -28.3113    0.5057   30.7868 C.ar    1  UNL1       -0.0066
     10 C         -28.6123    1.0972   31.8145 C.ar    1  UNL1       -0.0030
     11 C         -28.1230    2.3657   32.4208 C.ar    1  UNL1       -0.0002
     12 C         -27.0659    2.9827   31.6595 C.ar    1  UNL1        0.0013
     13 C         -26.5688    2.3305   30.5662 C.ar    1  UNL1        0.0162
     14 C         -27.0626    1.1864   30.1971 C.ar    1  UNL1        0.0665
     15 N         -26.3396    0.6873   29.5712 N.pl3   1  UNL1       -0.2131
@<TRIPOS>BOND
     1     1     8    1
     2     3    15    1
     3     1     2    1
     4     8     9    1
     5    15    14    1
     6     2     3   ar
     7     3     4   ar
     8     4     5   ar
     9     5     6   ar
    10     6     7   ar
    11     7     2   ar
    12     9    10   ar
    13    10    11   ar
    14    11    12   ar
    15    12    13   ar
    16    13    14   ar
    17    14     9   ar
