@<TRIPOS>MOLECULE
No_2315-gen_results/8p0m/2024-11-26-14-13-15/
 18 19 0 0 0
SMALL
GASTEIGER

@<TRIPOS>ATOM
      1 C         -28.0162   -0.8135   28.8779 C.ar    1  UNL1        0.0000
      2 C         -28.4690   -0.7850   29.8287 C.ar    1  UNL1        0.0000
      3 C         -27.0871    0.2903   28.6377 C.ar    1  UNL1        0.0002
      4 C         -26.2516    0.4114   27.4223 C.ar    1  UNL1        0.0062
      5 C         -28.3141   -0.1267   30.7102 C.ar    1  UNL1        0.0000
      6 C         -27.4825    1.0076   30.8097 C.ar    1  UNL1        0.0000
      7 C         -26.7770    1.1718   29.6871 C.ar    1  UNL1        0.0000
      8 C         -24.9531    0.3511   27.6693 C.ar    1  UNL1        0.0002
      9 C         -24.0414    0.5254   26.5444 C.ar    1  UNL1        0.0000
     10 C         -24.6013    0.9045   25.3258 C.ar    1  UNL1        0.0002
     11 C         -26.6790    0.6708   26.1657 C.ar    1  UNL1        0.0756
     12 C         -25.9299    0.8418   25.1187 C.ar    1  UNL1        0.0064
     13 C         -28.1734    0.6665   25.9082 C.2     1  UNL1        0.3413
     14 O         -28.9871    1.2032   26.6062 O.2     1  UNL1       -0.2449
     15 O         -28.5960   -0.2880   25.0023 O.3     1  UNL1       -0.4425
     16 C         -29.7184    0.0497   24.2477 C.3     1  UNL1        0.2442
     17 C         -30.8713    0.0611   24.9946 C.3     1  UNL1        0.2293
     18 O         -30.8623    0.7434   25.9882 O.3     1  UNL1       -0.2162
@<TRIPOS>BOND
     1     3     4    1
     2    11    13    1
     3    13    14    2
     4    13    15    1
     5    15    16    1
     6    16    17    1
     7    17    18    1
     8     4     8   ar
     9     8     9   ar
    10     9    10   ar
    11    10    12   ar
    12    12    11   ar
    13    11     4   ar
    14     1     2   ar
    15     2     5   ar
    16     5     6   ar
    17     6     7   ar
    18     7     3   ar
    19     3     1   ar
