@<TRIPOS>MOLECULE
No_2316-gen_results/8p0m/2024-11-26-14-13-15/
 12 12 0 0 0
SMALL
GASTEIGER

@<TRIPOS>ATOM
      1 C         -28.0162   -0.8135   28.8779 C.3     1  UNL1        0.1356
      2 C         -27.0636   -0.1189   28.6079 C.ar    1  UNL1       -0.0032
      3 C         -25.7647   -0.3897   29.0360 C.ar    1  UNL1       -0.0029
      4 C         -24.5516    0.4058   28.7646 C.ar    1  UNL1        0.0036
      5 C         -24.6957    1.4480   27.7988 C.ar    1  UNL1        0.0714
      6 C         -25.9755    1.7250   27.3077 C.ar    1  UNL1        0.0036
      7 C         -27.0718    1.0134   27.6535 C.ar    1  UNL1       -0.0029
      8 N         -27.8896   -1.7391   29.9357 N.3     1  UNL1       -0.1262
      9 C         -23.4994    2.1783   27.4786 C.3     1  UNL1        0.4186
     10 F         -22.5306    1.5357   27.1254 F       1  UNL1       -0.1659
     11 F         -23.1572    3.0870   28.4423 F       1  UNL1       -0.1659
     12 F         -23.7825    3.1250   26.4829 F       1  UNL1       -0.1659
@<TRIPOS>BOND
     1     1     8    1
     2     5     9    1
     3     9    10    1
     4     9    11    1
     5     9    12    1
     6     1     2    1
     7     2     3   ar
     8     3     4   ar
     9     4     5   ar
    10     5     6   ar
    11     6     7   ar
    12     7     2   ar
