@<TRIPOS>MOLECULE
No_2317-gen_results/8p0m/2024-11-26-14-13-15/
 21 23 0 0 0
SMALL
GASTEIGER

@<TRIPOS>ATOM
      1 C         -28.0162   -0.8135   28.8779 C.ar    1  UNL1       -0.0023
      2 C         -27.0636   -0.1189   28.6079 C.ar    1  UNL1       -0.0003
      3 C         -25.7647   -0.3897   29.0360 C.ar    1  UNL1       -0.0000
      4 C         -25.5296   -1.5302   29.9014 C.ar    1  UNL1       -0.0003
      5 C         -26.6577   -2.2915   30.2035 C.ar    1  UNL1       -0.0023
      6 C         -27.8548   -1.9555   29.7630 C.ar    1  UNL1        0.0020
      7 C         -24.5441    0.4126   28.7379 C.ar    1  UNL1       -0.0000
      8 C         -24.4731    1.2065   27.7114 C.ar    1  UNL1       -0.0000
      9 C         -23.2779    1.8420   27.3661 C.ar    1  UNL1        0.0000
     10 C         -22.0928    1.6644   28.0344 C.ar    1  UNL1        0.0000
     11 C         -23.2044    0.0605   29.2613 C.ar    1  UNL1       -0.0000
     12 C         -22.0480    0.7114   28.9693 C.ar    1  UNL1        0.0000
     13 C         -29.0233   -2.7893   30.1822 C.3     1  UNL1        0.1519
     14 N         -28.8890   -4.0977   30.4305 N.2     1  UNL1       -0.2641
     15 C         -29.9257   -4.9702   30.2135 C.2     1  UNL1        0.0935
     16 C         -30.7823   -4.7769   29.1931 C.ar    1  UNL1        0.0187
     17 C         -31.3576   -5.7766   28.5887 C.ar    1  UNL1        0.0015
     18 C         -31.7164   -5.7006   27.2311 C.ar    1  UNL1        0.0000
     19 C         -32.0566   -4.4022   26.7456 C.ar    1  UNL1        0.0000
     20 C         -31.7143   -3.3095   27.5116 C.ar    1  UNL1        0.0000
     21 C         -31.0261   -3.4902   28.7393 C.ar    1  UNL1        0.0015
@<TRIPOS>BOND
     1     3     7    1
     2     6    13    1
     3    13    14    1
     4    14    15    2
     5    15    16    1
     6     7     8   ar
     7     8     9   ar
     8     9    10   ar
     9    10    12   ar
    10    12    11   ar
    11    11     7   ar
    12     1     2   ar
    13     2     3   ar
    14     3     4   ar
    15     4     5   ar
    16     5     6   ar
    17     6     1   ar
    18    16    17   ar
    19    17    18   ar
    20    18    19   ar
    21    19    20   ar
    22    20    21   ar
    23    21    16   ar
