@<TRIPOS>MOLECULE
No_2319-gen_results/8p0m/2024-11-26-14-13-15/
 13 14 0 0 0
SMALL
GASTEIGER

@<TRIPOS>ATOM
      1 O         -28.1229   -1.3353   28.4874 O.2     1  UNL1       -0.2700
      2 C         -27.4806   -0.4044   28.7094 C.2     1  UNL1        0.2799
      3 C         -27.1904    0.2460   29.5268 C.3     1  UNL1        0.2427
      4 N         -26.6871   -0.0001   27.4423 N.am    1  UNL1       -0.1583
      5 F         -27.8781    0.0301   30.6683 F       1  UNL1       -0.2270
      6 C         -25.7257    0.9956   27.4534 C.ar    1  UNL1        0.1530
      7 C         -25.5793    1.7016   28.6441 C.ar    1  UNL1        0.0147
      8 C         -26.2613    1.3799   29.7239 C.3     1  UNL1        0.0741
      9 N         -25.0703    1.3012   26.3265 N.ar    1  UNL1       -0.2015
     10 C         -24.0420    2.2643   26.4188 C.ar    1  UNL1        0.2235
     11 C         -23.8421    3.0015   27.5080 C.ar    1  UNL1        0.0494
     12 C         -24.5360    2.7601   28.5883 C.ar    1  UNL1        0.0026
     13 F         -23.3635    2.4535   25.2839 F       1  UNL1       -0.1832
@<TRIPOS>BOND
     1     1     2    2
     2     2     3    1
     3     2     4   am
     4     3     5    1
     5     3     8    1
     6     7     8    1
     7    10    13    1
     8     6     4    1
     9     6     7   ar
    10     7    12   ar
    11    12    11   ar
    12    11    10   ar
    13    10     9   ar
    14     9     6   ar
