@<TRIPOS>MOLECULE
No_232-gen_results/8p0m/2024-11-26-14-13-15/
 27 29 0 0 0
SMALL
GASTEIGER

@<TRIPOS>ATOM
      1 C         -28.0162   -0.8135   28.8779 C.ar    1  UNL1       -0.0034
      2 C         -28.4690   -0.7850   29.8287 C.ar    1  UNL1       -0.0006
      3 C         -27.0871    0.2903   28.6377 C.ar    1  UNL1       -0.0080
      4 C         -26.2516    0.4114   27.4223 C.3     1  UNL1        0.1478
      5 C         -28.3913    0.1041   30.9805 C.ar    1  UNL1       -0.0040
      6 C         -27.5332    1.1666   30.7866 C.ar    1  UNL1       -0.0187
      7 C         -26.8281    1.2557   29.6454 C.ar    1  UNL1       -0.0074
      8 C         -24.9667    0.4106   27.5253 C.ar    1  UNL1       -0.0075
      9 C         -24.2606    0.1649   28.7212 C.ar    1  UNL1       -0.0001
     10 C         -22.8025    0.3414   28.7028 C.ar    1  UNL1        0.0417
     11 C         -22.2129    1.1393   27.7295 C.ar    1  UNL1        0.1957
     12 C         -22.9457    1.6504   26.6540 C.ar    1  UNL1        0.0417
     13 C         -24.3178    1.3047   26.5367 C.ar    1  UNL1       -0.0001
     14 C         -26.9341    0.2181   26.1895 C.2     1  UNL1        0.3724
     15 O         -27.6272    1.2007   25.9033 O.co2   1  UNL1       -0.2449
     16 O         -26.9704   -0.8287   25.5787 O.co2   1  UNL1       -0.2449
     17 O         -20.9194    1.4927   27.8613 O.3     1  UNL1       -0.2866
     18 C         -27.3359    2.1838   31.8558 C.3     1  UNL1        0.0445
     19 C         -27.9421    3.3872   31.7423 C.ar    1  UNL1       -0.0184
     20 C         -28.6577    3.8421   31.1154 C.ar    1  UNL1       -0.0040
     21 C         -29.1551    5.2348   31.0696 C.ar    1  UNL1       -0.0003
     22 C         -28.6580    6.0739   32.0331 C.ar    1  UNL1       -0.0000
     23 C         -27.7120    5.6385   32.9263 C.ar    1  UNL1       -0.0003
     24 C         -27.2481    4.3354   32.8720 C.ar    1  UNL1       -0.0040
     25 C         -26.4327    1.6773   32.9582 C.3     1  UNL1        0.0081
     26 C         -25.2034    1.2034   32.5363 C.3     1  UNL1        0.0007
     27 C         -27.2200    0.8038   33.9021 C.3     1  UNL1        0.0007
@<TRIPOS>BOND
     1     3     4    1
     2     4    14    1
     3    14    15   ar
     4    14    16   ar
     5    11    17    1
     6     6    18    1
     7    18    19    1
     8    18    25    1
     9    25    26    1
    10    25    27    1
    11     4     8    1
    12     8     9   ar
    13     9    10   ar
    14    10    11   ar
    15    11    12   ar
    16    12    13   ar
    17    13     8   ar
    18     1     2   ar
    19     2     5   ar
    20     5     6   ar
    21     6     7   ar
    22     7     3   ar
    23     3     1   ar
    24    19    20   ar
    25    20    21   ar
    26    21    22   ar
    27    22    23   ar
    28    23    24   ar
    29    24    19   ar
