@<TRIPOS>MOLECULE
No_2320-gen_results/8p0m/2024-11-26-14-13-15/
 15 16 0 0 0
SMALL
GASTEIGER

@<TRIPOS>ATOM
      1 C         -28.0162   -0.8135   28.8779 C.ar    1  UNL1       -0.0000
      2 C         -28.4690   -0.7850   29.8287 C.ar    1  UNL1       -0.0000
      3 C         -27.1356    0.2359   28.5352 C.ar    1  UNL1       -0.0000
      4 C         -26.8050    1.0509   29.2763 C.ar    1  UNL1       -0.0000
      5 C         -28.2372    0.1503   30.9300 C.ar    1  UNL1       -0.0000
      6 C         -27.3522    1.1239   30.6071 C.ar    1  UNL1       -0.0003
      7 C         -26.4616    0.1962   27.1371 C.ar    1  UNL1       -0.0000
      8 C         -25.9624    1.4315   26.6948 C.ar    1  UNL1        0.0000
      9 C         -25.1071    1.5549   25.9168 C.ar    1  UNL1        0.0000
     10 C         -24.2923    0.4372   25.4182 C.ar    1  UNL1        0.0000
     11 C         -25.0917   -0.7250   25.6191 C.ar    1  UNL1        0.0000
     12 C         -25.8565   -0.8850   26.6039 C.ar    1  UNL1        0.0000
     13 C         -27.0289    2.2499   31.5555 C.2     1  UNL1       -0.0046
     14 C         -26.1068    2.9539   31.3834 C.2     1  UNL1       -0.0258
     15 C         -25.1723    2.8369   30.3489 C.3     1  UNL1        0.0307
@<TRIPOS>BOND
     1     3     7    1
     2     6    13    1
     3    13    14    2
     4    14    15    1
     5     1     2   ar
     6     2     5   ar
     7     5     6   ar
     8     6     4   ar
     9     4     3   ar
    10     3     1   ar
    11     7     8   ar
    12     8     9   ar
    13     9    10   ar
    14    10    11   ar
    15    11    12   ar
    16    12     7   ar
