@<TRIPOS>MOLECULE
No_2321-gen_results/8p0m/2024-11-26-14-13-15/
 20 21 0 0 0
SMALL
GASTEIGER

@<TRIPOS>ATOM
      1 C         -28.0162   -0.8135   28.8779 C.ar    1  UNL1        0.0039
      2 C         -27.0636   -0.1189   28.6079 C.ar    1  UNL1       -0.0001
      3 C         -25.7923   -0.4302   29.0761 C.ar    1  UNL1       -0.0000
      4 C         -25.5756   -1.5654   29.9363 C.ar    1  UNL1       -0.0001
      5 C         -26.7354   -2.3004   30.2173 C.ar    1  UNL1        0.0039
      6 C         -27.9184   -1.9537   29.7629 C.ar    1  UNL1        0.0714
      7 C         -27.1057    1.1023   27.7593 C.ar    1  UNL1       -0.0001
      8 C         -27.8576    1.5309   27.2156 C.ar    1  UNL1       -0.0000
      9 C         -27.8433    2.7213   26.2861 C.ar    1  UNL1       -0.0001
     10 C         -26.6217    3.3253   26.0566 C.ar    1  UNL1        0.0039
     11 C         -25.4854    2.7960   26.6725 C.ar    1  UNL1        0.0714
     12 C         -25.6222    1.7365   27.5193 C.ar    1  UNL1        0.0039
     13 C         -24.1950    3.4456   26.4809 C.3     1  UNL1        0.4186
     14 F         -23.1905    2.8135   26.9861 F       1  UNL1       -0.1659
     15 F         -24.1470    4.6968   27.1252 F       1  UNL1       -0.1659
     16 F         -23.8760    3.6635   25.2004 F       1  UNL1       -0.1659
     17 C         -29.0697   -2.7875   30.1985 C.3     1  UNL1        0.4186
     18 F         -29.4248   -2.6734   31.1983 F       1  UNL1       -0.1659
     19 F         -30.1239   -2.9721   29.4700 F       1  UNL1       -0.1659
     20 F         -28.5345   -4.1299   30.1990 F       1  UNL1       -0.1659
@<TRIPOS>BOND
     1     2     7    1
     2    11    13    1
     3    13    14    1
     4    13    15    1
     5    13    16    1
     6     6    17    1
     7    17    18    1
     8    17    19    1
     9    17    20    1
    10     1     2   ar
    11     2     3   ar
    12     3     4   ar
    13     4     5   ar
    14     5     6   ar
    15     6     1   ar
    16     7     8   ar
    17     8     9   ar
    18     9    10   ar
    19    10    11   ar
    20    11    12   ar
    21    12     7   ar
