@<TRIPOS>MOLECULE
No_2322-gen_results/8p0m/2024-11-26-14-13-15/
 35 37 0 0 0
SMALL
GASTEIGER

@<TRIPOS>ATOM
      1 C         -28.0162   -0.8135   28.8779 C.ar    1  UNL1        0.0309
      2 C         -28.4690   -0.7850   29.8287 C.ar    1  UNL1        0.1402
      3 C         -26.5042   -0.7777   28.8766 C.ar    1  UNL1        0.0171
      4 C         -25.8103   -0.8531   30.1028 C.ar    1  UNL1        0.0518
      5 C         -27.9906   -0.8916   31.2257 C.ar    1  UNL1        0.0309
      6 C         -26.6042   -0.8676   31.2652 C.ar    1  UNL1        0.0171
      7 F         -29.9203   -0.8331   29.8239 F       1  UNL1       -0.2042
      8 N         -24.4637   -0.7983   30.1309 N.pl3   1  UNL1       -0.2851
      9 C         -23.6546   -0.2922   29.1890 C.ar    1  UNL1        0.0516
     10 C         -22.2360   -0.3441   29.3855 C.ar    1  UNL1        0.0148
     11 C         -24.1382    0.4525   28.1253 C.ar    1  UNL1        0.0145
     12 C         -23.2525    1.1241   27.2484 C.ar    1  UNL1       -0.0027
     13 C         -21.3553    0.3067   28.5023 C.ar    1  UNL1        0.0013
     14 C         -21.8606    1.0737   27.5018 C.ar    1  UNL1       -0.0002
     15 C         -23.7197    1.9844   26.1798 C.2     1  UNL1       -0.0218
     16 C         -23.2902    3.1791   25.9497 C.2     1  UNL1       -0.0046
     17 C         -24.6905    1.2710   25.3727 C.3     1  UNL1        0.0307
     18 C         -26.0013    0.9405   25.6984 C.3     1  UNL1        0.0267
     19 C         -26.7498    1.7589   26.4863 C.ar    1  UNL1       -0.0218
     20 C         -28.1806    1.6998   26.4603 C.ar    1  UNL1        0.0003
     21 C         -28.9681    2.4903   27.3279 C.ar    1  UNL1        0.0535
     22 C         -28.3068    3.4253   28.1695 C.ar    1  UNL1        0.0111
     23 C         -26.9093    3.5497   28.1599 C.ar    1  UNL1        0.0796
     24 C         -26.1926    2.7927   27.3694 C.ar    1  UNL1        0.0023
     25 C         -26.5783   -0.1850   25.0499 C.3     1  UNL1        0.0050
     26 C         -26.2944    4.5619   29.0523 C.2     1  UNL1        0.3877
     27 O         -25.4894    5.3125   28.5468 O.co2   1  UNL1       -0.2406
     28 O         -26.5478    4.5661   30.3407 O.co2   1  UNL1       -0.2406
     29 C         -30.3981    2.3153   27.4381 C.2     1  UNL1        0.2491
     30 N         -31.1254    3.0354   26.7892 N.am    1  UNL1       -0.2743
     31 O         -30.8762    1.3862   28.1692 O.2     1  UNL1       -0.2699
     32 C         -30.8345    4.1439   25.9609 C.3     1  UNL1        0.1152
     33 C         -32.6562    2.8605   26.9228 C.3     1  UNL1        0.0938
     34 C         -24.0010   -2.1939   30.6190 C.3     1  UNL1        0.1173
     35 C         -33.3020    2.9869   25.8252 C.3     1  UNL1        0.0233
@<TRIPOS>BOND
     1     2     7    1
     2     4     8    1
     3     8     9    1
     4    12    15    1
     5    15    16    2
     6    15    17    1
     7    17    18    1
     8    18    19    1
     9    18    25    1
    10    23    26    1
    11    26    27   ar
    12    26    28   ar
    13    21    29    1
    14    29    30   am
    15    29    31    2
    16    30    32    1
    17    30    33    1
    18     8    34    1
    19    33    35    1
    20     9    10   ar
    21    10    13   ar
    22    13    14   ar
    23    14    12   ar
    24    12    11   ar
    25    11     9   ar
    26     1     2   ar
    27     2     5   ar
    28     5     6   ar
    29     6     4   ar
    30     4     3   ar
    31     3     1   ar
    32    19    20   ar
    33    20    21   ar
    34    21    22   ar
    35    22    23   ar
    36    23    24   ar
    37    24    19   ar
