@<TRIPOS>MOLECULE
No_2324-gen_results/8p0m/2024-11-26-14-13-15/
 24 26 0 0 0
SMALL
GASTEIGER

@<TRIPOS>ATOM
      1 C         -28.0162   -0.8135   28.8779 C.ar    1  UNL1        0.0254
      2 C         -28.4690   -0.7850   29.8287 C.ar    1  UNL1        0.1398
      3 C         -26.5455   -0.8762   28.8500 C.ar    1  UNL1       -0.0194
      4 C         -25.8041   -1.0324   30.0571 C.ar    1  UNL1       -0.0251
      5 C         -27.9437   -0.9869   31.2075 C.ar    1  UNL1        0.0293
      6 C         -26.5825   -1.0386   31.2231 C.ar    1  UNL1       -0.0022
      7 F         -29.9086   -0.7397   29.8642 F       1  UNL1       -0.2042
      8 C         -24.3767   -1.0979   30.0689 C.3     1  UNL1        0.0366
      9 C         -23.6966    0.1795   30.0897 C.3     1  UNL1        0.1000
     10 C         -24.0007    1.2614   30.5957 C.3     1  UNL1        0.1001
     11 N         -23.3510    2.3969   30.3323 N.3     1  UNL1       -0.1954
     12 C         -22.4198    0.3102   29.2843 C.2     1  UNL1        0.2440
     13 N         -21.9142    1.3774   28.9355 N.am    1  UNL1       -0.1858
     14 C         -22.4134    2.5175   29.4838 C.3     1  UNL1        0.2044
     15 C         -25.7239   -0.7622   27.5880 C.3     1  UNL1        0.0537
     16 C         -25.5519    0.6193   27.0040 C.ar    1  UNL1       -0.0030
     17 C         -26.0470    1.0369   26.0821 C.ar    1  UNL1       -0.0027
     18 C         -25.8428    2.4188   25.6596 C.ar    1  UNL1       -0.0002
     19 C         -24.8681    3.2299   26.3403 C.ar    1  UNL1        0.0013
     20 C         -24.1995    2.6394   27.4198 C.ar    1  UNL1        0.0158
     21 C         -24.5074    1.4050   27.8530 C.ar    1  UNL1        0.0617
     22 N         -23.5339    0.7692   27.5804 N.pl3   1  UNL1       -0.2360
     23 O         -22.1145   -0.8207   28.7376 O.2     1  UNL1       -0.2732
     24 C         -22.7265    1.3248   26.5676 C.3     1  UNL1        0.1354
@<TRIPOS>BOND
     1     2     7    1
     2     4     8    1
     3     8     9    1
     4     9    10    1
     5     9    12    1
     6    12    13   am
     7    11    14    1
     8     3    15    1
     9    15    16    1
    10    21    22    1
    11    12    23    2
    12    22    24    1
    13    10    11    1
    14    14    13    1
    15     1     2   ar
    16     2     5   ar
    17     5     6   ar
    18     6     4   ar
    19     4     3   ar
    20     3     1   ar
    21    16    17   ar
    22    17    18   ar
    23    18    19   ar
    24    19    20   ar
    25    20    21   ar
    26    21    16   ar
