@<TRIPOS>MOLECULE
No_2325-gen_results/8p0m/2024-11-26-14-13-15/
 13 14 0 0 0
SMALL
GASTEIGER

@<TRIPOS>ATOM
      1 C         -28.0162   -0.8135   28.8779 C.ar    1  UNL1        0.0988
      2 C         -27.0636   -0.1190   28.6079 C.ar    1  UNL1        0.0192
      3 C         -27.0010    0.6913   27.4910 C.ar    1  UNL1        0.0018
      4 C         -25.7770    1.0214   26.9135 C.ar    1  UNL1        0.0080
      5 C         -24.5088    0.7364   27.5686 C.ar    1  UNL1        0.0975
      6 C         -24.5930   -0.0361   28.7390 C.ar    1  UNL1        0.0081
      7 C         -25.8114   -0.4771   29.1584 C.ar    1  UNL1        0.0033
      8 N         -28.0502   -1.5988   30.0545 N.ar    1  UNL1       -0.2423
      9 C         -26.9083   -2.0145   30.6539 C.ar    1  UNL1        0.0989
     10 C         -25.7357   -1.4528   30.2595 C.ar    1  UNL1        0.0207
     11 C         -23.2606    1.3855   27.1184 C.2     1  UNL1        0.4766
     12 N         -22.1949    1.4136   27.8778 N.pl3   1  UNL1        0.2047
     13 N         -23.0996    1.8530   25.8742 N.pl3   1  UNL1        0.2047
@<TRIPOS>BOND
     1     5    11    1
     2    11    12    2
     3    11    13    1
     4     2     3   ar
     5     3     4   ar
     6     4     5   ar
     7     5     6   ar
     8     6     7   ar
     9     1     2   ar
    10     2     7   ar
    11     7    10   ar
    12    10     9   ar
    13     9     8   ar
    14     8     1   ar
