@<TRIPOS>MOLECULE
No_2326-gen_results/8p0m/2024-11-26-14-13-15/
 35 37 0 0 0
SMALL
GASTEIGER

@<TRIPOS>ATOM
      1 C         -28.0162   -0.8135   28.8779 C.ar    1  UNL1        0.0207
      2 C         -28.4690   -0.7850   29.8287 C.ar    1  UNL1        0.0549
      3 C         -26.5455   -0.8762   28.8500 C.ar    1  UNL1        0.0672
      4 C         -25.8041   -1.0324   30.0571 C.ar    1  UNL1        0.0053
      5 C         -26.5373   -1.0386   31.2171 C.ar    1  UNL1       -0.0022
      6 C         -27.8843   -0.9532   31.1862 C.ar    1  UNL1        0.0043
      7 C         -24.3655   -1.1134   30.0483 C.3     1  UNL1        0.1457
      8 P         -23.5273    0.1776   29.7881 P.3     1  UNL1        0.3745
      9 O         -24.1955    0.9998   28.8123 O.3     1  UNL1       -0.2801
     10 O         -23.6583    0.9834   31.1123 O.3     1  UNL1       -0.1395
     11 O         -22.1533    0.0424   29.5648 O.2     1  UNL1       -0.2551
     12 C         -23.5938    2.0408   28.1704 C.3     1  UNL1        0.2645
     13 C         -24.4309    3.1080   27.6819 C.2     1  UNL1        0.3949
     14 O         -25.0414    3.7698   28.4158 O.co2   1  UNL1       -0.2428
     15 O         -24.4666    3.3529   26.3728 O.co2   1  UNL1       -0.2428
     16 C         -30.0639   -0.6400   29.9007 C.2     1  UNL1        0.2491
     17 N         -30.7817   -1.3459   30.4297 N.am    1  UNL1       -0.2758
     18 O         -30.5099    0.3582   29.2283 O.2     1  UNL1       -0.2699
     19 C         -32.2458   -1.3242   30.4071 C.3     1  UNL1        0.0937
     20 C         -32.8380   -2.3370   30.6436 C.3     1  UNL1        0.0219
     21 C         -32.2344   -3.4187   31.1261 C.3     1  UNL1        0.0120
     22 C         -30.8477   -3.6171   31.2090 C.3     1  UNL1        0.1149
     23 C         -30.1708   -2.6547   30.7846 C.3     1  UNL1        0.1022
     24 C         -30.3096   -4.9140   31.6977 C.3     1  UNL1        0.3991
     25 F         -29.2243   -5.1781   31.1968 F       1  UNL1       -0.1700
     26 F         -29.9929   -4.8009   33.0312 F       1  UNL1       -0.1700
     27 F         -31.1336   -5.8984   31.6051 F       1  UNL1       -0.1700
     28 N         -25.8607   -0.8208   27.6511 N.pl3   1  UNL1       -0.2128
     29 C         -26.2590   -0.0996   26.5811 C.ar    1  UNL1        0.0702
     30 C         -25.4876   -0.1820   25.3838 C.ar    1  UNL1        0.0165
     31 C         -27.2560    0.8873   26.5717 C.ar    1  UNL1        0.0122
     32 C         -27.6074    1.6397   25.4552 C.ar    1  UNL1       -0.0206
     33 C         -26.9491    1.3869   24.2800 C.ar    1  UNL1       -0.0042
     34 C         -25.8019    0.5601   24.2813 C.ar    1  UNL1        0.0010
     35 C         -28.7350    2.6004   25.4711 C.3     1  UNL1        0.0311
@<TRIPOS>BOND
     1     4     7    1
     2     7     8    1
     3     8     9    1
     4     8    10    1
     5     8    11    2
     6     9    12    1
     7    12    13    1
     8    13    14   ar
     9    13    15   ar
    10     2    16    1
    11    16    17   am
    12    16    18    2
    13    17    19    1
    14    19    20    1
    15    21    22    1
    16    17    23    1
    17    22    23    1
    18    22    24    1
    19    24    25    1
    20    24    26    1
    21    24    27    1
    22     3    28    1
    23    28    29    1
    24    32    35    1
    25    20    21    1
    26     1     2   ar
    27     2     6   ar
    28     6     5   ar
    29     5     4   ar
    30     4     3   ar
    31     3     1   ar
    32    29    30   ar
    33    30    34   ar
    34    34    33   ar
    35    33    32   ar
    36    32    31   ar
    37    31    29   ar
