@<TRIPOS>MOLECULE
No_2328-gen_results/8p0m/2024-11-26-14-13-15/
 17 19 0 0 0
SMALL
GASTEIGER

@<TRIPOS>ATOM
      1 C         -28.0162   -0.8135   28.8779 C.ar    1  UNL1        0.0023
      2 C         -27.0636   -0.1189   28.6079 C.ar    1  UNL1       -0.0002
      3 C         -26.9716    0.7139   27.5060 C.ar    1  UNL1       -0.0013
      4 C         -28.1053    0.7744   26.6421 C.ar    1  UNL1        0.0293
      5 C         -29.2041    0.1179   27.0477 C.ar    1  UNL1        0.1401
      6 C         -29.2127   -0.6088   28.1281 C.ar    1  UNL1        0.0296
      7 F         -30.2671    0.2179   26.2593 F       1  UNL1       -0.2042
      8 C         -25.6932    1.4470   27.1347 C.2     1  UNL1       -0.0149
      9 C         -24.9049    1.3259   26.4698 C.2     1  UNL1       -0.0042
     10 C         -23.6271    2.1181   26.3715 C.2     1  UNL1       -0.0045
     11 C         -23.5086    3.0631   27.4091 C.2     1  UNL1       -0.0185
     12 C         -25.1831    2.5921   28.1356 C.3     1  UNL1        0.0846
     13 C         -25.6535    3.3329   29.1514 C.3     1  UNL1        0.1784
     14 O         -26.7460    3.1068   29.2872 O.2     1  UNL1       -0.4754
     15 C         -27.4191    3.7354   30.3101 C.2     1  UNL1        0.1676
     16 C         -26.6585    4.3275   30.9782 C.2     1  UNL1        0.0176
     17 C         -25.2582    4.1286   30.1985 C.3     1  UNL1        0.0735
@<TRIPOS>BOND
     1     5     7    1
     2     3     8    1
     3     8     9    2
     4     9    10    1
     5    10    11    2
     6     8    12    1
     7    11    12    1
     8    12    13    1
     9    13    14    1
    10    14    15    1
    11    15    16    2
    12    13    17    1
    13    16    17    1
    14     1     2   ar
    15     2     3   ar
    16     3     4   ar
    17     4     5   ar
    18     5     6   ar
    19     6     1   ar
