@<TRIPOS>MOLECULE
No_2329-gen_results/8p0m/2024-11-26-14-13-15/
 22 23 0 0 0
SMALL
GASTEIGER

@<TRIPOS>ATOM
      1 C         -28.0162   -0.8135   28.8779 C.3     1  UNL1        0.1150
      2 C         -27.0636   -0.1189   28.6079 C.ar    1  UNL1       -0.0048
      3 C         -27.0010    0.6913   27.4910 C.ar    1  UNL1       -0.0029
      4 C         -25.8548    1.4825   27.0830 C.ar    1  UNL1        0.0036
      5 C         -24.6901    1.4526   27.8807 C.ar    1  UNL1        0.0714
      6 C         -24.7379    0.6010   29.0416 C.ar    1  UNL1        0.0036
      7 C         -25.8234   -0.1688   29.3887 C.ar    1  UNL1       -0.0029
      8 N         -28.7568   -0.5479   30.0191 N.3     1  UNL1       -0.2132
      9 C         -29.7597   -1.3260   30.5171 C.3     1  UNL1        0.0916
     10 C         -30.2314   -2.2937   29.8869 C.3     1  UNL1        0.1189
     11 N         -31.2839   -2.8275   30.1163 N.3     1  UNL1       -0.2155
     12 C         -23.5283    2.2052   27.5483 C.3     1  UNL1        0.4186
     13 F         -22.8253    2.5469   28.4888 F       1  UNL1       -0.1659
     14 F         -22.9206    1.6771   26.6585 F       1  UNL1       -0.1659
     15 F         -24.0106    3.4339   27.0760 F       1  UNL1       -0.1659
     16 C         -31.7973   -3.9473   29.4096 C.3     1  UNL1        0.0888
     17 C         -30.9537   -5.0472   29.3075 C.3     1  UNL1        0.0189
     18 C         -30.1872   -5.1556   30.3649 C.3     1  UNL1        0.0041
     19 C         -29.1117   -4.0854   30.5257 C.3     1  UNL1        0.0344
     20 C         -29.2649   -2.7976   30.6964 C.3     1  UNL1        0.1692
     21 O         -28.5692   -2.2243   31.8463 O.3     1  UNL1       -0.2216
     22 C         -30.5409   -0.4947   31.3390 C.3     1  UNL1        0.0204
@<TRIPOS>BOND
     1     1     2    1
     2     1     8    1
     3     8     9    1
     4     9    10    1
     5    10    11    1
     6     5    12    1
     7    12    13    1
     8    12    14    1
     9    12    15    1
    10    11    16    1
    11    16    17    1
    12    17    18    1
    13    18    19    1
    14    10    20    1
    15    19    20    1
    16    20    21    1
    17     9    22    1
    18     2     3   ar
    19     3     4   ar
    20     4     5   ar
    21     5     6   ar
    22     6     7   ar
    23     7     2   ar
