@<TRIPOS>MOLECULE
No_233-gen_results/8p0m/2024-11-26-14-13-15/
 13 13 0 0 0
SMALL
GASTEIGER

@<TRIPOS>ATOM
      1 C         -28.0162   -0.8135   28.8779 C.3     1  UNL1        0.1515
      2 C         -27.0636   -0.1190   28.6079 C.ar    1  UNL1        0.0020
      3 C         -26.8756    1.1325   28.9134 C.ar    1  UNL1       -0.0021
      4 C         -25.6883    1.9515   28.5672 C.ar    1  UNL1        0.0063
      5 C         -24.6394    1.2834   27.8753 C.ar    1  UNL1        0.0798
      6 C         -24.8068   -0.0513   27.6040 C.ar    1  UNL1        0.0063
      7 C         -25.9019   -0.7670   27.9511 C.ar    1  UNL1       -0.0021
      8 N         -27.9985   -1.5833   30.1015 N.2     1  UNL1       -0.2687
      9 C         -23.4538    1.9850   27.4766 C.2     1  UNL1        0.3878
     10 O         -22.3417    1.7855   27.7965 O.co2   1  UNL1       -0.2406
     11 O         -23.6161    2.7003   26.2640 O.co2   1  UNL1       -0.2406
     12 C         -29.0335   -2.3754   30.5741 C.2     1  UNL1        0.0675
     13 C         -28.7457   -3.3066   31.6073 C.3     1  UNL1        0.0529
@<TRIPOS>BOND
     1     1     8    1
     2     5     9    1
     3     9    10   ar
     4     9    11   ar
     5     8    12    2
     6    12    13    1
     7     1     2    1
     8     2     3   ar
     9     3     4   ar
    10     4     5   ar
    11     5     6   ar
    12     6     7   ar
    13     7     2   ar
