@<TRIPOS>MOLECULE
No_2330-gen_results/8p0m/2024-11-26-14-13-15/
 21 23 0 0 0
SMALL
GASTEIGER

@<TRIPOS>ATOM
      1 O         -28.1229   -1.3353   28.4874 O.2     1  UNL1       -0.2695
      2 C         -27.4806   -0.4044   28.7094 C.2     1  UNL1        0.2542
      3 C         -26.3804   -0.0867   27.9394 C.ar    1  UNL1        0.0738
      4 N         -27.6664    0.4468   29.8988 N.am    1  UNL1       -0.2522
      5 C         -25.1773   -0.4388   28.3946 C.ar    1  UNL1        0.0562
      6 C         -23.9281   -0.2469   27.6677 C.ar    1  UNL1        0.0150
      7 C         -24.0115    0.7683   26.6848 C.ar    1  UNL1        0.0015
      8 C         -25.2436    1.2341   26.2435 C.ar    1  UNL1        0.0068
      9 C         -26.3955    0.8712   26.8685 C.ar    1  UNL1        0.0854
     10 C         -28.7657    0.1195   30.7687 C.3     1  UNL1        0.1204
     11 C         -26.8570    1.5236   30.2067 C.ar    1  UNL1        0.0678
     12 C         -27.2502    2.5539   30.5715 C.ar    1  UNL1        0.0162
     13 C         -26.3103    3.5692   30.9062 C.ar    1  UNL1        0.0014
     14 C         -24.9401    3.3643   30.5942 C.ar    1  UNL1        0.0014
     15 C         -24.5499    2.1798   30.0758 C.ar    1  UNL1        0.0161
     16 C         -25.4722    1.2686   29.9127 C.ar    1  UNL1        0.0655
     17 N         -24.9733    0.1018   29.5113 N.pl3   1  UNL1       -0.2840
     18 C         -24.3085   -0.7428   30.6478 C.3     1  UNL1        0.1173
     19 C         -27.6644    1.3777   26.3402 C.2     1  UNL1        0.3879
     20 O         -28.4143    1.8816   26.8752 O.co2   1  UNL1       -0.2405
     21 O         -27.9045    0.9705   25.0538 O.co2   1  UNL1       -0.2405
@<TRIPOS>BOND
     1     1     2    2
     2     2     3    1
     3     2     4   am
     4     4    10    1
     5     4    11    1
     6     5    17    1
     7    16    17    1
     8    17    18    1
     9     9    19    1
    10    19    20   ar
    11    19    21   ar
    12    11    12   ar
    13    12    13   ar
    14    13    14   ar
    15    14    15   ar
    16    15    16   ar
    17    16    11   ar
    18     3     5   ar
    19     5     6   ar
    20     6     7   ar
    21     7     8   ar
    22     8     9   ar
    23     9     3   ar
