@<TRIPOS>MOLECULE
No_2331-gen_results/8p0m/2024-11-26-14-13-15/
 19 20 0 0 0
SMALL
GASTEIGER

@<TRIPOS>ATOM
      1 C         -28.0162   -0.8135   28.8779 C.ar    1  UNL1        0.0033
      2 C         -28.4690   -0.7850   29.8287 C.ar    1  UNL1        0.0232
      3 C         -27.1356    0.2359   28.5352 C.ar    1  UNL1        0.0712
      4 C         -26.8745    1.2825   29.3982 C.ar    1  UNL1        0.0038
      5 C         -27.5070    1.2380   30.6295 C.ar    1  UNL1       -0.0002
      6 C         -28.3293    0.1745   30.9350 C.ar    1  UNL1       -0.0006
      7 C         -26.4077    0.3070   27.2259 C.3     1  UNL1        0.4186
      8 F         -25.4085   -0.3655   27.2512 F       1  UNL1       -0.1659
      9 F         -26.0182    1.5819   26.8795 F       1  UNL1       -0.1659
     10 F         -27.2405   -0.0415   26.1784 F       1  UNL1       -0.1659
     11 C         -29.3814   -2.0267   30.3338 C.3     1  UNL1        0.2528
     12 O         -28.9620   -2.9950   30.5006 O.3     1  UNL1       -0.2002
     13 CL        -30.7242   -1.6291   31.1474 Cl      1  UNL1       -0.0743
     14 C         -27.2487    2.3268   31.6084 C.ar    1  UNL1       -0.0000
     15 C         -26.8484    3.4352   31.4727 C.ar    1  UNL1       -0.0000
     16 C         -26.4318    4.3399   32.4242 C.ar    1  UNL1       -0.0000
     17 C         -26.7166    3.9895   33.7811 C.ar    1  UNL1        0.0000
     18 C         -27.2054    2.7520   34.0455 C.ar    1  UNL1       -0.0000
     19 C         -27.4669    1.8602   33.0319 C.ar    1  UNL1       -0.0000
@<TRIPOS>BOND
     1     3     7    1
     2     7     8    1
     3     7     9    1
     4     7    10    1
     5     2    11    1
     6    11    12    1
     7    11    13    1
     8     5    14    1
     9    14    15   ar
    10    15    16   ar
    11    16    17   ar
    12    17    18   ar
    13    18    19   ar
    14    19    14   ar
    15     1     2   ar
    16     2     6   ar
    17     6     5   ar
    18     5     4   ar
    19     4     3   ar
    20     3     1   ar
