@<TRIPOS>MOLECULE
No_2332-gen_results/8p0m/2024-11-26-14-13-15/
 35 39 0 0 0
SMALL
GASTEIGER

@<TRIPOS>ATOM
      1 C         -28.0162   -0.8135   28.8779 C.3     1  UNL1        0.1079
      2 C         -28.4690   -0.7850   29.8287 C.3     1  UNL1        0.1732
      3 C         -26.5455   -0.8762   28.8500 C.2     1  UNL1        0.1539
      4 C         -25.8041   -1.0324   30.0571 C.3     1  UNL1        0.0583
      5 C         -24.3697   -1.0998   30.0718 C.3     1  UNL1        0.0154
      6 C         -27.9902   -1.0051   31.2092 C.3     1  UNL1        0.0444
      7 C         -26.5616   -1.1368   31.2600 C.3     1  UNL1        0.0110
      8 C         -23.7274    0.1713   30.0259 C.3     1  UNL1        0.0696
      9 C         -23.2449    0.7308   28.8689 C.2     1  UNL1        0.1731
     10 C         -23.6630    1.9630   28.3780 C.ar    1  UNL1        0.0349
     11 C         -23.2911    2.2322   27.0157 C.ar    1  UNL1        0.0028
     12 O         -29.9294   -0.6726   29.8746 O.3     1  UNL1       -0.4790
     13 C         -30.4308    0.5971   29.9549 C.ar    1  UNL1        0.1355
     14 O         -25.7917   -0.8127   27.7250 O.2     1  UNL1       -0.2959
     15 C         -24.2801    2.8661   26.2261 C.ar    1  UNL1        0.0003
     16 C         -24.9493    3.8825   26.9299 C.ar    1  UNL1        0.0066
     17 C         -25.1776    3.8134   28.2410 C.ar    1  UNL1        0.0799
     18 C         -24.6118    2.7726   28.9828 C.ar    1  UNL1        0.0094
     19 O         -22.2319    0.0688   28.4172 O.2     1  UNL1       -0.2913
     20 C         -26.1500    4.7311   28.8742 C.2     1  UNL1        0.3878
     21 O         -26.5928    4.5363   29.9113 O.co2   1  UNL1       -0.2406
     22 O         -26.5456    5.7191   28.1440 O.co2   1  UNL1       -0.2406
     23 C         -30.2556    1.3648   30.8510 C.ar    1  UNL1        0.0363
     24 C         -30.7553    2.7523   30.8428 C.ar    1  UNL1        0.0000
     25 C         -31.5620    3.1016   29.7406 C.ar    1  UNL1       -0.0092
     26 C         -31.2264    0.9413   28.7599 C.ar    1  UNL1        0.0248
     27 C         -31.7612    2.2227   28.7319 C.ar    1  UNL1        0.0426
     28 N         -32.5508    2.5831   27.6628 N.pl3   1  UNL1       -0.3079
     29 C         -33.0774    3.6610   27.5464 C.3     1  UNL1        0.0911
     30 C         -32.8905    4.7017   28.5331 C.3     1  UNL1        0.0258
     31 C         -32.1140    4.4386   29.6473 C.3     1  UNL1        0.0252
     32 C         -32.7708    1.6073   26.5850 C.3     1  UNL1        0.0911
     33 C         -32.0476    0.6790   26.2162 C.3     1  UNL1        0.0262
     34 C         -31.3290    0.1000   27.5881 C.3     1  UNL1        0.0324
     35 C         -31.8570    5.4158   30.6968 C.3     1  UNL1        0.0048
@<TRIPOS>BOND
     1     1     3    1
     2     3     4    1
     3     4     5    1
     4     2     6    1
     5     4     7    1
     6     5     8    1
     7     8     9    1
     8     9    10    1
     9     2    12    1
    10    12    13    1
    11     3    14    2
    12     9    19    2
    13    17    20    1
    14    20    21   ar
    15    20    22   ar
    16    27    28    1
    17    28    29    1
    18    25    31    1
    19    30    31    1
    20    28    32    1
    21    26    34    1
    22    33    34    1
    23    31    35    1
    24    30    29    1
    25    33    32    1
    26     1     2    1
    27     6     7    1
    28    10    11   ar
    29    11    15   ar
    30    15    16   ar
    31    16    17   ar
    32    17    18   ar
    33    18    10   ar
    34    13    23   ar
    35    23    24   ar
    36    24    25   ar
    37    25    27   ar
    38    27    26   ar
    39    26    13   ar
