@<TRIPOS>MOLECULE
No_2333-gen_results/8p0m/2024-11-26-14-13-15/
 18 19 0 0 0
SMALL
GASTEIGER

@<TRIPOS>ATOM
      1 C         -28.0162   -0.8135   28.8779 C.ar    1  UNL1        0.0046
      2 C         -28.4690   -0.7850   29.8287 C.ar    1  UNL1        0.0554
      3 C         -26.5042   -0.7777   28.8766 C.ar    1  UNL1        0.0001
      4 C         -25.8103   -0.8531   30.1028 C.ar    1  UNL1        0.0000
      5 C         -27.9906   -0.8916   31.2257 C.ar    1  UNL1        0.0046
      6 C         -26.6042   -0.8676   31.2652 C.ar    1  UNL1        0.0001
      7 C         -30.0739   -0.8360   29.8615 C.2     1  UNL1        0.2690
      8 N         -30.6454   -0.1837   28.9598 N.am    1  UNL1       -0.1755
      9 C         -31.5454    0.3635   28.8287 C.2     1  UNL1        0.0734
     10 C         -32.0310    0.9354   27.5531 C.2     1  UNL1        0.0179
     11 C         -32.5149    0.6320   29.9520 C.ar    1  UNL1        0.0114
     12 C         -33.7190    1.3272   29.8076 C.ar    1  UNL1        0.0010
     13 C         -34.4047    1.6077   30.8983 C.ar    1  UNL1        0.0000
     14 C         -33.9410    1.0637   32.1492 C.ar    1  UNL1       -0.0003
     15 C         -32.7840    0.3550   32.2646 C.ar    1  UNL1       -0.0042
     16 C         -32.0202    0.1814   31.2333 C.ar    1  UNL1       -0.0206
     17 O         -30.6621   -1.0128   31.0503 O.2     1  UNL1       -0.2680
     18 C         -31.0551    1.0848   31.7173 C.3     1  UNL1        0.0311
@<TRIPOS>BOND
     1     2     7    1
     2     7     8   am
     3     8     9    1
     4     9    10    2
     5     9    11    1
     6     7    17    2
     7    16    18    1
     8    11    12   ar
     9    12    13   ar
    10    13    14   ar
    11    14    15   ar
    12    15    16   ar
    13    16    11   ar
    14     1     2   ar
    15     2     5   ar
    16     5     6   ar
    17     6     4   ar
    18     4     3   ar
    19     3     1   ar
