@<TRIPOS>MOLECULE
No_2334-gen_results/8p0m/2024-11-26-14-13-15/
 20 21 0 0 0
SMALL
GASTEIGER

@<TRIPOS>ATOM
      1 C         -28.0162   -0.8135   28.8779 C.ar    1  UNL1       -0.0040
      2 C         -28.4690   -0.7850   29.8287 C.ar    1  UNL1       -0.0003
      3 C         -28.1816    0.4277   28.1134 C.ar    1  UNL1       -0.0184
      4 C         -28.9841    1.4155   28.5154 C.ar    1  UNL1       -0.0040
      5 C         -29.3802    0.1384   30.4612 C.ar    1  UNL1       -0.0000
      6 C         -29.5415    1.2736   29.7242 C.ar    1  UNL1       -0.0003
      7 C         -27.4586    0.4934   26.7701 C.3     1  UNL1        0.0446
      8 C         -26.0263    0.3840   26.7617 C.3     1  UNL1        0.0124
      9 C         -25.3148    0.0488   27.8701 C.3     1  UNL1        0.0270
     10 C         -23.9145    0.1729   27.8973 C.ar    1  UNL1       -0.0222
     11 C         -23.1341   -0.2623   29.0442 C.ar    1  UNL1       -0.0043
     12 C         -21.7570    0.0338   29.0773 C.ar    1  UNL1       -0.0003
     13 C         -21.1955    0.8895   28.1309 C.ar    1  UNL1       -0.0000
     14 C         -22.0217    1.5767   27.2126 C.ar    1  UNL1       -0.0003
     15 C         -23.3279    1.2728   27.1594 C.ar    1  UNL1       -0.0043
     16 C         -28.2499    0.5220   25.6461 C.2     1  UNL1       -0.0221
     17 C         -25.4458    0.6756   25.4846 C.3     1  UNL1        0.0010
     18 C         -29.1834    0.0957   25.3413 C.2     1  UNL1       -0.0043
     19 C         -29.8551    0.2796   24.0581 C.2     1  UNL1       -0.0003
     20 C         -29.2204    1.0911   23.2202 C.2     1  UNL1       -0.0000
@<TRIPOS>BOND
     1     3     7    1
     2     7     8    1
     3     8     9    1
     4     7    16    1
     5     8    17    1
     6    16    18    2
     7    18    19    1
     8    19    20    2
     9     9    10    1
    10     1     2   ar
    11     2     5   ar
    12     5     6   ar
    13     6     4   ar
    14     4     3   ar
    15     3     1   ar
    16    10    11   ar
    17    11    12   ar
    18    12    13   ar
    19    13    14   ar
    20    14    15   ar
    21    15    10   ar
