@<TRIPOS>MOLECULE
No_2335-gen_results/8p0m/2024-11-26-14-13-15/
 26 28 0 0 0
SMALL
GASTEIGER

@<TRIPOS>ATOM
      1 C         -28.0162   -0.8135   28.8779 C.ar    1  UNL1        0.0114
      2 C         -28.4690   -0.7850   29.8287 C.ar    1  UNL1        0.0577
      3 C         -27.0871    0.2903   28.6377 C.ar    1  UNL1        0.0008
      4 C         -26.8317    1.2487   29.5869 C.ar    1  UNL1        0.0001
      5 C         -28.3914    0.0801   31.0065 C.ar    1  UNL1        0.0114
      6 C         -27.4940    1.1521   30.7841 C.ar    1  UNL1        0.0009
      7 C         -26.3172    0.3994   27.3653 C.ar    1  UNL1       -0.0000
      8 C         -24.9405    0.2550   27.5028 C.ar    1  UNL1        0.0039
      9 C         -26.9129    0.5860   26.1397 C.ar    1  UNL1       -0.0003
     10 C         -28.2688    0.7168   25.9850 C.2     1  UNL1       -0.0043
     11 C         -28.7657    0.7315   24.6860 C.2     1  UNL1       -0.0218
     12 C         -30.1595    0.8701   24.4627 C.ar    1  UNL1       -0.0040
     13 C         -30.6691    0.9816   23.4368 C.ar    1  UNL1       -0.0003
     14 C         -32.1309    1.1311   23.2584 C.ar    1  UNL1       -0.0000
     15 C         -32.9139    1.1553   24.3908 C.ar    1  UNL1       -0.0000
     16 C         -31.0996    0.9018   25.6588 C.ar    1  UNL1       -0.0003
     17 C         -32.3736    1.0134   25.5516 C.ar    1  UNL1       -0.0000
     18 C         -24.1079    1.2071   26.9560 C.ar    1  UNL1        0.0714
     19 C         -24.5883    1.7088   25.6559 C.ar    1  UNL1        0.0039
     20 C         -26.0088    1.4178   25.2025 C.ar    1  UNL1       -0.0001
     21 C         -28.0073    0.3520   23.6011 C.3     1  UNL1        0.0310
     22 C         -22.7016    1.3667   27.2339 C.3     1  UNL1        0.4186
     23 F         -21.9263    1.9711   26.5001 F       1  UNL1       -0.1659
     24 F         -22.7726    2.1008   28.5309 F       1  UNL1       -0.1659
     25 F         -22.2058    0.2180   27.7291 F       1  UNL1       -0.1659
     26 CL        -29.6896   -2.1197   30.2017 Cl      1  UNL1       -0.0822
@<TRIPOS>BOND
     1     3     7    1
     2     9    10    1
     3    10    11    2
     4    11    12    1
     5    11    21    1
     6    18    22    1
     7    22    23    1
     8    22    24    1
     9    22    25    1
    10     2    26    1
    11    12    13   ar
    12    13    14   ar
    13    14    15   ar
    14    15    17   ar
    15    17    16   ar
    16    16    12   ar
    17     1     2   ar
    18     2     5   ar
    19     5     6   ar
    20     6     4   ar
    21     4     3   ar
    22     3     1   ar
    23     7     8   ar
    24     8    18   ar
    25    18    19   ar
    26    19    20   ar
    27    20     9   ar
    28     9     7   ar
