@<TRIPOS>MOLECULE
No_2336-gen_results/8p0m/2024-11-26-14-13-15/
 35 37 0 0 0
SMALL
GASTEIGER

@<TRIPOS>ATOM
      1 C         -28.0162   -0.8135   28.8779 C.ar    1  UNL1        0.0066
      2 C         -28.4690   -0.7850   29.8287 C.ar    1  UNL1        0.0800
      3 C         -27.0871    0.2903   28.6377 C.ar    1  UNL1        0.0012
      4 C         -26.8317    1.2487   29.5869 C.ar    1  UNL1        0.0066
      5 C         -28.3914    0.0801   31.0065 C.ar    1  UNL1        0.0132
      6 C         -27.4940    1.1521   30.7841 C.ar    1  UNL1        0.0800
      7 C         -26.3172    0.3994   27.3653 C.ar    1  UNL1        0.0139
      8 C         -26.8815    0.9711   26.3721 C.ar    1  UNL1        0.0762
      9 C         -26.1464    0.9703   25.0973 C.ar    1  UNL1        0.0065
     10 C         -24.7793    0.5609   25.1117 C.ar    1  UNL1        0.0008
     11 C         -25.0074   -0.1159   27.2986 C.ar    1  UNL1        0.0418
     12 C         -24.2881    0.0057   26.2234 C.ar    1  UNL1        0.0082
     13 C         -24.3927   -0.7309   28.5286 C.1     1  UNL1       -0.0643
     14 C         -23.5733   -1.2064   29.0224 C.1     1  UNL1       -0.0854
     15 C         -22.4103   -1.4745   29.7716 C.3     1  UNL1        0.0903
     16 C         -28.2777    1.4744   26.2682 C.2     1  UNL1        0.3417
     17 O         -29.1316    0.9785   25.6396 O.2     1  UNL1       -0.2449
     18 O         -28.5288    2.4853   27.1638 O.3     1  UNL1       -0.4352
     19 C         -29.5067   -1.9754   30.2546 C.2     1  UNL1        0.3878
     20 O         -30.5982   -1.9340   29.8765 O.co2   1  UNL1       -0.2406
     21 O         -29.0361   -2.9839   30.9001 O.co2   1  UNL1       -0.2406
     22 C         -27.2919    2.1734   31.8621 C.2     1  UNL1        0.3878
     23 O         -27.6303    3.0971   32.1269 O.co2   1  UNL1       -0.2406
     24 O         -26.3965    1.4679   32.7836 O.co2   1  UNL1       -0.2406
     25 C         -29.2534    3.5891   26.7230 C.3     1  UNL1        0.2948
     26 C         -30.5443    3.4672   26.8315 C.2     1  UNL1        0.2902
     27 O         -31.2047    4.0995   26.1302 O.2     1  UNL1       -0.2689
     28 N         -31.1304    2.6811   27.7602 N.am    1  UNL1       -0.1761
     29 C         -32.0678    2.4213   28.1810 C.ar    1  UNL1        0.0732
     30 C         -32.3023    1.2909   29.1026 C.ar    1  UNL1        0.0166
     31 C         -32.7743    3.5884   28.8614 C.ar    1  UNL1        0.0123
     32 C         -34.0608    3.3539   29.6047 C.ar    1  UNL1       -0.0206
     33 C         -34.6925    4.4121   30.1206 C.3     1  UNL1        0.0311
     34 C         -34.3598    2.0468   29.9345 C.ar    1  UNL1       -0.0042
     35 C         -33.1329    1.1326   29.9864 C.ar    1  UNL1        0.0010
@<TRIPOS>BOND
     1     3     7    1
     2    11    13    1
     3    13    14    3
     4    14    15    1
     5     8    16    1
     6    16    17    2
     7    16    18    1
     8     2    19    1
     9    19    20   ar
    10    19    21   ar
    11     6    22    1
    12    22    23   ar
    13    22    24   ar
    14    18    25    1
    15    25    26    1
    16    26    27    2
    17    26    28   am
    18    28    29    1
    19    33    32    1
    20     7     8   ar
    21     8     9   ar
    22     9    10   ar
    23    10    12   ar
    24    12    11   ar
    25    11     7   ar
    26    29    30   ar
    27    30    35   ar
    28    35    34   ar
    29    34    32   ar
    30    32    31   ar
    31    31    29   ar
    32     1     2   ar
    33     2     5   ar
    34     5     6   ar
    35     6     4   ar
    36     4     3   ar
    37     3     1   ar
