@<TRIPOS>MOLECULE
No_2337-gen_results/8p0m/2024-11-26-14-13-15/
 15 16 0 0 0
SMALL
GASTEIGER

@<TRIPOS>ATOM
      1 C         -28.0162   -0.8135   28.8779 C.ar    1  UNL1        0.0021
      2 C         -28.4690   -0.7850   29.8287 C.ar    1  UNL1        0.0256
      3 C         -26.5042   -0.7777   28.8766 C.ar    1  UNL1        0.0307
      4 C         -25.6540   -0.6597   27.7191 C.2     1  UNL1        0.1755
      5 C         -29.9920   -0.8134   29.9579 C.3     1  UNL1        0.2619
      6 C         -24.2081   -0.6354   27.9684 C.3     1  UNL1        0.1047
      7 C         -23.8313   -0.4724   29.1447 C.3     1  UNL1        0.1730
      8 C         -24.5335   -0.4722   30.3054 C.3     1  UNL1        0.0621
      9 C         -25.8881   -0.6364   30.1891 C.ar    1  UNL1       -0.0167
     10 C         -27.9147   -0.7967   31.2360 C.ar    1  UNL1       -0.0007
     11 C         -26.6872   -0.6654   31.3555 C.ar    1  UNL1       -0.0043
     12 CL        -30.7702   -0.0680   28.7609 Cl      1  UNL1       -0.0719
     13 F         -30.7195   -1.4329   30.8139 F       1  UNL1       -0.2143
     14 F         -22.3866   -0.3409   29.3095 F       1  UNL1       -0.2365
     15 O         -26.0720   -0.7110   26.5055 O.2     1  UNL1       -0.2913
@<TRIPOS>BOND
     1     3     4    1
     2     4     6    1
     3     7     8    1
     4     5    12    1
     5     5    13    1
     6     7    14    1
     7     4    15    2
     8     5     2    1
     9     9     8    1
    10     7     6    1
    11     1     2   ar
    12     2    10   ar
    13    10    11   ar
    14    11     9   ar
    15     9     3   ar
    16     3     1   ar
