@<TRIPOS>MOLECULE
No_2338-gen_results/8p0m/2024-11-26-14-13-15/
 20 22 0 0 0
SMALL
GASTEIGER

@<TRIPOS>ATOM
      1 C         -28.0162   -0.8135   28.8779 C.ar    1  UNL1        0.0000
      2 C         -28.4690   -0.7850   29.8287 C.ar    1  UNL1        0.0000
      3 C         -27.0871    0.2903   28.6377 C.ar    1  UNL1        0.0002
      4 C         -26.2516    0.4114   27.4223 C.ar    1  UNL1        0.0000
      5 C         -28.3913    0.1041   30.9805 C.ar    1  UNL1        0.0000
      6 C         -27.5332    1.1666   30.7866 C.ar    1  UNL1        0.0002
      7 C         -26.8281    1.2557   29.6454 C.ar    1  UNL1        0.0062
      8 C         -25.7329    1.6893   27.1546 C.ar    1  UNL1        0.0002
      9 C         -25.3980    2.5582   28.1599 C.ar    1  UNL1        0.0064
     10 C         -26.1221    2.4683   29.3701 C.ar    1  UNL1        0.0757
     11 C         -25.8642    3.5352   30.3767 C.2     1  UNL1        0.3415
     12 O         -26.8383    3.7419   31.1095 O.3     1  UNL1       -0.4404
     13 O         -24.7120    3.4820   30.9793 O.2     1  UNL1       -0.2449
     14 C         -26.6149    4.6714   32.1600 C.3     1  UNL1        0.2354
     15 C         -26.6965    6.0385   31.7226 C.ar    1  UNL1        0.0213
     16 C         -27.3951    6.6237   32.1610 C.ar    1  UNL1       -0.0007
     17 C         -25.6079    6.3597   30.7729 C.ar    1  UNL1       -0.0007
     18 C         -25.7324    7.4812   30.1719 C.ar    1  UNL1       -0.0002
     19 C         -27.5114    8.1013   31.5951 C.ar    1  UNL1       -0.0002
     20 C         -26.5911    8.4818   30.6271 C.ar    1  UNL1       -0.0000
@<TRIPOS>BOND
     1    10    11    1
     2    11    12    1
     3    11    13    2
     4    12    14    1
     5    14    15    1
     6    15    16   ar
     7    16    19   ar
     8    19    20   ar
     9    20    18   ar
    10    18    17   ar
    11    17    15   ar
    12     1     2   ar
    13     2     5   ar
    14     5     6   ar
    15     6     7   ar
    16     3     1   ar
    17     3     4   ar
    18     4     8   ar
    19     8     9   ar
    20     9    10   ar
    21    10     7   ar
    22     7     3   ar
