@<TRIPOS>MOLECULE
No_2339-gen_results/8p0m/2024-11-26-14-13-15/
 15 15 0 0 0
SMALL
GASTEIGER

@<TRIPOS>ATOM
      1 C         -28.0162   -0.8135   28.8779 C.ar    1  UNL1        0.0063
      2 C         -28.4690   -0.7850   29.8287 C.ar    1  UNL1        0.0798
      3 C         -27.0871    0.2903   28.6377 C.ar    1  UNL1       -0.0037
      4 C         -26.0238    0.3644   29.2526 C.ar    1  UNL1       -0.0170
      5 C         -29.4161   -1.9279   30.1751 C.2     1  UNL1        0.3878
      6 C         -26.2326    0.1422   30.7730 C.ar    1  UNL1       -0.0037
      7 C         -27.3914   -0.7532   31.0134 C.ar    1  UNL1        0.0063
      8 O         -30.6347   -1.6708   29.8410 O.co2   1  UNL1       -0.2406
      9 O         -29.1779   -3.0058   30.8843 O.co2   1  UNL1       -0.2406
     10 C         -24.8507    1.3139   29.0439 C.3     1  UNL1        0.0616
     11 C         -23.7246    1.0116   29.4420 C.2     1  UNL1       -0.0206
     12 C         -24.9692    2.3675   28.0822 C.3     1  UNL1        0.0974
     13 C         -23.3465    0.2450   30.5301 C.2     1  UNL1       -0.0045
     14 N         -25.1796    2.5004   27.0603 N.3     1  UNL1       -0.2158
     15 C         -25.2657    3.6321   26.3994 C.3     1  UNL1        0.1075
@<TRIPOS>BOND
     1     2     5    1
     2     5     8   ar
     3     5     9   ar
     4     4    10    1
     5    10    11    1
     6    10    12    1
     7    11    13    2
     8    12    14    1
     9    14    15    1
    10     1     2   ar
    11     2     7   ar
    12     7     6   ar
    13     6     4   ar
    14     4     3   ar
    15     3     1   ar
