@<TRIPOS>MOLECULE
No_2340-gen_results/8p0m/2024-11-26-14-13-15/
 15 15 0 0 0
SMALL
GASTEIGER

@<TRIPOS>ATOM
      1 O         -28.1229   -1.3353   28.4874 O.2     1  UNL1       -0.2730
      2 C         -27.0637   -0.8242   28.8687 C.2     1  UNL1        0.2504
      3 C         -25.9464   -1.0396   28.8492 C.3     1  UNL1        0.1735
      4 C         -25.3522   -2.2524   28.5471 C.3     1  UNL1        0.4057
      5 N         -27.2400    0.6843   29.2270 N.am    1  UNL1       -0.1897
      6 C         -26.2490    1.4618   29.6073 C.3     1  UNL1        0.1844
      7 C         -24.9400    0.9653   29.6238 C.3     1  UNL1        0.1394
      8 C         -24.6678   -0.2528   29.2999 C.3     1  UNL1        0.0321
      9 F         -24.0818   -2.5339   28.5253 F       1  UNL1       -0.1695
     10 F         -25.9973   -3.2481   29.4660 F       1  UNL1       -0.1695
     11 F         -25.6454   -2.6184   27.2609 F       1  UNL1       -0.1695
     12 CL        -26.6275    3.0317   30.1296 Cl      1  UNL1       -0.0905
     13 C         -23.8090    1.9340   30.0687 C.2     1  UNL1        0.3673
     14 O         -23.9342    2.7192   30.9601 O.co2   1  UNL1       -0.2456
     15 O         -22.8035    2.0471   29.2522 O.co2   1  UNL1       -0.2456
@<TRIPOS>BOND
     1     1     2    2
     2     2     3    1
     3     3     4    1
     4     2     5   am
     5     6     7    1
     6     3     8    1
     7     4     9    1
     8     4    10    1
     9     4    11    1
    10     6    12    1
    11     7    13    1
    12    13    14   ar
    13    13    15   ar
    14     8     7    1
    15     6     5    1
