@<TRIPOS>MOLECULE
No_2341-gen_results/8p0m/2024-11-26-14-13-15/
 35 37 0 0 0
SMALL
GASTEIGER

@<TRIPOS>ATOM
      1 C         -28.0162   -0.8135   28.8779 C.ar    1  UNL1        0.1822
      2 C         -27.0636   -0.1190   28.6079 C.ar    1  UNL1        0.0408
      3 C         -25.7923   -0.4302   29.0761 C.ar    1  UNL1        0.0032
      4 C         -25.5756   -1.5654   29.9363 C.ar    1  UNL1        0.0033
      5 C         -26.7354   -2.3004   30.2173 C.ar    1  UNL1        0.0401
      6 C         -27.9184   -1.9537   29.7629 C.ar    1  UNL1        0.1737
      7 O         -29.0001   -2.7012   30.1151 O.3     1  UNL1       -0.4607
      8 C         -24.6739    0.5156   28.7788 C.ar    1  UNL1        0.0001
      9 C         -24.4980    1.0802   27.6263 C.ar    1  UNL1        0.0000
     10 C         -23.3118    1.8848   27.3777 C.ar    1  UNL1        0.0000
     11 C         -22.1973    1.8036   28.1462 C.ar    1  UNL1        0.0000
     12 C         -23.4569    0.4002   29.5942 C.ar    1  UNL1        0.0000
     13 C         -22.2553    1.0394   29.2691 C.ar    1  UNL1        0.0000
     14 C         -29.3577   -2.8206   31.4421 C.3     1  UNL1        0.3142
     15 C         -29.7791   -4.1325   31.7426 C.2     1  UNL1        0.3626
     16 O         -31.0012   -4.3580   31.6090 O.3     1  UNL1       -0.4334
     17 C         -31.4759   -5.4327   31.1231 C.3     1  UNL1        0.3213
     18 O         -29.0231   -5.1249   31.9964 O.2     1  UNL1       -0.2459
     19 C         -31.3539   -5.8018   29.9239 C.2     1  UNL1        0.4085
     20 O         -31.2855   -6.9464   29.5008 O.co2   1  UNL1       -0.2415
     21 O         -31.4318   -4.8690   28.8996 O.co2   1  UNL1       -0.2415
     22 O         -29.2809   -0.5332   28.4592 O.3     1  UNL1       -0.4190
     23 C         -29.5349    0.3606   27.5318 C.2     1  UNL1        0.3567
     24 C         -30.2785    1.3582   28.0315 C.3     1  UNL1        0.2723
     25 O         -30.8680    1.2835   29.0790 O.3     1  UNL1       -0.2061
     26 C         -29.4852    2.7231   28.1062 C.ar    1  UNL1        0.0184
     27 O         -29.1767    0.1116   26.3928 O.2     1  UNL1       -0.2465
     28 C         -29.1573    3.4488   26.9702 C.ar    1  UNL1       -0.0013
     29 C         -27.9997    4.0206   26.9344 C.ar    1  UNL1       -0.0005
     30 C         -27.1481    4.2689   28.0852 C.ar    1  UNL1       -0.0029
     31 C         -27.5300    3.5102   29.2472 C.ar    1  UNL1       -0.0050
     32 C         -28.6253    2.7203   29.2319 C.ar    1  UNL1       -0.0042
     33 C         -26.6063    3.6615   30.4151 C.3     1  UNL1        0.1150
     34 N         -26.4671    2.7141   31.2091 N.3     1  UNL1       -0.2118
     35 C         -27.0225    1.7742   31.6109 C.3     1  UNL1        0.1079
@<TRIPOS>BOND
     1     6     7    1
     2     3     8    1
     3     7    14    1
     4    14    15    1
     5    15    16    1
     6    16    17    1
     7    15    18    2
     8    17    19    1
     9    19    20   ar
    10    19    21   ar
    11     1    22    1
    12    22    23    1
    13    23    24    1
    14    24    25    1
    15    24    26    1
    16    23    27    2
    17    31    33    1
    18    33    34    1
    19    34    35    1
    20    26    28   ar
    21    28    29   ar
    22    29    30   ar
    23    30    31   ar
    24    31    32   ar
    25    32    26   ar
    26     1     2   ar
    27     2     3   ar
    28     3     4   ar
    29     4     5   ar
    30     5     6   ar
    31     6     1   ar
    32     8     9   ar
    33     9    10   ar
    34    10    11   ar
    35    11    13   ar
    36    13    12   ar
    37    12     8   ar
