@<TRIPOS>MOLECULE
No_2343-gen_results/8p0m/2024-11-26-14-13-15/
 33 36 0 0 0
SMALL
GASTEIGER

@<TRIPOS>ATOM
      1 F         -28.0727   -1.2542   28.5316 F       1  UNL1       -0.2039
      2 C         -27.3591   -0.3792   28.7224 C.ar    1  UNL1        0.1471
      3 C         -26.3323   -0.6441   29.4520 C.ar    1  UNL1        0.1166
      4 C         -25.2562    0.3203   29.7818 C.ar    1  UNL1        0.1003
      5 C         -25.4242    1.6275   29.2026 C.ar    1  UNL1        0.1549
      6 C         -26.5263    1.8254   28.4032 C.ar    1  UNL1        0.0496
      7 C         -27.4513    0.8601   28.1355 C.ar    1  UNL1        0.0292
      8 C         -28.5399    1.2022   27.2448 C.ar    1  UNL1        0.0004
      9 C         -29.4852    0.8770   27.0868 C.ar    1  UNL1        0.0303
     10 C         -30.4923    1.2139   26.0511 C.ar    1  UNL1        0.1506
     11 C         -30.0041    2.1667   25.1365 C.ar    1  UNL1        0.0847
     12 C         -28.7203    2.6729   25.1781 C.ar    1  UNL1        0.0094
     13 C         -27.8962    2.2733   26.2088 C.ar    1  UNL1       -0.0208
     14 O         -24.5285    2.5604   29.5114 O.3     1  UNL1       -0.4500
     15 C         -26.0565   -1.9830   30.0936 C.2     1  UNL1        0.3462
     16 O         -25.0563   -2.5863   29.9800 O.3     1  UNL1       -0.4196
     17 O         -27.1484   -2.5297   30.5835 O.2     1  UNL1       -0.2447
     18 CL        -31.0481    2.7255   23.8730 Cl      1  UNL1       -0.0799
     19 C         -24.8944   -3.6731   29.0456 C.3     1  UNL1        0.3069
     20 F         -31.6917    0.7909   25.9156 F       1  UNL1       -0.2033
     21 CL        -23.9577    0.0427   30.7950 Cl      1  UNL1       -0.0788
     22 C         -24.4122   -4.7176   29.6436 C.3     1  UNL1        0.1454
     23 C         -24.4850   -5.8563   28.5890 C.3     1  UNL1        0.0256
     24 N         -22.9689   -4.4947   29.5907 N.3     1  UNL1       -0.1821
     25 C         -22.9529   -3.0823   29.5125 C.3     1  UNL1        0.2556
     26 O         -24.2572   -3.1670   28.0283 O.3     1  UNL1       -0.3151
     27 C         -23.2958   -2.3794   28.1282 C.3     1  UNL1        0.1970
     28 O         -23.1246   -2.2867   30.5430 O.3     1  UNL1       -0.2009
     29 C         -24.6012    3.5842   28.4568 C.2     1  UNL1        0.1778
     30 C         -25.4018    3.6013   27.3788 C.2     1  UNL1        0.0514
     31 C         -26.4658    2.7589   27.3938 C.3     1  UNL1        0.2025
     32 O         -26.8317    3.9334   27.1998 O.3     1  UNL1       -0.2132
     33 C         -26.6667    1.9096   25.5060 C.3     1  UNL1        0.0311
@<TRIPOS>BOND
     1     1     2    1
     2     7     8    1
     3     5    14    1
     4     3    15    1
     5    15    16    1
     6    15    17    2
     7    11    18    1
     8    16    19    1
     9    10    20    1
    10     4    21    1
    11    19    22    1
    12    22    23    1
    13    22    24    1
    14    24    25    1
    15    19    26    1
    16    25    27    1
    17    26    27    1
    18    25    28    1
    19    14    29    1
    20    29    30    2
    21     6    31    1
    22    30    31    1
    23    31    32    1
    24    13    33    1
    25     2     3   ar
    26     3     4   ar
    27     4     5   ar
    28     5     6   ar
    29     6     7   ar
    30     7     2   ar
    31     8     9   ar
    32     9    10   ar
    33    10    11   ar
    34    11    12   ar
    35    12    13   ar
    36    13     8   ar
