@<TRIPOS>MOLECULE
No_2344-gen_results/8p0m/2024-11-26-14-13-15/
 28 30 0 0 0
SMALL
GASTEIGER

@<TRIPOS>ATOM
      1 C         -28.0162   -0.8135   28.8779 C.2     1  UNL1        0.2490
      2 C         -27.0636   -0.1189   28.6079 C.ar    1  UNL1        0.0533
      3 C         -26.9287    1.1713   29.0083 C.ar    1  UNL1        0.0013
      4 C         -25.7702    2.0341   28.6884 C.ar    1  UNL1       -0.0099
      5 C         -24.7141    1.4431   27.9188 C.ar    1  UNL1       -0.0251
      6 C         -24.8590    0.0783   27.5836 C.ar    1  UNL1       -0.0044
      7 C         -25.9647   -0.6606   27.9164 C.ar    1  UNL1        0.0042
      8 N         -27.9821   -1.6367   30.0748 N.am    1  UNL1       -0.2755
      9 O         -29.2163   -0.4132   28.6627 O.2     1  UNL1       -0.2699
     10 C         -29.0156   -2.4825   30.5856 C.3     1  UNL1        0.0830
     11 C         -23.5339    2.1607   27.5674 C.3     1  UNL1        0.0221
     12 C         -22.3731    2.1188   28.2664 C.3     1  UNL1        0.0047
     13 C         -23.3236    2.1211   26.0481 C.3     1  UNL1        0.0047
     14 C         -26.6595   -2.0341   30.6401 C.3     1  UNL1        0.1151
     15 C         -29.3680   -2.1538   31.8825 C.3     1  UNL1        0.0207
     16 C         -30.6276   -1.5741   32.0562 C.3     1  UNL1        0.0095
     17 C         -31.4781   -1.5354   31.2322 C.3     1  UNL1        0.0646
     18 C         -31.6521   -2.6531   30.4788 C.2     1  UNL1        0.1523
     19 C         -30.5055   -3.1885   29.7410 C.3     1  UNL1        0.0843
     20 O         -32.7269   -3.2705   29.9675 O.2     1  UNL1       -0.2960
     21 C         -25.6224    3.4198   29.0629 C.3     1  UNL1        0.1008
     22 N         -25.5636    3.7056   30.3503 N.3     1  UNL1       -0.2420
     23 C         -25.9526    4.9671   30.8533 C.3     1  UNL1        0.1414
     24 C         -25.0127    2.7903   31.3297 C.3     1  UNL1        0.1649
     25 CL        -26.4005    6.1081   29.9022 Cl      1  UNL1       -0.0969
     26 C         -25.8222    5.1842   32.2776 C.3     1  UNL1        0.0517
     27 C         -25.4401    4.2959   33.2100 C.3     1  UNL1        0.0930
     28 N         -25.0579    3.0558   32.6503 N.3     1  UNL1       -0.2007
@<TRIPOS>BOND
     1     1     2    1
     2     1     8   am
     3     1     9    2
     4     8    10    1
     5     5    11    1
     6    11    12    1
     7    11    13    1
     8     8    14    1
     9    10    15    1
    10    15    16    1
    11    16    17    1
    12    17    18    1
    13    10    19    1
    14    18    19    1
    15    18    20    2
    16     4    21    1
    17    21    22    1
    18    22    23    1
    19    22    24    1
    20    23    25    1
    21    23    26    1
    22    24    28    1
    23    26    27    1
    24    27    28    1
    25     2     3   ar
    26     3     4   ar
    27     4     5   ar
    28     5     6   ar
    29     6     7   ar
    30     7     2   ar
