@<TRIPOS>MOLECULE
No_2346-gen_results/8p0m/2024-11-26-14-13-15/
 14 15 0 0 0
SMALL
GASTEIGER

@<TRIPOS>ATOM
      1 C         -28.0162   -0.8135   28.8779 C.ar    1  UNL1        0.0178
      2 C         -28.4690   -0.7850   29.8287 C.ar    1  UNL1        0.0813
      3 C         -26.5455   -0.8762   28.8500 C.ar    1  UNL1        0.0015
      4 C         -25.8041   -1.0324   30.0571 C.ar    1  UNL1        0.0001
      5 C         -27.9437   -0.9869   31.2075 C.ar    1  UNL1        0.0191
      6 C         -26.5825   -1.0386   31.2231 C.ar    1  UNL1        0.0015
      7 N         -29.9648   -0.7353   29.8902 N.ar    1  UNL1       -0.2437
      8 C         -30.5344   -0.0309   29.0060 C.ar    1  UNL1        0.1034
      9 C         -29.9774    0.1672   27.9241 C.ar    1  UNL1        0.0742
     10 C         -30.4973    0.7836   26.7245 C.2     1  UNL1        0.2663
     11 C         -28.5313   -0.2312   27.7128 C.ar    1  UNL1        0.0076
     12 O         -30.2145    0.5934   25.5775 O.2     1  UNL1       -0.2683
     13 N         -31.2899    1.8868   26.9054 N.am    1  UNL1       -0.1997
     14 C         -31.9084    2.6295   25.8540 C.3     1  UNL1        0.1388
@<TRIPOS>BOND
     1     9    10    1
     2    10    12    2
     3    10    13   am
     4    13    14    1
     5     2     7   ar
     6     7     8   ar
     7     8     9   ar
     8     9    11   ar
     9    11     1   ar
    10     1     2   ar
    11     2     5   ar
    12     5     6   ar
    13     6     4   ar
    14     4     3   ar
    15     3     1   ar
