@<TRIPOS>MOLECULE
No_2347-gen_results/8p0m/2024-11-26-14-13-15/
 34 36 0 0 0
SMALL
GASTEIGER

@<TRIPOS>ATOM
      1 C         -28.0162   -0.8135   28.8779 C.ar    1  UNL1        0.0073
      2 C         -28.4690   -0.7850   29.8287 C.ar    1  UNL1        0.0574
      3 C         -27.1356    0.2359   28.5352 C.ar    1  UNL1       -0.0148
      4 C         -26.8745    1.2825   29.3982 C.ar    1  UNL1        0.0718
      5 C         -27.5070    1.2380   30.6295 C.ar    1  UNL1        0.0070
      6 C         -28.3293    0.1745   30.9350 C.ar    1  UNL1        0.0116
      7 C         -26.4409    0.0880   27.2474 C.3     1  UNL1        0.0309
      8 C         -25.0343    0.0636   27.2973 C.3     1  UNL1        0.0312
      9 C         -27.0476    0.3155   26.0022 C.3     1  UNL1        0.0267
     10 C         -28.4101    0.4681   25.8993 C.ar    1  UNL1       -0.0220
     11 C         -28.9317    0.4935   24.5982 C.ar    1  UNL1       -0.0043
     12 C         -30.3309    0.5901   24.4426 C.ar    1  UNL1       -0.0001
     13 C         -31.1353    0.5691   25.5053 C.ar    1  UNL1        0.0066
     14 C         -30.6046    0.4890   26.8009 C.ar    1  UNL1        0.0795
     15 C         -29.2930    0.4583   27.0020 C.ar    1  UNL1        0.0023
     16 C         -26.2186    0.2483   24.8624 C.3     1  UNL1        0.0050
     17 C         -31.4637    0.1985   27.9545 C.2     1  UNL1        0.3877
     18 O         -31.5886    1.0471   28.8914 O.co2   1  UNL1       -0.2406
     19 O         -31.8838   -0.9745   28.1791 O.co2   1  UNL1       -0.2406
     20 C         -24.4301   -0.3395   28.5561 C.ar    1  UNL1       -0.0155
     21 C         -23.1681    0.0237   28.8689 C.ar    1  UNL1        0.0758
     22 C         -22.5307   -0.5852   29.9984 C.ar    1  UNL1        0.0063
     23 C         -23.3078   -1.4131   30.7929 C.ar    1  UNL1        0.0002
     24 C         -24.6307   -1.7295   30.5091 C.ar    1  UNL1       -0.0003
     25 C         -25.1411   -1.2023   29.3829 C.ar    1  UNL1       -0.0040
     26 C         -25.9649    2.4077   29.1241 C.2     1  UNL1        0.3409
     27 O         -25.5851    3.0769   29.9639 O.2     1  UNL1       -0.2449
     28 O         -25.9475    2.8415   27.8447 O.3     1  UNL1       -0.4454
     29 C         -25.0747    3.8879   27.5622 C.3     1  UNL1        0.2089
     30 CL        -29.6538   -2.0837   30.4246 Cl      1  UNL1       -0.0823
     31 C         -24.3653    3.5247   26.3213 C.3     1  UNL1        0.0513
     32 C         -22.3199    0.9075   28.0483 C.2     1  UNL1        0.3874
     33 O         -22.8146    1.8371   27.3453 O.co2   1  UNL1       -0.2406
     34 O         -21.0611    0.9189   28.3246 O.co2   1  UNL1       -0.2406
@<TRIPOS>BOND
     1     3     7    1
     2     7     8    1
     3     7     9    1
     4     9    10    1
     5     9    16    1
     6    14    17    1
     7    17    18   ar
     8    17    19   ar
     9     8    20    1
    10     4    26    1
    11    26    27    2
    12    26    28    1
    13    28    29    1
    14     2    30    1
    15    29    31    1
    16    21    32    1
    17    32    33   ar
    18    32    34   ar
    19     1     2   ar
    20     2     6   ar
    21     6     5   ar
    22     5     4   ar
    23     4     3   ar
    24     3     1   ar
    25    10    11   ar
    26    11    12   ar
    27    12    13   ar
    28    13    14   ar
    29    14    15   ar
    30    15    10   ar
    31    20    21   ar
    32    21    22   ar
    33    22    23   ar
    34    23    24   ar
    35    24    25   ar
    36    25    20   ar
