@<TRIPOS>MOLECULE
No_2348-gen_results/8p0m/2024-11-26-14-13-15/
 10 10 0 0 0
SMALL
GASTEIGER

@<TRIPOS>ATOM
      1 C         -28.0162   -0.8135   28.8779 C.ar    1  UNL1       -0.0043
      2 C         -28.4690   -0.7850   29.8287 C.ar    1  UNL1       -0.0218
      3 C         -27.0871    0.2903   28.6377 C.ar    1  UNL1       -0.0006
      4 C         -26.9102    0.8486   27.4199 C.2     1  UNL1       -0.0046
      5 C         -29.6069   -1.6266   30.1338 C.3     1  UNL1        0.0310
      6 C         -25.7234    1.3208   27.0407 C.2     1  UNL1       -0.0258
      7 C         -25.4192    1.8248   25.7688 C.3     1  UNL1        0.0307
      8 C         -27.9998    0.0086   31.0823 C.ar    1  UNL1       -0.0043
      9 C         -27.1092    0.9990   30.9041 C.ar    1  UNL1       -0.0003
     10 C         -26.6679    1.2128   29.6717 C.ar    1  UNL1       -0.0000
@<TRIPOS>BOND
     1     3     4    1
     2     2     5    1
     3     4     6    2
     4     6     7    1
     5     1     2   ar
     6     2     8   ar
     7     8     9   ar
     8     9    10   ar
     9    10     3   ar
    10     3     1   ar
