@<TRIPOS>MOLECULE
No_2349-gen_results/8p0m/2024-11-26-14-13-15/
 18 20 0 0 0
SMALL
GASTEIGER

@<TRIPOS>ATOM
      1 C         -28.0162   -0.8135   28.8779 C.ar    1  UNL1       -0.0015
      2 C         -28.4690   -0.7850   29.8287 C.ar    1  UNL1       -0.0002
      3 C         -27.1356    0.2359   28.5352 C.ar    1  UNL1        0.0119
      4 C         -26.3351    0.2900   27.2835 C.3     1  UNL1        0.1967
      5 C         -28.3692    0.1957   30.9236 C.ar    1  UNL1       -0.0000
      6 C         -27.5158    1.2655   30.6540 C.ar    1  UNL1       -0.0002
      7 C         -26.8411    1.2942   29.4761 C.ar    1  UNL1       -0.0015
      8 C         -25.3615    0.7752   26.9671 C.ar    1  UNL1        0.0149
      9 C         -24.5497    1.3390   27.4391 C.ar    1  UNL1        0.0164
     10 C         -23.3176    1.9567   26.8904 C.ar    1  UNL1        0.0811
     11 C         -22.2351    2.5092   27.6291 C.ar    1  UNL1        0.0191
     12 C         -21.9400    1.5994   28.6591 C.ar    1  UNL1        0.0015
     13 C         -22.8060    0.8196   29.3947 C.ar    1  UNL1        0.0001
     14 C         -24.0306    0.6292   28.8411 C.ar    1  UNL1        0.0013
     15 N         -23.6098    2.5703   25.7157 N.ar    1  UNL1       -0.2439
     16 C         -25.2073    0.8353   25.4522 C.ar    1  UNL1        0.0192
     17 C         -24.4828    1.8657   24.9289 C.ar    1  UNL1        0.0986
     18 O         -27.2216   -0.4281   26.4003 O.3     1  UNL1       -0.2134
@<TRIPOS>BOND
     1     3     4    1
     2     4    18    1
     3     4     8    1
     4     8     9   ar
     5    10    15   ar
     6    15    17   ar
     7    17    16   ar
     8    16     8   ar
     9     9    10   ar
    10    10    11   ar
    11    11    12   ar
    12    12    13   ar
    13    13    14   ar
    14    14     9   ar
    15     1     2   ar
    16     2     5   ar
    17     5     6   ar
    18     6     7   ar
    19     7     3   ar
    20     3     1   ar
