@<TRIPOS>MOLECULE
No_235-gen_results/8p0m/2024-11-26-14-13-15/
 22 24 0 0 0
SMALL
GASTEIGER

@<TRIPOS>ATOM
      1 C         -28.0162   -0.8135   28.8779 C.ar    1  UNL1        0.0482
      2 C         -27.0636   -0.1189   28.6079 C.ar    1  UNL1        0.0326
      3 C         -26.9716    0.7139   27.5060 C.ar    1  UNL1        0.0147
      4 C         -28.1053    0.7744   26.6421 C.ar    1  UNL1        0.0713
      5 C         -29.2008    0.1044   27.0527 C.ar    1  UNL1        0.1026
      6 C         -29.2096   -0.6029   28.1853 C.ar    1  UNL1        0.1573
      7 CL        -30.5651    0.2430   26.0493 Cl      1  UNL1       -0.0782
      8 C         -25.7033   -0.2337   29.4132 C.ar    1  UNL1        0.1464
      9 C         -25.5451   -0.8516   30.2590 C.ar    1  UNL1        0.0628
     10 C         -26.7138   -1.7891   30.6815 C.ar    1  UNL1        0.0204
     11 C         -27.8659   -1.7185   30.0143 C.ar    1  UNL1        0.0612
     12 CL        -29.1398   -2.7426   30.5225 Cl      1  UNL1       -0.0821
     13 F         -24.6622    0.5624   28.9605 F       1  UNL1       -0.2037
     14 CL        -28.0066    1.8417   25.2882 Cl      1  UNL1       -0.0813
     15 BR        -23.9528   -1.0873   31.3141 Br      1  UNL1       -0.0466
     16 O         -30.3008   -1.2760   28.5049 O.3     1  UNL1       -0.4526
     17 C         -31.5283   -0.9607   28.9098 C.ar    1  UNL1        0.1453
     18 C         -32.4113   -1.7180   28.6927 C.ar    1  UNL1        0.0375
     19 C         -33.7094   -1.3068   28.7951 C.ar    1  UNL1        0.0031
     20 C         -31.7011    0.3236   29.4866 C.ar    1  UNL1        0.0375
     21 C         -32.9347    0.8168   29.7513 C.ar    1  UNL1        0.0031
     22 C         -33.9964   -0.0814   29.4458 C.ar    1  UNL1        0.0002
@<TRIPOS>BOND
     1     5     7    1
     2    11    12    1
     3     8    13    1
     4     4    14    1
     5     9    15    1
     6     6    16    1
     7    16    17    1
     8     2     3   ar
     9     3     4   ar
    10     4     5   ar
    11     5     6   ar
    12     6     1   ar
    13    17    18   ar
    14    18    19   ar
    15    19    22   ar
    16    22    21   ar
    17    21    20   ar
    18    20    17   ar
    19     1     2   ar
    20     2     8   ar
    21     8     9   ar
    22     9    10   ar
    23    10    11   ar
    24    11     1   ar
