@<TRIPOS>MOLECULE
No_2350-gen_results/8p0m/2024-11-26-14-13-15/
 22 24 0 0 0
SMALL
GASTEIGER

@<TRIPOS>ATOM
      1 C         -28.0162   -0.8135   28.8779 C.ar    1  UNL1        0.0444
      2 C         -28.4690   -0.7850   29.8287 C.ar    1  UNL1        0.0828
      3 C         -26.5455   -0.8762   28.8500 C.ar    1  UNL1        0.1497
      4 C         -25.8041   -1.0324   30.0571 C.ar    1  UNL1        0.0915
      5 C         -26.5373   -1.0386   31.2171 C.ar    1  UNL1        0.0147
      6 C         -27.8843   -0.9532   31.1862 C.ar    1  UNL1        0.0076
      7 CL        -24.1391   -1.1177   30.0459 Cl      1  UNL1       -0.0791
      8 C         -30.0700   -0.7183   29.9328 C.2     1  UNL1        0.3879
      9 O         -30.6408    0.0642   30.8485 O.co2   1  UNL1       -0.2406
     10 O         -30.7036   -1.3034   29.0843 O.co2   1  UNL1       -0.2406
     11 O         -25.7500   -0.8357   27.6931 O.3     1  UNL1       -0.4698
     12 C         -25.4649    0.3449   27.1125 C.3     1  UNL1        0.2320
     13 C         -26.1407    1.3724   27.1087 C.ar    1  UNL1        0.0212
     14 C         -27.2568    1.4574   28.0092 C.ar    1  UNL1       -0.0007
     15 C         -27.8654    2.9085   27.9475 C.ar    1  UNL1       -0.0002
     16 C         -28.7905    3.2637   28.9233 C.ar    1  UNL1       -0.0000
     17 C         -29.3363    4.5334   28.8534 C.ar    1  UNL1       -0.0000
     18 C         -28.9808    5.3945   27.8370 C.ar    1  UNL1       -0.0000
     19 C         -28.0949    5.0087   26.8611 C.ar    1  UNL1       -0.0000
     20 C         -27.5047    3.7612   26.9341 C.ar    1  UNL1       -0.0000
     21 C         -25.8344    2.4565   26.1891 C.ar    1  UNL1       -0.0007
     22 C         -26.4564    3.4923   26.0418 C.ar    1  UNL1       -0.0002
@<TRIPOS>BOND
     1     4     7    1
     2     2     8    1
     3     8     9   ar
     4     8    10   ar
     5     3    11    1
     6    11    12    1
     7    12    13    1
     8    15    16   ar
     9    16    17   ar
    10    17    18   ar
    11    18    19   ar
    12    19    20   ar
    13     1     2   ar
    14     2     6   ar
    15     6     5   ar
    16     5     4   ar
    17     4     3   ar
    18     3     1   ar
    19    13    14   ar
    20    14    15   ar
    21    15    20   ar
    22    20    22   ar
    23    22    21   ar
    24    21    13   ar
