@<TRIPOS>MOLECULE
No_2351-gen_results/8p0m/2024-11-26-14-13-15/
 15 15 0 0 0
SMALL
GASTEIGER

@<TRIPOS>ATOM
      1 C         -28.0162   -0.8135   28.8779 C.3     1  UNL1        0.1168
      2 C         -27.0636   -0.1189   28.6079 C.ar    1  UNL1       -0.0047
      3 C         -26.9287    1.1713   29.0083 C.ar    1  UNL1       -0.0027
      4 C         -25.7702    2.0341   28.6884 C.ar    1  UNL1        0.0043
      5 C         -24.7141    1.4431   27.9188 C.ar    1  UNL1        0.0566
      6 C         -24.8590    0.0783   27.5836 C.ar    1  UNL1        0.0043
      7 C         -25.9647   -0.6606   27.9164 C.ar    1  UNL1       -0.0027
      8 N         -29.1701   -0.2984   28.9471 N.3     1  UNL1       -0.1917
      9 C         -29.7216    0.3727   28.0429 C.3     1  UNL1        0.2171
     10 CL        -28.9890    0.9568   26.8315 Cl      1  UNL1       -0.0870
     11 C         -31.1985    0.4937   28.0601 C.2     1  UNL1        0.2412
     12 C         -23.4834    2.1194   27.5786 C.2     1  UNL1        0.2842
     13 N         -22.2617    1.6295   27.6045 N.am    1  UNL1       -0.0837
     14 O         -23.6347    3.0923   26.6838 O.2     1  UNL1       -0.2667
     15 O         -31.7777    1.0742   27.2865 O.2     1  UNL1       -0.2854
@<TRIPOS>BOND
     1     1     2    1
     2     1     8    1
     3     8     9    1
     4     9    10    1
     5     9    11    1
     6     5    12    1
     7    12    13   am
     8    12    14    2
     9    11    15    2
    10     2     3   ar
    11     3     4   ar
    12     4     5   ar
    13     5     6   ar
    14     6     7   ar
    15     7     2   ar
