@<TRIPOS>MOLECULE
No_2352-gen_results/8p0m/2024-11-26-14-13-15/
 25 27 0 0 0
SMALL
GASTEIGER

@<TRIPOS>ATOM
      1 C         -28.0162   -0.8135   28.8779 C.3     1  UNL1        0.1203
      2 C         -27.0636   -0.1189   28.6079 C.ar    1  UNL1        0.0037
      3 C         -27.0010    0.6913   27.4910 C.ar    1  UNL1        0.0774
      4 C         -25.8548    1.4825   27.0830 C.ar    1  UNL1        0.0063
      5 C         -24.6901    1.4526   27.8807 C.ar    1  UNL1        0.0002
      6 C         -24.7379    0.6010   29.0416 C.ar    1  UNL1       -0.0005
      7 C         -25.8234   -0.1688   29.3887 C.ar    1  UNL1       -0.0061
      8 N         -28.7300   -0.5298   30.0429 N.pl3   1  UNL1       -0.2753
      9 C         -28.9322    0.3226   30.5381 C.3     1  UNL1        0.2510
     10 C         -29.3038    1.0059   31.2658 C.2     1  UNL1        0.0228
     11 C         -29.9269    0.8580   32.5350 C.2     1  UNL1       -0.0217
     12 C         -30.1001   -0.4124   32.9701 C.3     1  UNL1        0.0531
     13 C         -29.1958   -1.7949   30.7128 C.2     1  UNL1        0.0593
     14 C         -29.6854   -1.8577   31.7487 C.2     1  UNL1       -0.0056
     15 C         -23.4945    2.1918   27.5449 C.ar    1  UNL1        0.0000
     16 C         -22.5285    2.2375   28.5301 C.ar    1  UNL1        0.0000
     17 C         -22.5450    1.3220   29.5504 C.ar    1  UNL1       -0.0000
     18 C         -23.6023    0.5969   29.8903 C.ar    1  UNL1       -0.0000
     19 C         -25.8099   -0.9734   30.5821 C.2     1  UNL1       -0.0221
     20 C         -28.1667    0.7830   26.5605 C.2     1  UNL1        0.3875
     21 O         -28.1831    0.5689   25.4471 O.co2   1  UNL1       -0.2406
     22 O         -29.3209    1.1061   27.1650 O.co2   1  UNL1       -0.2406
     23 C         -25.0125   -1.7434   31.2191 C.2     1  UNL1       -0.0046
     24 C         -26.8910   -0.5500   31.6116 C.3     1  UNL1        0.0310
     25 O         -28.0799    0.8344   30.4189 O.3     1  UNL1       -0.1956
@<TRIPOS>BOND
     1     1     2    1
     2     1     8    1
     3     8     9    1
     4     9    10    1
     5    10    11    2
     6    11    12    1
     7     8    13    1
     8    12    14    1
     9    13    14    2
    10     7    19    1
    11     3    20    1
    12    20    21   ar
    13    20    22   ar
    14    19    23    2
    15    19    24    1
    16     9    25    1
    17     2     3   ar
    18     3     4   ar
    19     4     5   ar
    20     6     7   ar
    21     7     2   ar
    22     5     6   ar
    23     6    18   ar
    24    18    17   ar
    25    17    16   ar
    26    16    15   ar
    27    15     5   ar
