@<TRIPOS>MOLECULE
No_2353-gen_results/8p0m/2024-11-26-14-13-15/
 24 26 0 0 0
SMALL
GASTEIGER

@<TRIPOS>ATOM
      1 C         -28.0162   -0.8135   28.8779 C.ar    1  UNL1       -0.0000
      2 C         -28.4690   -0.7850   29.8287 C.ar    1  UNL1       -0.0000
      3 C         -28.1960    0.3478   28.0550 C.ar    1  UNL1       -0.0000
      4 C         -27.4421    0.5100   26.7946 C.2     1  UNL1       -0.0003
      5 C         -26.4394    0.8329   26.6142 C.2     1  UNL1        0.0006
      6 C         -25.3280    0.8299   26.6309 C.2     1  UNL1        0.0089
      7 C         -24.0748    1.2813   27.0970 C.2     1  UNL1        0.0518
      8 C         -23.0034    1.5265   27.4729 C.1     1  UNL1       -0.0292
      9 C         -29.5315    0.0456   30.3313 C.ar    1  UNL1        0.0000
     10 C         -29.1550    1.2464   28.4159 C.ar    1  UNL1       -0.0000
     11 C         -29.8069    1.1097   29.5595 C.ar    1  UNL1       -0.0000
     12 C         -21.8168    1.6731   28.1355 C.1     1  UNL1        0.1107
     13 C         -28.4734    0.6659   25.7464 C.2     1  UNL1       -0.0039
     14 C         -29.4791    0.1041   25.4615 C.2     1  UNL1       -0.0177
     15 C         -30.1570    0.3465   24.1668 C.3     1  UNL1        0.0661
     16 C         -31.4488   -0.1278   23.9250 C.ar    1  UNL1       -0.0143
     17 C         -27.9728    1.4430   24.5779 C.2     1  UNL1       -0.0042
     18 C         -28.8398    1.4351   23.5512 C.2     1  UNL1       -0.0177
     19 C         -32.3498    0.1694   24.7884 C.ar    1  UNL1       -0.0036
     20 C         -33.6832   -0.4024   24.6406 C.ar    1  UNL1       -0.0003
     21 C         -33.8907   -1.1172   23.5069 C.ar    1  UNL1       -0.0000
     22 C         -32.8691   -1.3125   22.6129 C.ar    1  UNL1       -0.0003
     23 C         -31.6440   -0.8893   22.7964 C.ar    1  UNL1       -0.0036
     24 F         -21.7655    2.0084   29.2741 F       1  UNL1       -0.1429
@<TRIPOS>BOND
     1     3     4    1
     2     4     5    2
     3     5     6    1
     4     6     7    2
     5     7     8    1
     6     8    12    3
     7     4    13    1
     8    13    14    2
     9    14    15    1
    10    13    17    1
    11    15    18    1
    12    17    18    2
    13    12    24    1
    14    15    16    1
    15    16    19   ar
    16    19    20   ar
    17    20    21   ar
    18    21    22   ar
    19    22    23   ar
    20    23    16   ar
    21     1     2   ar
    22     2     9   ar
    23     9    11   ar
    24    11    10   ar
    25    10     3   ar
    26     3     1   ar
