@<TRIPOS>MOLECULE
No_2354-gen_results/8p0m/2024-11-26-14-13-15/
 22 24 0 0 0
SMALL
GASTEIGER

@<TRIPOS>ATOM
      1 C         -28.0162   -0.8135   28.8779 C.ar    1  UNL1        0.2133
      2 C         -27.0636   -0.1190   28.6079 C.ar    1  UNL1        0.1197
      3 N         -25.8176   -0.3427   29.0488 N.ar    1  UNL1       -0.2421
      4 C         -24.6506    0.4444   28.7649 C.ar    1  UNL1        0.0811
      5 C         -24.7153    1.3122   27.7191 C.ar    1  UNL1        0.0137
      6 C         -23.6123    2.0895   27.3593 C.ar    1  UNL1        0.0012
      7 C         -22.3656    1.7793   27.9567 C.ar    1  UNL1        0.0001
      8 C         -22.2742    0.8511   28.9741 C.ar    1  UNL1        0.0015
      9 C         -23.4448    0.1138   29.3645 C.ar    1  UNL1        0.0191
     10 C         -29.3280   -0.3069   28.7603 C.ar    1  UNL1        0.0501
     11 C         -29.5487    0.7198   27.8743 C.ar    1  UNL1        0.0793
     12 C         -28.4515    1.4052   27.3709 C.ar    1  UNL1        0.0078
     13 C         -27.1562    1.1077   27.7795 C.ar    1  UNL1        0.0171
     14 C         -25.9969    1.7781   27.3218 C.ar    1  UNL1       -0.0188
     15 C         -26.1210    2.8861   26.3999 C.3     1  UNL1        0.0311
     16 C         -30.9215    1.1321   27.7544 C.2     1  UNL1        0.3459
     17 O         -31.3560    2.0699   27.4243 O.2     1  UNL1       -0.2445
     18 O         -31.7923    0.0261   27.6604 O.3     1  UNL1       -0.4182
     19 O         -27.8871   -1.8596   29.7576 O.3     1  UNL1       -0.2850
     20 C         -32.9336    0.1131   26.9595 C.2     1  UNL1        0.1785
     21 C         -33.8206    0.6201   27.1431 C.2     1  UNL1        0.0149
     22 C         -35.0601    0.6007   26.3613 C.3     1  UNL1        0.0341
@<TRIPOS>BOND
     1    14    15    1
     2    11    16    1
     3    16    17    2
     4    16    18    1
     5     1    19    1
     6    18    20    1
     7    20    21    2
     8    21    22    1
     9     2     3   ar
    10     3     4   ar
    11     5    14   ar
    12    14    13   ar
    13     4     5   ar
    14     5     6   ar
    15     6     7   ar
    16     7     8   ar
    17     8     9   ar
    18     9     4   ar
    19     1     2   ar
    20     2    13   ar
    21    13    12   ar
    22    12    11   ar
    23    11    10   ar
    24    10     1   ar
