@<TRIPOS>MOLECULE
No_2355-gen_results/8p0m/2024-11-26-14-13-15/
 19 21 0 0 0
SMALL
GASTEIGER

@<TRIPOS>ATOM
      1 C         -28.0162   -0.8135   28.8779 C.ar    1  UNL1        0.0001
      2 C         -27.0636   -0.1190   28.6079 C.ar    1  UNL1        0.0022
      3 C         -25.7647   -0.3897   29.0360 C.ar    1  UNL1        0.0275
      4 C         -24.5516    0.4058   28.7646 C.ar    1  UNL1        0.1401
      5 C         -23.2300    0.1178   29.2575 C.ar    1  UNL1        0.0296
      6 C         -23.0942   -1.1309   29.8730 C.ar    1  UNL1        0.0023
      7 C         -29.3447   -0.3638   28.7645 C.ar    1  UNL1        0.0000
      8 C         -29.5539    0.7832   27.9962 C.ar    1  UNL1        0.0000
      9 C         -28.4765    1.5048   27.5499 C.ar    1  UNL1        0.0000
     10 C         -27.1351    1.1613   27.9146 C.ar    1  UNL1        0.0001
     11 C         -25.3290   -1.6429   29.7172 C.ar    1  UNL1        0.0022
     12 C         -24.0825   -1.9597   30.0875 C.ar    1  UNL1        0.0001
     13 C         -30.9190    1.2127   27.6895 C.ar    1  UNL1        0.0000
     14 C         -31.8361    1.0994   28.5851 C.ar    1  UNL1        0.0000
     15 C         -31.1721    1.6955   26.3831 C.ar    1  UNL1        0.0000
     16 C         -33.2054    1.4775   28.2305 C.ar    1  UNL1        0.0000
     17 C         -32.5172    2.1117   26.0765 C.ar    1  UNL1        0.0000
     18 C         -33.4600    2.0184   27.0149 C.ar    1  UNL1        0.0000
     19 F         -24.6602    1.5776   28.1543 F       1  UNL1       -0.2042
@<TRIPOS>BOND
     1     2     3    1
     2     8    13    1
     3     4    19    1
     4     1     2   ar
     5     2    10   ar
     6    10     9   ar
     7     9     8   ar
     8     8     7   ar
     9     7     1   ar
    10    13    14   ar
    11    14    16   ar
    12    16    18   ar
    13    18    17   ar
    14    17    15   ar
    15    15    13   ar
    16     3     4   ar
    17     4     5   ar
    18     5     6   ar
    19     6    12   ar
    20    12    11   ar
    21    11     3   ar
