@<TRIPOS>MOLECULE
No_2357-gen_results/8p0m/2024-11-26-14-13-15/
 20 22 0 0 0
SMALL
GASTEIGER

@<TRIPOS>ATOM
      1 C         -28.0162   -0.8135   28.8779 C.ar    1  UNL1        0.0066
      2 C         -27.0636   -0.1190   28.6079 C.ar    1  UNL1        0.0002
      3 C         -25.7647   -0.3897   29.0360 C.ar    1  UNL1        0.0000
      4 C         -24.5516    0.4058   28.7646 C.ar    1  UNL1        0.0008
      5 C         -23.2300    0.1178   29.2575 C.ar    1  UNL1        0.0000
      6 C         -23.0942   -1.1309   29.8730 C.ar    1  UNL1        0.0000
      7 C         -27.7981   -1.9341   29.8560 C.ar    1  UNL1        0.0798
      8 C         -26.5420   -2.3269   30.2580 C.ar    1  UNL1        0.0066
      9 C         -25.4514   -1.5516   29.9079 C.ar    1  UNL1        0.0002
     10 C         -24.1562   -1.9097   30.2809 C.ar    1  UNL1        0.0000
     11 C         -24.6450    1.6582   27.9464 C.ar    1  UNL1        0.0106
     12 C         -24.8958    2.7559   28.5615 C.ar    1  UNL1        0.0576
     13 C         -25.1728    3.9344   27.8440 C.ar    1  UNL1        0.0114
     14 C         -24.4838    1.5571   26.5889 C.ar    1  UNL1        0.0008
     15 C         -24.6321    2.6939   25.7850 C.ar    1  UNL1        0.0001
     16 C         -24.8902    3.9231   26.4317 C.ar    1  UNL1        0.0009
     17 CL        -25.1519    2.9361   30.2805 Cl      1  UNL1       -0.0822
     18 C         -29.0108   -2.7529   30.2316 C.2     1  UNL1        0.3878
     19 O         -29.9415   -2.3720   30.0190 O.co2   1  UNL1       -0.2406
     20 O         -28.7222   -3.8937   30.8346 O.co2   1  UNL1       -0.2406
@<TRIPOS>BOND
     1     4    11    1
     2    12    17    1
     3     7    18    1
     4    18    19   ar
     5    18    20   ar
     6     1     2   ar
     7     2     3   ar
     8     9     8   ar
     9     8     7   ar
    10     7     1   ar
    11    11    12   ar
    12    12    13   ar
    13    13    16   ar
    14    16    15   ar
    15    15    14   ar
    16    14    11   ar
    17     3     4   ar
    18     4     5   ar
    19     5     6   ar
    20     6    10   ar
    21    10     9   ar
    22     9     3   ar
