@<TRIPOS>MOLECULE
No_2358-gen_results/8p0m/2024-11-26-14-13-15/
 7 7 0 0 0
SMALL
GASTEIGER

@<TRIPOS>ATOM
      1 C         -28.0162   -0.8135   28.8779 C.ar    1  UNL1        0.0296
      2 C         -28.4690   -0.7850   29.8287 C.ar    1  UNL1        0.0023
      3 C         -27.0871    0.2903   28.6377 C.ar    1  UNL1        0.1401
      4 C         -26.8317    1.2487   29.5869 C.ar    1  UNL1        0.0296
      5 C         -28.3914    0.0801   31.0065 C.ar    1  UNL1        0.0001
      6 C         -27.4940    1.1521   30.7841 C.ar    1  UNL1        0.0023
      7 F         -26.4106    0.3574   27.4837 F       1  UNL1       -0.2042
@<TRIPOS>BOND
     1     3     7    1
     2     1     2   ar
     3     2     5   ar
     4     5     6   ar
     5     6     4   ar
     6     4     3   ar
     7     3     1   ar
