@<TRIPOS>MOLECULE
No_2359-gen_results/8p0m/2024-11-26-14-13-15/
 21 23 0 0 0
SMALL
GASTEIGER

@<TRIPOS>ATOM
      1 C         -28.0162   -0.8135   28.8779 C.ar    1  UNL1        0.0000
      2 C         -28.4690   -0.7850   29.8287 C.ar    1  UNL1        0.0000
      3 C         -27.1356    0.2359   28.5352 C.ar    1  UNL1        0.0002
      4 C         -26.8050    1.0509   29.2763 C.ar    1  UNL1        0.0000
      5 C         -27.3158    1.1492   30.6054 C.ar    1  UNL1        0.0000
      6 C         -28.1917    0.1430   30.9488 C.ar    1  UNL1        0.0000
      7 C         -26.4831    0.2096   27.1281 C.ar    1  UNL1        0.0064
      8 C         -27.0196    0.6489   26.1370 C.ar    1  UNL1        0.0798
      9 C         -26.4103    0.4893   24.8421 C.ar    1  UNL1        0.0066
     10 C         -25.0825   -0.0283   24.8361 C.ar    1  UNL1        0.0002
     11 C         -25.1087   -0.3129   27.0516 C.ar    1  UNL1        0.0002
     12 C         -24.4544   -0.3514   25.9213 C.ar    1  UNL1        0.0000
     13 C         -24.4087   -0.7653   28.3241 C.ar    1  UNL1        0.0000
     14 C         -28.4589    1.0898   26.0760 C.2     1  UNL1        0.3878
     15 O         -28.6024    2.2573   26.2749 O.co2   1  UNL1       -0.2406
     16 O         -29.3500    0.2307   25.9754 O.co2   1  UNL1       -0.2406
     17 C         -23.3220   -0.3426   28.8766 C.ar    1  UNL1        0.0000
     18 C         -22.6799   -0.9246   29.9358 C.ar    1  UNL1        0.0000
     19 C         -23.4125   -1.7718   30.7612 C.ar    1  UNL1        0.0000
     20 C         -24.9428   -1.8164   29.1700 C.ar    1  UNL1        0.0000
     21 C         -24.5048   -2.3016   30.2636 C.ar    1  UNL1        0.0000
@<TRIPOS>BOND
     1     3     7    1
     2    11    13    1
     3     8    14    1
     4    14    15   ar
     5    14    16   ar
     6     7     8   ar
     7     8     9   ar
     8     9    10   ar
     9    10    12   ar
    10    12    11   ar
    11    11     7   ar
    12     1     2   ar
    13     2     6   ar
    14     6     5   ar
    15     5     4   ar
    16     4     3   ar
    17     3     1   ar
    18    13    17   ar
    19    17    18   ar
    20    18    19   ar
    21    19    21   ar
    22    21    20   ar
    23    20    13   ar
