@<TRIPOS>MOLECULE
No_236-gen_results/8p0m/2024-11-26-14-13-15/
 12 13 0 0 0
SMALL
GASTEIGER

@<TRIPOS>ATOM
      1 C         -28.0162   -0.8135   28.8779 C.ar    1  UNL1        0.0114
      2 C         -28.4690   -0.7850   29.8287 C.ar    1  UNL1        0.0577
      3 C         -26.5042   -0.7777   28.8766 C.ar    1  UNL1        0.0009
      4 C         -25.8103   -0.8531   30.1028 C.ar    1  UNL1       -0.0003
      5 C         -27.9906   -0.8916   31.2257 C.ar    1  UNL1        0.0114
      6 C         -26.6042   -0.8676   31.2652 C.ar    1  UNL1        0.0009
      7 C         -24.3894   -0.8049   30.1638 C.2     1  UNL1       -0.0042
      8 C         -23.6350   -0.8621   29.1472 C.2     1  UNL1       -0.0214
      9 C         -22.1747   -0.6734   29.2132 C.3     1  UNL1        0.0520
     10 C         -23.6708    0.1976   30.9737 C.2     1  UNL1       -0.0045
     11 C         -22.1827    0.0982   30.3707 C.2     1  UNL1       -0.0214
     12 CL        -30.3145   -0.7756   29.8147 Cl      1  UNL1       -0.0822
@<TRIPOS>BOND
     1     4     7    1
     2     7     8    2
     3     8     9    1
     4     7    10    1
     5     9    11    1
     6    10    11    2
     7     2    12    1
     8     1     2   ar
     9     2     5   ar
    10     5     6   ar
    11     6     4   ar
    12     4     3   ar
    13     3     1   ar
