@<TRIPOS>MOLECULE
No_2360-gen_results/8p0m/2024-11-26-14-13-15/
 21 23 0 0 0
SMALL
GASTEIGER

@<TRIPOS>ATOM
      1 C         -28.0162   -0.8135   28.8779 C.ar    1  UNL1        0.0576
      2 C         -28.4690   -0.7850   29.8287 C.ar    1  UNL1        0.0114
      3 C         -28.1960    0.3478   28.0550 C.ar    1  UNL1        0.0106
      4 C         -29.0191    1.3501   28.3782 C.ar    1  UNL1        0.0008
      5 C         -29.6249    1.2683   29.6012 C.ar    1  UNL1        0.0001
      6 C         -29.3821    0.1816   30.4004 C.ar    1  UNL1        0.0009
      7 C         -27.4591    0.3787   26.7048 C.ar    1  UNL1        0.0008
      8 C         -26.1348    0.3565   26.8184 C.ar    1  UNL1        0.0009
      9 C         -25.3867    0.0254   27.9208 C.ar    1  UNL1        0.0114
     10 C         -23.9776    0.0228   27.9126 C.ar    1  UNL1        0.0122
     11 C         -23.2128   -0.3720   29.0875 C.ar    1  UNL1        0.0577
     12 C         -23.8142   -1.1951   30.0214 C.ar    1  UNL1        0.0123
     13 C         -25.1806   -1.3032   30.0026 C.ar    1  UNL1        0.0123
     14 C         -25.9396   -0.8001   29.0087 C.ar    1  UNL1        0.0577
     15 CL        -25.7789   -2.2487   28.5749 Cl      1  UNL1       -0.0822
     16 CL        -29.1298   -1.6462   28.1301 Cl      1  UNL1       -0.0822
     17 C         -25.3649    0.9015   25.6732 C.ar    1  UNL1        0.0000
     18 CL        -21.5254   -0.1243   29.0921 Cl      1  UNL1       -0.0822
     19 C         -28.1111    1.0948   25.7696 C.ar    1  UNL1        0.0000
     20 C         -27.4904    1.1169   24.5095 C.ar    1  UNL1        0.0000
     21 C         -26.0689    1.1518   24.5417 C.ar    1  UNL1        0.0000
@<TRIPOS>BOND
     1     3     7    1
     2    14    15    1
     3     1    16    1
     4    11    18    1
     5     8     9    1
     6     1     2   ar
     7     2     6   ar
     8     6     5   ar
     9     5     4   ar
    10     4     3   ar
    11     3     1   ar
    12     9    10   ar
    13    10    11   ar
    14    11    12   ar
    15    12    13   ar
    16    13    14   ar
    17    14     9   ar
    18     7     8   ar
    19     8    17   ar
    20    17    21   ar
    21    21    20   ar
    22    20    19   ar
    23    19     7   ar
