@<TRIPOS>MOLECULE
No_2361-gen_results/8p0m/2024-11-26-14-13-15/
 21 23 0 0 0
SMALL
GASTEIGER

@<TRIPOS>ATOM
      1 C         -28.0162   -0.8135   28.8779 C.ar    1  UNL1        0.0001
      2 C         -28.4690   -0.7850   29.8287 C.ar    1  UNL1        0.0000
      3 C         -27.1356    0.2359   28.5352 C.ar    1  UNL1        0.0022
      4 C         -26.8745    1.2825   29.3982 C.ar    1  UNL1        0.0001
      5 C         -28.3613    0.1987   30.9244 C.ar    1  UNL1        0.0000
      6 C         -27.5277    1.2234   30.6356 C.ar    1  UNL1        0.0000
      7 C         -26.3987    0.2949   27.2279 C.2     1  UNL1        0.0275
      8 C         -25.0392    0.2356   27.3538 C.2     1  UNL1        0.1400
      9 C         -24.2376    0.8857   27.2661 C.ar    1  UNL1        0.0275
     10 C         -24.3064    2.2478   26.6745 C.ar    1  UNL1        0.0022
     11 C         -23.1476    3.0816   26.5184 C.ar    1  UNL1        0.0001
     12 C         -21.9927    2.5403   27.0402 C.ar    1  UNL1        0.0000
     13 C         -22.8190    0.7806   27.6728 C.ar    1  UNL1        0.0022
     14 C         -21.7961    1.6155   27.6175 C.ar    1  UNL1        0.0001
     15 C         -27.1032    0.5423   26.0689 C.ar    1  UNL1        0.0022
     16 C         -28.4383    0.8824   26.0223 C.ar    1  UNL1        0.0001
     17 C         -29.0442    0.9385   24.7698 C.ar    1  UNL1        0.0000
     18 C         -26.4517    0.3786   24.8583 C.ar    1  UNL1        0.0001
     19 C         -27.0287    0.4894   23.6688 C.ar    1  UNL1        0.0000
     20 C         -28.3521    0.7849   23.6446 C.ar    1  UNL1        0.0000
     21 F         -24.7468   -1.1427   27.5900 F       1  UNL1       -0.2042
@<TRIPOS>BOND
     1     3     7    1
     2     7     8    2
     3     8     9    1
     4     7    15    1
     5     8    21    1
     6    15    16   ar
     7    16    17   ar
     8    17    20   ar
     9    20    19   ar
    10    19    18   ar
    11    18    15   ar
    12     1     2   ar
    13     2     5   ar
    14     5     6   ar
    15     6     4   ar
    16     4     3   ar
    17     3     1   ar
    18     9    10   ar
    19    10    11   ar
    20    11    12   ar
    21    12    14   ar
    22    14    13   ar
    23    13     9   ar
