@<TRIPOS>MOLECULE
No_2362-gen_results/8p0m/2024-11-26-14-13-15/
 25 26 0 0 0
SMALL
GASTEIGER

@<TRIPOS>ATOM
      1 C         -28.0162   -0.8135   28.8779 C.3     1  UNL1        0.0352
      2 C         -27.0636   -0.1189   28.6079 C.ar    1  UNL1       -0.0171
      3 C         -26.9716    0.7139   27.5060 C.ar    1  UNL1        0.0513
      4 C         -25.8205    1.4910   27.1160 C.ar    1  UNL1        0.0108
      5 C         -24.6562    1.4242   27.9180 C.ar    1  UNL1        0.0799
      6 C         -24.6847    0.5901   29.0659 C.ar    1  UNL1        0.0063
      7 C         -25.8099   -0.1265   29.3338 C.ar    1  UNL1       -0.0039
      8 C         -28.6943   -0.4734   30.1587 C.3     1  UNL1        0.0486
      9 C         -29.7865   -1.3251   30.6371 C.ar    1  UNL1       -0.0181
     10 C         -23.4524    2.1889   27.6083 C.2     1  UNL1        0.3878
     11 O         -22.5786    2.2580   28.4957 O.co2   1  UNL1       -0.2406
     12 O         -23.3956    2.8281   26.4934 O.co2   1  UNL1       -0.2406
     13 C         -30.0019   -2.2923   30.0956 C.ar    1  UNL1       -0.0039
     14 C         -31.2004   -3.0454   30.5787 C.ar    1  UNL1       -0.0003
     15 C         -31.8959   -2.6071   31.5985 C.ar    1  UNL1       -0.0000
     16 C         -31.5928   -1.4497   32.2293 C.ar    1  UNL1       -0.0003
     17 C         -30.5134   -0.7035   31.7629 C.ar    1  UNL1       -0.0039
     18 C         -28.2588    0.6921   30.9599 C.2     1  UNL1       -0.0217
     19 C         -28.1067    0.8426   26.5793 C.2     1  UNL1        0.2645
     20 O         -29.1611    1.2828   26.8776 O.2     1  UNL1       -0.2684
     21 N         -27.9380    0.3842   25.3085 N.am    1  UNL1       -0.1998
     22 C         -28.9379    0.3228   24.3139 C.3     1  UNL1        0.1388
     23 C         -27.5732    1.6587   30.7802 C.2     1  UNL1       -0.0042
     24 C         -27.3828    2.7037   31.7361 C.2     1  UNL1       -0.0003
     25 C         -28.0047    2.6086   32.9070 C.2     1  UNL1       -0.0000
@<TRIPOS>BOND
     1     1     8    1
     2     8     9    1
     3     5    10    1
     4    10    11   ar
     5    10    12   ar
     6     8    18    1
     7     3    19    1
     8    19    20    2
     9    19    21   am
    10    21    22    1
    11    18    23    2
    12    23    24    1
    13    24    25    2
    14     1     2    1
    15     2     3   ar
    16     3     4   ar
    17     4     5   ar
    18     5     6   ar
    19     6     7   ar
    20     7     2   ar
    21     9    13   ar
    22    13    14   ar
    23    14    15   ar
    24    15    16   ar
    25    16    17   ar
    26    17     9   ar
