@<TRIPOS>MOLECULE
No_2363-gen_results/8p0m/2024-11-26-14-13-15/
 11 11 0 0 0
SMALL
GASTEIGER

@<TRIPOS>ATOM
      1 F         -28.0727   -1.2542   28.5316 F       1  UNL1       -0.2042
      2 C         -27.0607   -0.6291   28.8721 C.ar    1  UNL1        0.1401
      3 C         -26.1528   -1.1557   29.4537 C.ar    1  UNL1        0.0296
      4 C         -26.9682    0.7647   28.4002 C.ar    1  UNL1        0.0335
      5 C         -25.7289    1.4524   28.5758 C.ar    1  UNL1        0.0737
      6 C         -24.8074   -0.4894   29.7771 C.ar    1  UNL1        0.0022
      7 C         -25.5457    2.8395   28.1378 C.3     1  UNL1        0.4186
      8 C         -24.6491    0.8522   29.2821 C.ar    1  UNL1        0.0040
      9 F         -26.4241    3.0599   27.2305 F       1  UNL1       -0.1659
     10 F         -24.2805    2.9936   27.5462 F       1  UNL1       -0.1659
     11 F         -25.6695    3.7137   29.1048 F       1  UNL1       -0.1659
@<TRIPOS>BOND
     1     1     2    1
     2     5     7    1
     3     7     9    1
     4     7    10    1
     5     7    11    1
     6     2     3   ar
     7     3     6   ar
     8     6     8   ar
     9     8     5   ar
    10     5     4   ar
    11     4     2   ar
