@<TRIPOS>MOLECULE
No_2364-gen_results/8p0m/2024-11-26-14-13-15/
 11 11 0 0 0
SMALL
GASTEIGER

@<TRIPOS>ATOM
      1 O         -28.1229   -1.3353   28.4874 O.2     1  UNL1       -0.2491
      2 C         -27.4806   -0.4044   28.7094 C.2     1  UNL1        0.3404
      3 N         -26.4599   -0.1104   28.0051 N.am    1  UNL1       -0.1716
      4 C         -25.4297    0.8788   28.3572 C.3     1  UNL1        0.1878
      5 C         -25.6985    1.5873   29.3706 C.3     1  UNL1        0.1603
      6 N         -27.6883    0.2536   30.0459 N.am    1  UNL1       -0.1865
      7 C         -26.7237    1.2439   30.3605 C.3     1  UNL1        0.1311
      8 CL        -24.2490    1.2539   27.2773 Cl      1  UNL1       -0.0903
      9 C         -24.7367    2.6736   29.7982 C.2     1  UNL1        0.3690
     10 O         -23.7120    3.0077   29.1061 O.co2   1  UNL1       -0.2455
     11 O         -24.9392    3.2546   30.9990 O.co2   1  UNL1       -0.2455
@<TRIPOS>BOND
     1     1     2    2
     2     2     3   am
     3     3     4    1
     4     4     5    1
     5     2     6   am
     6     5     7    1
     7     4     8    1
     8     5     9    1
     9     9    10   ar
    10     9    11   ar
    11     7     6    1
