@<TRIPOS>MOLECULE
No_2365-gen_results/8p0m/2024-11-26-14-13-15/
 23 24 0 0 0
SMALL
GASTEIGER

@<TRIPOS>ATOM
      1 C         -28.0162   -0.8135   28.8779 C.3     1  UNL1        0.1415
      2 C         -27.0636   -0.1189   28.6079 C.ar    1  UNL1       -0.0006
      3 C         -26.9287    1.1713   29.0083 C.ar    1  UNL1       -0.0025
      4 C         -25.7702    2.0341   28.6884 C.ar    1  UNL1        0.0009
      5 C         -24.7141    1.4431   27.9188 C.ar    1  UNL1        0.0131
      6 C         -24.8590    0.0783   27.5836 C.ar    1  UNL1        0.0009
      7 C         -25.9647   -0.6606   27.9164 C.ar    1  UNL1       -0.0025
      8 N         -28.6995   -0.6441   30.0766 N.am    1  UNL1       -0.2003
      9 C         -29.8035   -1.3645   30.5061 C.2     1  UNL1        0.2461
     10 C         -30.3751   -2.1790   29.7448 C.3     1  UNL1        0.1131
     11 C         -30.4579   -3.5171   30.2214 C.ar    1  UNL1       -0.0130
     12 C         -29.6573   -4.0825   30.4221 C.ar    1  UNL1       -0.0038
     13 C         -29.6808   -5.4848   30.9341 C.ar    1  UNL1       -0.0003
     14 C         -30.9140   -6.0897   30.8424 C.ar    1  UNL1       -0.0000
     15 C         -31.9964   -5.4447   30.4178 C.ar    1  UNL1       -0.0003
     16 C         -31.7989   -4.1157   30.0513 C.ar    1  UNL1       -0.0038
     17 C         -23.5305    2.1681   27.5713 C.2     1  UNL1        0.0540
     18 N         -22.4064    2.1671   27.9539 N.2     1  UNL1       -0.2747
     19 C         -23.7633    2.9297   26.2613 C.3     1  UNL1        0.0516
     20 O         -30.1658   -1.1973   31.7336 O.2     1  UNL1       -0.2730
     21 C         -21.3811    1.1909   27.8255 C.3     1  UNL1        0.1251
     22 C         -21.2020    0.2660   28.9808 C.3     1  UNL1        0.0263
     23 C         -21.1561   -1.1187   28.4553 C.3     1  UNL1        0.0021
@<TRIPOS>BOND
     1     1     2    1
     2     1     8    1
     3     8     9   am
     4     9    10    1
     5     5    17    1
     6    17    18    2
     7    17    19    1
     8     9    20    2
     9    18    21    1
    10    21    22    1
    11    22    23    1
    12    10    11    1
    13    11    12   ar
    14    12    13   ar
    15    13    14   ar
    16    14    15   ar
    17    15    16   ar
    18    16    11   ar
    19     2     3   ar
    20     3     4   ar
    21     4     5   ar
    22     5     6   ar
    23     6     7   ar
    24     7     2   ar
