@<TRIPOS>MOLECULE
No_2367-gen_results/8p0m/2024-11-26-14-13-15/
 22 23 0 0 0
SMALL
GASTEIGER

@<TRIPOS>ATOM
      1 O         -28.1229   -1.3353   28.4874 O.2     1  UNL1       -0.2730
      2 C         -27.4806   -0.4044   28.7094 C.2     1  UNL1        0.2452
      3 C         -27.1904    0.2460   29.5268 C.3     1  UNL1        0.1002
      4 N         -26.6871   -0.0001   27.4423 N.am    1  UNL1       -0.2024
      5 C         -27.6511    0.1259   30.8798 C.2     1  UNL1       -0.0173
      6 C         -25.7508    1.0047   27.4342 C.3     1  UNL1        0.1169
      7 C         -25.5541    1.7023   28.6009 C.3     1  UNL1        0.0270
      8 C         -26.1486    1.3780   29.6666 C.3     1  UNL1        0.0156
      9 C         -28.6090    0.6564   31.3753 C.2     1  UNL1       -0.0019
     10 C         -29.2287    1.7720   30.6334 C.ar    1  UNL1        0.0269
     11 C         -30.3228    2.4788   31.2552 C.ar    1  UNL1        0.0022
     12 C         -30.9113    3.5392   30.5866 C.ar    1  UNL1       -0.0001
     13 C         -30.4557    3.8736   29.2736 C.ar    1  UNL1       -0.0006
     14 C         -29.4242    3.1381   28.6879 C.ar    1  UNL1        0.0226
     15 C         -28.8549    2.1583   29.3573 C.ar    1  UNL1        0.1374
     16 F         -28.9980    0.9713   28.5569 F       1  UNL1       -0.2045
     17 C         -29.0872    3.5735   27.3214 C.3     1  UNL1        0.1162
     18 N         -27.9896    4.1030   27.1250 N.3     1  UNL1       -0.1280
     19 C         -29.9236    3.1848   26.2613 C.3     1  UNL1        0.0254
     20 C         -25.1536    1.2865   26.1519 C.2     1  UNL1       -0.0095
     21 C         -24.1577    2.2840   26.1174 C.2     1  UNL1       -0.0287
     22 C         -23.8965    3.0517   27.3066 C.3     1  UNL1        0.0304
@<TRIPOS>BOND
     1     1     2    2
     2     2     3    1
     3     2     4   am
     4     3     5    1
     5     4     6    1
     6     3     8    1
     7     7     8    1
     8     5     9    2
     9     9    10    1
    10    15    16    1
    11    14    17    1
    12    17    18    1
    13    17    19    1
    14     6    20    1
    15    20    21    2
    16    21    22    1
    17     7     6    1
    18    10    11   ar
    19    11    12   ar
    20    12    13   ar
    21    13    14   ar
    22    14    15   ar
    23    15    10   ar
