@<TRIPOS>MOLECULE
No_2368-gen_results/8p0m/2024-11-26-14-13-15/
 7 7 0 0 0
SMALL
GASTEIGER

@<TRIPOS>ATOM
      1 C         -28.0162   -0.8135   28.8779 C.ar    1  UNL1        0.0296
      2 C         -28.4690   -0.7850   29.8287 C.ar    1  UNL1        0.0023
      3 C         -28.1960    0.3478   28.0550 C.ar    1  UNL1        0.1401
      4 C         -29.0191    1.3501   28.3782 C.ar    1  UNL1        0.0296
      5 C         -29.6249    1.2683   29.6012 C.ar    1  UNL1        0.0023
      6 C         -29.3791    0.1469   30.3923 C.ar    1  UNL1        0.0001
      7 F         -27.5422    0.3400   26.8469 F       1  UNL1       -0.2042
@<TRIPOS>BOND
     1     3     7    1
     2     1     2   ar
     3     2     6   ar
     4     6     5   ar
     5     5     4   ar
     6     4     3   ar
     7     3     1   ar
