@<TRIPOS>MOLECULE
No_237-gen_results/8p0m/2024-11-26-14-13-15/
 19 20 0 0 0
SMALL
GASTEIGER

@<TRIPOS>ATOM
      1 C         -28.0162   -0.8135   28.8779 C.ar    1  UNL1        0.0489
      2 C         -28.4690   -0.7850   29.8287 C.ar    1  UNL1        0.1461
      3 C         -27.0871    0.2903   28.6377 C.ar    1  UNL1        0.0607
      4 C         -26.8317    1.2487   29.5869 C.ar    1  UNL1        0.0116
      5 C         -28.3914    0.0801   31.0065 C.ar    1  UNL1        0.0375
      6 C         -27.4940    1.1521   30.7841 C.ar    1  UNL1        0.0040
      7 CL        -26.2087    0.3944   27.1645 Cl      1  UNL1       -0.0821
      8 O         -29.3794   -1.8991   30.1667 O.3     1  UNL1       -0.4535
      9 C         -30.5866   -1.7381   30.2797 C.ar    1  UNL1        0.1452
     10 C         -31.2062   -2.9838   30.2052 C.ar    1  UNL1        0.0408
     11 C         -32.2122   -3.1330   30.5283 C.ar    1  UNL1        0.0449
     12 C         -33.1035   -1.9493   30.8583 C.ar    1  UNL1        0.1936
     13 C         -32.5292   -0.7563   30.9098 C.ar    1  UNL1        0.0413
     14 C         -31.1869   -0.6253   30.7001 C.ar    1  UNL1        0.0381
     15 O         -34.4327   -2.1727   31.1361 O.3     1  UNL1       -0.2868
     16 C         -33.2907    0.4505   31.3289 C.3     1  UNL1        0.1418
     17 N         -32.9045    1.5619   31.0365 N.pl3   1  UNL1       -0.2314
     18 C         -33.5492    2.6804   30.9244 C.2     1  UNL1        0.0805
     19 C         -32.9061    3.9222   30.5473 C.2     1  UNL1        0.0188
@<TRIPOS>BOND
     1     3     7    1
     2     2     8    1
     3     8     9    1
     4    12    15    1
     5    13    16    1
     6    16    17    1
     7    17    18    1
     8    18    19    2
     9     9    10   ar
    10    10    11   ar
    11    11    12   ar
    12    12    13   ar
    13    13    14   ar
    14    14     9   ar
    15     1     2   ar
    16     2     5   ar
    17     5     6   ar
    18     6     4   ar
    19     4     3   ar
    20     3     1   ar
