@<TRIPOS>MOLECULE
No_2370-gen_results/8p0m/2024-11-26-14-13-15/
 7 6 0 0 0
SMALL
GASTEIGER

@<TRIPOS>ATOM
      1 C         -28.0162   -0.8135   28.8779 C.2     1  UNL1       -0.0046
      2 C         -27.0636   -0.1189   28.6079 C.2     1  UNL1       -0.0214
      3 C         -26.8756    1.1325   28.9134 C.3     1  UNL1        0.0517
      4 C         -27.9014    1.8066   29.6436 C.2     1  UNL1       -0.0251
      5 C         -28.9449    1.0388   30.0360 C.2     1  UNL1       -0.0178
      6 C         -29.0273   -0.2890   29.7051 C.3     1  UNL1        0.0943
      7 S         -30.3287   -1.3033   30.1924 S.3     1  UNL1       -0.0770
@<TRIPOS>BOND
     1     1     2    2
     2     2     3    1
     3     3     4    1
     4     4     5    2
     5     5     6    1
     6     6     7    1
