@<TRIPOS>MOLECULE
No_2371-gen_results/8p0m/2024-11-26-14-13-15/
 20 21 0 0 0
SMALL
GASTEIGER

@<TRIPOS>ATOM
      1 C         -28.0162   -0.8135   28.8779 C.ar    1  UNL1       -0.0003
      2 C         -28.4690   -0.7850   29.8287 C.ar    1  UNL1       -0.0000
      3 C         -28.1816    0.4277   28.1134 C.ar    1  UNL1       -0.0040
      4 C         -27.4498    0.6435   26.8500 C.2     1  UNL1       -0.0222
      5 C         -26.4529    0.9939   26.6681 C.2     1  UNL1       -0.0043
      6 C         -25.1811    0.8624   26.8164 C.ar    1  UNL1       -0.0004
      7 C         -24.2187    1.6769   26.2404 C.ar    1  UNL1       -0.0000
      8 C         -29.4213    0.0903   30.4451 C.ar    1  UNL1       -0.0000
      9 C         -29.0456    1.3709   28.5903 C.ar    1  UNL1       -0.0003
     10 C         -29.6394    1.1968   29.7666 C.ar    1  UNL1       -0.0000
     11 C         -22.8117    1.6024   26.4182 C.ar    1  UNL1       -0.0001
     12 C         -22.3656    0.9539   27.5695 C.ar    1  UNL1        0.0039
     13 C         -23.2857    0.1705   28.3277 C.ar    1  UNL1        0.0714
     14 C         -24.6426    0.1287   28.0133 C.ar    1  UNL1        0.0038
     15 C         -28.2909   -0.0023   25.7462 C.3     1  UNL1        0.0264
     16 C         -22.7396   -0.6077   29.4557 C.3     1  UNL1        0.4186
     17 C         -29.2989    0.9771   25.1735 C.3     1  UNL1        0.0050
     18 F         -21.6628   -0.9806   29.2471 F       1  UNL1       -0.1659
     19 F         -22.7458    0.1538   30.6531 F       1  UNL1       -0.1659
     20 F         -23.6250   -1.6051   29.8879 F       1  UNL1       -0.1659
@<TRIPOS>BOND
     1     3     4    1
     2     4     5    2
     3     5     6    1
     4     4    15    1
     5    13    16    1
     6    15    17    1
     7    16    18    1
     8    16    19    1
     9    16    20    1
    10     1     2   ar
    11     2     8   ar
    12     8    10   ar
    13    10     9   ar
    14     9     3   ar
    15     3     1   ar
    16     6     7   ar
    17     7    11   ar
    18    11    12   ar
    19    12    13   ar
    20    13    14   ar
    21    14     6   ar
