@<TRIPOS>MOLECULE
No_2373-gen_results/8p0m/2024-11-26-14-13-15/
 26 28 0 0 0
SMALL
GASTEIGER

@<TRIPOS>ATOM
      1 C         -28.0162   -0.8135   28.8779 C.ar    1  UNL1        0.0000
      2 C         -28.4690   -0.7850   29.8287 C.ar    1  UNL1        0.0000
      3 C         -28.1960    0.3478   28.0550 C.ar    1  UNL1        0.0001
      4 C         -29.0191    1.3501   28.3782 C.ar    1  UNL1        0.0000
      5 C         -29.4107    0.1803   30.3782 C.ar    1  UNL1        0.0000
      6 C         -29.6059    1.2495   29.6193 C.ar    1  UNL1        0.0000
      7 C         -27.4597    0.3802   26.7091 C.ar    1  UNL1        0.0044
      8 C         -27.9298    0.5836   25.6804 C.ar    1  UNL1        0.0550
      9 C         -27.1251    0.5285   24.4261 C.ar    1  UNL1        0.0046
     10 C         -26.0345    0.1369   26.7811 C.ar    1  UNL1        0.0001
     11 C         -25.1680    0.2141   25.7256 C.ar    1  UNL1        0.0000
     12 C         -25.7623    0.3526   24.5243 C.ar    1  UNL1        0.0001
     13 C         -29.3652    0.7464   25.3554 C.2     1  UNL1        0.2647
     14 N         -30.1884    0.1503   25.9365 N.am    1  UNL1       -0.2035
     15 C         -31.3058   -0.3372   25.5057 C.3     1  UNL1        0.0967
     16 O         -29.7324    1.6210   24.5448 O.2     1  UNL1       -0.2684
     17 C         -32.1243   -1.0273   26.4804 C.3     1  UNL1        0.1203
     18 C         -31.0909   -1.2970   24.3623 C.3     1  UNL1        0.0233
     19 C         -32.2188    0.8314   25.0033 C.3     1  UNL1        0.0233
     20 C         -32.4724   -0.5101   27.6686 C.ar    1  UNL1       -0.0058
     21 C         -32.9792   -1.2201   28.7637 C.ar    1  UNL1       -0.0030
     22 C         -33.3850   -0.5928   29.9281 C.ar    1  UNL1       -0.0003
     23 C         -33.5042    0.8164   29.9718 C.ar    1  UNL1       -0.0000
     24 C         -33.0868    1.5657   28.8643 C.ar    1  UNL1       -0.0003
     25 C         -32.6037    0.9385   27.7582 C.ar    1  UNL1       -0.0030
     26 CL        -32.4124   -2.6882   26.2715 Cl      1  UNL1       -0.1084
@<TRIPOS>BOND
     1     3     7    1
     2     8    13    1
     3    13    14   am
     4    14    15    1
     5    13    16    2
     6    15    17    1
     7    15    18    1
     8    15    19    1
     9    17    20    1
    10    17    26    1
    11    20    21   ar
    12    21    22   ar
    13    22    23   ar
    14    23    24   ar
    15    24    25   ar
    16    25    20   ar
    17     1     2   ar
    18     2     5   ar
    19     5     6   ar
    20     6     4   ar
    21     4     3   ar
    22     3     1   ar
    23     7     8   ar
    24     8     9   ar
    25     9    12   ar
    26    12    11   ar
    27    11    10   ar
    28    10     7   ar
