@<TRIPOS>MOLECULE
No_2374-gen_results/8p0m/2024-11-26-14-13-15/
 10 10 0 0 0
SMALL
GASTEIGER

@<TRIPOS>ATOM
      1 C         -28.0162   -0.8135   28.8779 C.ar    1  UNL1       -0.0001
      2 C         -27.0636   -0.1189   28.6079 C.ar    1  UNL1        0.0039
      3 C         -26.9716    0.7139   27.5060 C.ar    1  UNL1        0.0714
      4 C         -28.1053    0.7744   26.6421 C.ar    1  UNL1        0.0039
      5 C         -29.2041    0.1179   27.0477 C.ar    1  UNL1       -0.0001
      6 C         -29.2127   -0.6088   28.1281 C.ar    1  UNL1       -0.0000
      7 C         -25.7106    1.4519   27.1380 C.3     1  UNL1        0.4186
      8 F         -24.7920    0.8101   27.2872 F       1  UNL1       -0.1659
      9 F         -25.5784    2.5658   27.9769 F       1  UNL1       -0.1659
     10 F         -25.7936    2.0245   25.9088 F       1  UNL1       -0.1659
@<TRIPOS>BOND
     1     3     7    1
     2     7     8    1
     3     7     9    1
     4     7    10    1
     5     1     2   ar
     6     2     3   ar
     7     3     4   ar
     8     4     5   ar
     9     5     6   ar
    10     6     1   ar
