@<TRIPOS>MOLECULE
No_2375-gen_results/8p0m/2024-11-26-14-13-15/
 35 39 0 0 0
SMALL
GASTEIGER

@<TRIPOS>ATOM
      1 C         -28.0162   -0.8135   28.8779 C.ar    1  UNL1        0.0046
      2 C         -27.0636   -0.1189   28.6079 C.ar    1  UNL1        0.0001
      3 C         -25.7647   -0.3897   29.0360 C.ar    1  UNL1        0.0000
      4 C         -25.5296   -1.5302   29.9014 C.ar    1  UNL1        0.0001
      5 C         -26.6577   -2.2915   30.2035 C.ar    1  UNL1        0.0046
      6 C         -27.8548   -1.9555   29.7630 C.ar    1  UNL1        0.0551
      7 C         -24.5441    0.4126   28.7379 C.ar    1  UNL1        0.0000
      8 C         -23.3231    0.0476   29.0499 C.ar    1  UNL1        0.0000
      9 C         -22.1997    0.8411   28.7194 C.ar    1  UNL1        0.0000
     10 C         -22.3632    1.8394   27.7172 C.ar    1  UNL1        0.0000
     11 C         -24.6043    1.5165   27.8119 C.ar    1  UNL1        0.0000
     12 C         -23.5582    2.1898   27.3588 C.ar    1  UNL1        0.0000
     13 C         -29.0212   -2.7832   30.1825 C.2     1  UNL1        0.2653
     14 N         -30.1633   -2.3284   30.1920 N.am    1  UNL1       -0.1967
     15 O         -28.8042   -3.9744   30.6053 O.2     1  UNL1       -0.2683
     16 C         -31.3670   -3.1036   30.5686 C.3     1  UNL1        0.1159
     17 C         -32.4281   -2.7581   29.9279 C.ar    1  UNL1       -0.0004
     18 C         -33.1706   -3.2830   29.3132 C.ar    1  UNL1       -0.0024
     19 C         -34.3422   -2.8153   28.4671 C.ar    1  UNL1       -0.0000
     20 C         -34.5355   -1.4428   28.4778 C.ar    1  UNL1        0.0066
     21 C         -33.6947   -0.6509   29.1593 C.ar    1  UNL1        0.0795
     22 C         -32.6198   -1.1674   29.8514 C.ar    1  UNL1        0.0042
     23 C         -33.8988    0.8328   29.1647 C.2     1  UNL1        0.3877
     24 O         -34.8409    1.3636   28.9181 O.co2   1  UNL1       -0.2406
     25 O         -32.7645    1.5660   29.5043 O.co2   1  UNL1       -0.2406
     26 C         -31.4545   -2.9472   32.0730 C.ar    1  UNL1       -0.0046
     27 C         -31.1753   -1.8776   32.7294 C.ar    1  UNL1       -0.0027
     28 C         -31.2806   -1.7470   34.1515 C.ar    1  UNL1       -0.0003
     29 C         -31.7043   -2.8517   34.8205 C.ar    1  UNL1       -0.0003
     30 C         -31.9247   -4.0575   34.1828 C.ar    1  UNL1       -0.0045
     31 C         -31.8159   -4.1365   32.8071 C.ar    1  UNL1       -0.0243
     32 C         -31.0408   -4.5751   30.1339 C.3     1  UNL1        0.0265
     33 C         -31.1367   -5.4126   31.0901 C.3     1  UNL1        0.0070
     34 C         -31.6388   -5.3839   32.2498 C.3     1  UNL1        0.0262
     35 C         -30.8545   -4.8642   28.8381 C.3     1  UNL1        0.0024
@<TRIPOS>BOND
     1     3     7    1
     2     6    13    1
     3    13    14   am
     4    13    15    2
     5    14    16    1
     6    16    17    1
     7    21    23    1
     8    23    24   ar
     9    23    25   ar
    10    16    26    1
    11    16    32    1
    12    31    34    1
    13    33    34    1
    14    32    35    1
    15    33    32    1
    16     1     2   ar
    17     2     3   ar
    18     3     4   ar
    19     4     5   ar
    20     5     6   ar
    21     6     1   ar
    22    17    18   ar
    23    18    19   ar
    24    19    20   ar
    25    20    21   ar
    26    21    22   ar
    27    22    17   ar
    28    26    27   ar
    29    27    28   ar
    30    28    29   ar
    31    29    30   ar
    32    30    31   ar
    33    31    26   ar
    34     7     8   ar
    35     8     9   ar
    36     9    10   ar
    37    10    12   ar
    38    12    11   ar
    39    11     7   ar
