@<TRIPOS>MOLECULE
No_2376-gen_results/8p0m/2024-11-26-14-13-15/
 13 13 0 0 0
SMALL
GASTEIGER

@<TRIPOS>ATOM
      1 C         -28.0162   -0.8135   28.8779 C.ar    1  UNL1        0.0799
      2 C         -27.0636   -0.1189   28.6079 C.ar    1  UNL1        0.0066
      3 C         -27.0010    0.6913   27.4910 C.ar    1  UNL1        0.0004
      4 C         -28.1373    0.7363   26.6350 C.ar    1  UNL1        0.0046
      5 C         -29.2360    0.0765   27.0690 C.ar    1  UNL1        0.0552
      6 C         -29.2177   -0.6429   28.1747 C.ar    1  UNL1        0.0111
      7 C         -28.0030   -1.6604   30.1266 C.2     1  UNL1        0.3878
      8 O         -27.1218   -2.5017   30.2445 O.co2   1  UNL1       -0.2406
      9 O         -28.9642   -1.6139   30.9865 O.co2   1  UNL1       -0.2406
     10 C         -30.4224    0.1621   26.1854 C.2     1  UNL1        0.2648
     11 N         -31.4284   -0.4435   26.4802 N.am    1  UNL1       -0.1998
     12 O         -30.4177    0.8012   25.0896 O.2     1  UNL1       -0.2684
     13 C         -32.6628   -0.5265   25.6579 C.3     1  UNL1        0.1388
@<TRIPOS>BOND
     1     1     7    1
     2     7     8   ar
     3     7     9   ar
     4     5    10    1
     5    10    11   am
     6    10    12    2
     7    11    13    1
     8     1     2   ar
     9     2     3   ar
    10     3     4   ar
    11     4     5   ar
    12     5     6   ar
    13     6     1   ar
