@<TRIPOS>MOLECULE
No_2377-gen_results/8p0m/2024-11-26-14-13-15/
 21 22 0 0 0
SMALL
GASTEIGER

@<TRIPOS>ATOM
      1 C         -28.0162   -0.8135   28.8779 C.ar    1  UNL1        0.0067
      2 C         -27.0636   -0.1189   28.6079 C.ar    1  UNL1        0.0046
      3 C         -25.7647   -0.3897   29.0360 C.ar    1  UNL1        0.0001
      4 C         -25.4887   -1.1536   29.7171 C.ar    1  UNL1        0.0002
      5 C         -27.7606   -1.9034   29.8572 C.ar    1  UNL1        0.0798
      6 C         -26.4781   -2.1057   30.2362 C.ar    1  UNL1        0.0066
      7 C         -28.7676   -2.8171   30.3438 C.2     1  UNL1        0.3878
      8 O         -29.8193   -2.6275   30.3438 O.co2   1  UNL1       -0.2406
      9 O         -28.2827   -4.0011   30.8131 O.co2   1  UNL1       -0.2406
     10 C         -27.0817    1.0934   27.5974 C.ar    1  UNL1        0.0536
     11 C         -28.1249    1.4900   27.2184 C.2     1  UNL1        0.2491
     12 C         -25.8715    1.6557   27.1275 C.ar    1  UNL1        0.0045
     13 C         -24.7056    1.2196   27.2285 C.ar    1  UNL1        0.0001
     14 C         -24.4914    0.1909   28.3208 C.ar    1  UNL1       -0.0003
     15 O         -29.1805    1.3016   27.5156 O.2     1  UNL1       -0.2699
     16 N         -28.1326    2.6973   26.4450 N.am    1  UNL1       -0.2726
     17 C         -23.1979   -0.2515   28.6972 C.2     1  UNL1       -0.0046
     18 C         -22.1004    0.7071   29.0233 C.2     1  UNL1       -0.0258
     19 C         -22.2659    2.0058   28.7728 C.3     1  UNL1        0.0307
     20 C         -29.2902    3.4796   26.1771 C.3     1  UNL1        0.1152
     21 C         -26.8817    3.1306   25.9029 C.3     1  UNL1        0.1152
@<TRIPOS>BOND
     1     5     7    1
     2     7     8   ar
     3     7     9   ar
     4    10    11    1
     5    11    15    2
     6    11    16   am
     7    14    17    1
     8    17    18    2
     9    18    19    1
    10    16    20    1
    11    16    21    1
    12     3    14   ar
    13    14    13   ar
    14    13    12   ar
    15    12    10   ar
    16    10     2   ar
    17     1     2   ar
    18     2     3   ar
    19     3     4   ar
    20     4     6   ar
    21     6     5   ar
    22     5     1   ar
