@<TRIPOS>MOLECULE
No_2378-gen_results/8p0m/2024-11-26-14-13-15/
 11 11 0 0 0
SMALL
GASTEIGER

@<TRIPOS>ATOM
      1 C         -28.0162   -0.8135   28.8779 C.ar    1  UNL1        0.0141
      2 C         -28.4690   -0.7850   29.8287 C.ar    1  UNL1        0.0803
      3 C         -27.1356    0.2359   28.5352 C.ar    1  UNL1        0.0453
      4 C         -26.8050    1.0509   29.2763 C.ar    1  UNL1        0.0639
      5 C         -28.2372    0.1503   30.9300 C.ar    1  UNL1        0.0075
      6 C         -27.3522    1.1239   30.6071 C.ar    1  UNL1        0.0121
      7 BR        -26.3150    0.1731   26.7727 Br      1  UNL1       -0.0481
      8 C         -29.4621   -1.9332   30.3570 C.2     1  UNL1        0.3878
      9 O         -29.8832   -1.7812   31.6086 O.co2   1  UNL1       -0.2406
     10 O         -29.6408   -2.8960   29.6979 O.co2   1  UNL1       -0.2406
     11 CL        -25.6812    2.4125   28.8752 Cl      1  UNL1       -0.0817
@<TRIPOS>BOND
     1     3     7    1
     2     2     8    1
     3     8     9   ar
     4     8    10   ar
     5     4    11    1
     6     1     2   ar
     7     2     5   ar
     8     5     6   ar
     9     6     4   ar
    10     4     3   ar
    11     3     1   ar
