@<TRIPOS>MOLECULE
No_2379-gen_results/8p0m/2024-11-26-14-13-15/
 12 12 0 0 0
SMALL
GASTEIGER

@<TRIPOS>ATOM
      1 C         -28.0162   -0.8135   28.8779 C.ar    1  UNL1       -0.0039
      2 C         -28.4690   -0.7850   29.8287 C.ar    1  UNL1       -0.0003
      3 C         -26.5042   -0.7777   28.8766 C.ar    1  UNL1       -0.0181
      4 C         -25.6540   -0.6597   27.7191 C.3     1  UNL1        0.0483
      5 C         -27.9180   -0.9374   31.1824 C.ar    1  UNL1       -0.0000
      6 C         -26.5423   -0.9399   31.2606 C.ar    1  UNL1       -0.0003
      7 C         -25.7832   -0.8935   30.1201 C.ar    1  UNL1       -0.0039
      8 C         -25.8989    0.3149   26.7473 C.2     1  UNL1       -0.0395
      9 C         -24.9195    0.8239   26.0056 C.2     1  UNL1       -0.0082
     10 C         -24.1528    1.7966   26.1517 C.2     1  UNL1       -0.0006
     11 C         -24.2422    2.6135   27.3578 C.2     1  UNL1       -0.0000
     12 C         -27.2548    0.8015   26.6032 C.3     1  UNL1        0.0267
@<TRIPOS>BOND
     1     3     4    1
     2     4     8    1
     3     8     9    2
     4     9    10    1
     5    10    11    2
     6     8    12    1
     7     1     2   ar
     8     2     5   ar
     9     5     6   ar
    10     6     7   ar
    11     7     3   ar
    12     3     1   ar
