@<TRIPOS>MOLECULE
No_238-gen_results/8p0m/2024-11-26-14-13-15/
 21 22 0 0 0
SMALL
GASTEIGER

@<TRIPOS>ATOM
      1 C         -28.0162   -0.8135   28.8779 C.ar    1  UNL1        0.1402
      2 C         -27.0636   -0.1190   28.6079 C.ar    1  UNL1        0.0341
      3 C         -27.0010    0.6913   27.4910 C.ar    1  UNL1        0.0039
      4 C         -28.1373    0.7363   26.6350 C.ar    1  UNL1        0.0116
      5 C         -29.2360    0.0765   27.0690 C.ar    1  UNL1        0.0607
      6 C         -29.2177   -0.6429   28.1747 C.ar    1  UNL1        0.0483
      7 CL        -30.6116    0.1653   26.0711 Cl      1  UNL1       -0.0821
      8 C         -25.7122   -0.2157   29.4104 C.ar    1  UNL1        0.0029
      9 C         -24.5659   -0.4815   28.8147 C.ar    1  UNL1        0.0001
     10 C         -23.3200   -0.4691   29.5092 C.ar    1  UNL1        0.0000
     11 C         -23.3263   -0.3536   30.8461 C.ar    1  UNL1        0.0000
     12 C         -25.6055   -0.0215   30.8070 C.ar    1  UNL1        0.0001
     13 C         -24.4589   -0.0754   31.5377 C.ar    1  UNL1        0.0000
     14 O         -28.0857   -1.6362   29.9921 O.3     1  UNL1       -0.4631
     15 C         -28.4665   -2.4947   30.3862 C.3     1  UNL1        0.3240
     16 C         -29.5671   -2.3830   31.1840 C.3     1  UNL1        0.4417
     17 C         -28.0148   -3.8544   30.0997 C.2     1  UNL1        0.2597
     18 F         -29.9293   -1.2656   31.5588 F       1  UNL1       -0.1660
     19 F         -29.3212   -3.0440   32.4218 F       1  UNL1       -0.1660
     20 F         -30.5961   -3.0721   30.5962 F       1  UNL1       -0.1660
     21 O         -28.6257   -4.7020   30.2475 O.2     1  UNL1       -0.2840
@<TRIPOS>BOND
     1     5     7    1
     2     2     8    1
     3     1    14    1
     4    14    15    1
     5    15    16    1
     6    15    17    1
     7    16    18    1
     8    16    19    1
     9    16    20    1
    10    17    21    2
    11     1     2   ar
    12     2     3   ar
    13     3     4   ar
    14     4     5   ar
    15     5     6   ar
    16     6     1   ar
    17     8     9   ar
    18     9    10   ar
    19    10    11   ar
    20    11    13   ar
    21    13    12   ar
    22    12     8   ar
