@<TRIPOS>MOLECULE
No_2380-gen_results/8p0m/2024-11-26-14-13-15/
 15 16 0 0 0
SMALL
GASTEIGER

@<TRIPOS>ATOM
      1 C         -28.0162   -0.8135   28.8779 C.ar    1  UNL1        0.0066
      2 C         -28.4690   -0.7850   29.8287 C.ar    1  UNL1        0.0798
      3 C         -27.0871    0.2903   28.6377 C.ar    1  UNL1        0.0002
      4 C         -26.9102    0.8486   27.4199 C.ar    1  UNL1        0.0000
      5 C         -29.6069   -1.6266   30.1338 C.2     1  UNL1        0.3878
      6 C         -27.6424    1.1427   26.6727 C.ar    1  UNL1        0.0000
      7 C         -27.3187    1.5649   25.2552 C.ar    1  UNL1        0.0000
      8 C         -25.9727    1.6795   24.9887 C.ar    1  UNL1        0.0000
      9 C         -24.9720    1.3270   25.8770 C.ar    1  UNL1        0.0000
     10 C         -25.3887    0.8597   27.1025 C.ar    1  UNL1        0.0000
     11 C         -28.0246    0.0444   31.0760 C.ar    1  UNL1        0.0066
     12 C         -27.1206    0.9588   30.9326 C.ar    1  UNL1        0.0002
     13 C         -26.6447    1.1719   29.6711 C.ar    1  UNL1        0.0000
     14 O         -29.3659   -2.8032   30.5602 O.co2   1  UNL1       -0.2406
     15 O         -30.7907   -1.3098   29.9387 O.co2   1  UNL1       -0.2406
@<TRIPOS>BOND
     1     3     4    1
     2     2     5    1
     3     5    14   ar
     4     5    15   ar
     5     4     6   ar
     6     6     7   ar
     7     7     8   ar
     8     8     9   ar
     9     9    10   ar
    10    10     4   ar
    11     1     2   ar
    12     2    11   ar
    13    11    12   ar
    14    12    13   ar
    15    13     3   ar
    16     3     1   ar
