@<TRIPOS>MOLECULE
No_2381-gen_results/8p0m/2024-11-26-14-13-15/
 25 26 0 0 0
SMALL
GASTEIGER

@<TRIPOS>ATOM
      1 C         -28.0162   -0.8135   28.8779 C.2     1  UNL1        0.0743
      2 C         -27.0636   -0.1189   28.6079 C.2     1  UNL1       -0.0275
      3 C         -26.9716    0.7139   27.5060 C.3     1  UNL1        0.1223
      4 C         -25.8205    1.4909   27.1160 C.3     1  UNL1        0.0240
      5 C         -24.6562    1.4242   27.9180 C.3     1  UNL1        0.0745
      6 C         -24.6847    0.5901   29.0659 C.3     1  UNL1        0.0130
      7 C         -25.8099   -0.1265   29.3338 C.3     1  UNL1        0.0232
      8 C         -28.7093   -0.4588   30.1754 C.2     1  UNL1        0.3454
      9 O         -28.6702    0.3803   30.7522 O.2     1  UNL1       -0.2445
     10 O         -29.1715   -1.6919   30.7342 O.3     1  UNL1       -0.4179
     11 C         -23.4688    2.2085   27.6043 C.2     1  UNL1        0.2301
     12 CL        -22.3058    2.2689   28.7476 Cl      1  UNL1       -0.0428
     13 O         -23.2233    2.7183   26.4820 O.2     1  UNL1       -0.2788
     14 C         -28.0697    0.8067   26.5532 C.2     1  UNL1        0.3680
     15 O         -28.9245    1.4988   26.6720 O.co2   1  UNL1       -0.2453
     16 O         -28.0440   -0.0602   25.5487 O.co2   1  UNL1       -0.2453
     17 C         -30.0108   -1.6310   31.7410 C.2     1  UNL1        0.1832
     18 C         -30.2706   -2.8151   32.2361 C.2     1  UNL1        0.0440
     19 C         -29.8047   -3.9790   31.6774 C.ar    1  UNL1        0.0421
     20 C         -30.2200   -5.1648   31.7499 C.ar    1  UNL1        0.0033
     21 C         -29.7329   -6.2345   30.8989 C.ar    1  UNL1        0.0002
     22 C         -28.8387   -5.7120   29.9641 C.ar    1  UNL1        0.0033
     23 C         -28.2896   -4.5276   29.8298 C.ar    1  UNL1        0.0420
     24 C         -28.7953   -3.5562   30.7901 C.ar    1  UNL1        0.1957
     25 O         -27.6145   -3.0610   31.6077 O.3     1  UNL1       -0.2866
@<TRIPOS>BOND
     1     1     2    2
     2     2     3    1
     3     3     4    1
     4     4     5    1
     5     5     6    1
     6     2     7    1
     7     6     7    1
     8     1     8    1
     9     8     9    2
    10     8    10    1
    11     5    11    1
    12    11    12    1
    13    11    13    2
    14     3    14    1
    15    14    15   ar
    16    14    16   ar
    17    10    17    1
    18    17    18    2
    19    18    19    1
    20    24    25    1
    21    19    20   ar
    22    20    21   ar
    23    21    22   ar
    24    22    23   ar
    25    23    24   ar
    26    24    19   ar
