@<TRIPOS>MOLECULE
No_2382-gen_results/8p0m/2024-11-26-14-13-15/
 12 12 0 0 0
SMALL
GASTEIGER

@<TRIPOS>ATOM
      1 C         -28.0162   -0.8135   28.8779 C.ar    1  UNL1        0.0420
      2 C         -27.0636   -0.1190   28.6079 C.ar    1  UNL1        0.0033
      3 C         -25.7647   -0.3897   29.0360 C.ar    1  UNL1       -0.0004
      4 C         -25.5296   -1.5302   29.9014 C.ar    1  UNL1        0.0033
      5 C         -26.6888   -2.2893   30.1810 C.ar    1  UNL1        0.0420
      6 C         -27.8727   -1.9508   29.7373 C.ar    1  UNL1        0.1957
      7 O         -28.9305   -2.7298   30.1154 O.3     1  UNL1       -0.2866
      8 C         -24.4178    0.2270   28.7824 C.2     1  UNL1       -0.0071
      9 C         -24.3425    1.2461   27.8468 C.2     1  UNL1       -0.0250
     10 C         -25.3649    1.8209   27.1274 C.3     1  UNL1        0.0279
     11 C         -22.9906    1.8484   27.6417 C.3     1  UNL1        0.1314
     12 N         -22.0152    1.5211   28.5193 N.3     1  UNL1       -0.1266
@<TRIPOS>BOND
     1     6     7    1
     2     3     8    1
     3     8     9    2
     4     9    10    1
     5     9    11    1
     6    11    12    1
     7     1     2   ar
     8     2     3   ar
     9     3     4   ar
    10     4     5   ar
    11     5     6   ar
    12     6     1   ar
