@<TRIPOS>MOLECULE
No_2383-gen_results/8p0m/2024-11-26-14-13-15/
 13 13 0 0 0
SMALL
GASTEIGER

@<TRIPOS>ATOM
      1 C         -28.0162   -0.8135   28.8779 C.3     1  UNL1        0.1596
      2 C         -27.0636   -0.1189   28.6079 C.ar    1  UNL1        0.0704
      3 N         -26.9849    0.5972   27.5218 N.ar    1  UNL1       -0.2476
      4 C         -28.6850   -0.3903   30.0601 C.2     1  UNL1        0.3708
      5 O         -29.8055   -0.7528   30.2174 O.co2   1  UNL1       -0.2452
      6 C         -26.3393    1.1913   26.9425 C.ar    1  UNL1        0.0984
      7 C         -24.8832    1.3841   27.4444 C.ar    1  UNL1        0.0188
      8 C         -24.6809    0.6532   28.6500 C.ar    1  UNL1        0.0028
      9 C         -25.7169   -0.1517   29.2299 C.ar    1  UNL1        0.0153
     10 O         -28.1411    0.4627   30.8904 O.co2   1  UNL1       -0.2452
     11 C         -23.8476    2.1825   26.8823 C.2     1  UNL1       -0.0030
     12 C         -22.5184    1.9679   27.3597 C.2     1  UNL1       -0.0257
     13 C         -22.3279    1.1898   28.5877 C.3     1  UNL1        0.0307
@<TRIPOS>BOND
     1     1     2    1
     2     1     4    1
     3     4     5   ar
     4     4    10   ar
     5     7    11    1
     6    11    12    2
     7    12    13    1
     8     2     3   ar
     9     3     6   ar
    10     6     7   ar
    11     7     8   ar
    12     8     9   ar
    13     9     2   ar
