@<TRIPOS>MOLECULE
No_2384-gen_results/8p0m/2024-11-26-14-13-15/
 35 38 0 0 0
SMALL
GASTEIGER

@<TRIPOS>ATOM
      1 C         -28.0162   -0.8135   28.8779 C.ar    1  UNL1       -0.0026
      2 C         -28.4690   -0.7850   29.8287 C.ar    1  UNL1       -0.0003
      3 C         -27.1356    0.2359   28.5352 C.ar    1  UNL1       -0.0020
      4 C         -26.8745    1.2825   29.3982 C.ar    1  UNL1       -0.0026
      5 C         -28.3613    0.1987   30.9244 C.ar    1  UNL1       -0.0000
      6 C         -27.5277    1.2234   30.6356 C.ar    1  UNL1       -0.0003
      7 C         -26.4533    0.0749   27.2390 C.3     1  UNL1        0.1250
      8 N         -25.7843    1.1543   26.7643 N.am    1  UNL1       -0.2509
      9 C         -24.8583    1.8783   27.2990 C.ar    1  UNL1        0.0544
     10 C         -24.2389    2.8980   26.6024 C.ar    1  UNL1        0.0149
     11 C         -24.1624    1.4589   28.5142 C.ar    1  UNL1        0.0149
     12 C         -22.8999    2.0360   28.7923 C.ar    1  UNL1        0.0013
     13 C         -22.3791    2.9279   27.9116 C.ar    1  UNL1        0.0001
     14 C         -22.9983    3.3779   26.8369 C.ar    1  UNL1        0.0013
     15 C         -26.3586    1.5721   25.4303 C.2     1  UNL1        0.2530
     16 C         -27.4223    2.3620   25.4185 C.ar    1  UNL1        0.0536
     17 C         -27.6676    3.3339   26.3054 C.ar    1  UNL1        0.0020
     18 C         -28.8751    4.1273   26.2981 C.ar    1  UNL1       -0.0005
     19 C         -29.7446    3.9174   25.2225 C.ar    1  UNL1       -0.0026
     20 C         -28.3473    2.2221   24.3930 C.ar    1  UNL1        0.0045
     21 C         -29.4659    3.0165   24.3034 C.ar    1  UNL1       -0.0001
     22 O         -25.9948    0.7453   24.5552 O.2     1  UNL1       -0.2696
     23 C         -30.4470    2.8178   23.2230 C.ar    1  UNL1        0.0000
     24 C         -31.7330    2.2092   23.5839 C.ar    1  UNL1        0.0005
     25 C         -32.6999    2.1276   22.6649 C.ar    1  UNL1        0.0067
     26 C         -32.3915    2.6061   21.3148 C.ar    1  UNL1        0.0346
     27 C         -31.1537    3.0627   20.9908 C.ar    1  UNL1        0.0067
     28 C         -30.2165    3.2750   21.9442 C.ar    1  UNL1        0.0005
     29 BR        -33.7286    2.4241   19.9570 Br      1  UNL1       -0.0490
     30 C         -29.1123    5.1816   27.3253 C.3     1  UNL1        0.1387
     31 N         -29.3526    4.9138   28.3216 N.pl3   1  UNL1       -0.2270
     32 C         -30.0783    5.0343   29.1233 C.2     1  UNL1        0.1409
     33 C         -30.8213    4.6939   29.7291 C.2     1  UNL1        0.2948
     34 F         -31.1287    5.2532   30.7114 F       1  UNL1       -0.1706
     35 F         -32.0545    4.5231   29.0900 F       1  UNL1       -0.1706
@<TRIPOS>BOND
     1     3     7    1
     2     7     8    1
     3     8     9    1
     4     8    15   am
     5    15    16    1
     6    15    22    2
     7    21    23    1
     8    26    29    1
     9    18    30    1
    10    30    31    1
    11    31    32    1
    12    32    33    2
    13    33    34    1
    14    33    35    1
    15    23    24   ar
    16    24    25   ar
    17    25    26   ar
    18    26    27   ar
    19    27    28   ar
    20    28    23   ar
    21     9    10   ar
    22    10    14   ar
    23    14    13   ar
    24    13    12   ar
    25    12    11   ar
    26    11     9   ar
    27     1     2   ar
    28     2     5   ar
    29     5     6   ar
    30     6     4   ar
    31     4     3   ar
    32     3     1   ar
    33    16    17   ar
    34    17    18   ar
    35    18    19   ar
    36    19    21   ar
    37    21    20   ar
    38    20    16   ar
