@<TRIPOS>MOLECULE
No_2385-gen_results/8p0m/2024-11-26-14-13-15/
 28 30 0 0 0
SMALL
GASTEIGER

@<TRIPOS>ATOM
      1 C         -28.0162   -0.8135   28.8779 C.3     1  UNL1        0.0528
      2 C         -27.0636   -0.1189   28.6079 C.ar    1  UNL1       -0.0078
      3 C         -27.0010    0.6913   27.4910 C.ar    1  UNL1        0.0643
      4 C         -25.8548    1.4825   27.0830 C.ar    1  UNL1       -0.0124
      5 C         -24.6901    1.4526   27.8807 C.ar    1  UNL1        0.0513
      6 C         -23.4878    2.1451   27.6011 C.2     1  UNL1        0.2645
      7 C         -25.8122   -0.1656   29.4299 C.ar    1  UNL1        0.0762
      8 C         -24.6457    0.5887   29.0806 C.ar    1  UNL1        0.0105
      9 C         -29.2288   -0.0950   29.4102 C.ar    1  UNL1       -0.0176
     10 N         -23.4277    3.0650   26.7254 N.am    1  UNL1       -0.2013
     11 O         -22.3402    1.8095   28.1184 O.2     1  UNL1       -0.2684
     12 C         -30.3603   -0.8355   29.7707 C.ar    1  UNL1       -0.0039
     13 C         -30.7923   -0.8063   30.9737 C.ar    1  UNL1       -0.0001
     14 C         -30.5673    0.4062   31.7939 C.ar    1  UNL1        0.0066
     15 C         -29.5396    1.2730   31.3502 C.ar    1  UNL1        0.0795
     16 C         -28.9193    1.0042   30.2874 C.ar    1  UNL1        0.0026
     17 C         -25.7301   -0.9400   30.6383 C.2     1  UNL1        0.3875
     18 C         -28.1364    0.9006   26.5751 C.3     1  UNL1        0.4180
     19 F         -28.9622    1.6996   26.9882 F       1  UNL1       -0.1659
     20 F         -28.6854   -0.3545   26.4169 F       1  UNL1       -0.1659
     21 F         -27.7666    1.2616   25.4004 F       1  UNL1       -0.1659
     22 O         -24.7749   -1.3926   31.0338 O.co2   1  UNL1       -0.2406
     23 O         -26.8637   -1.1381   31.3061 O.co2   1  UNL1       -0.2406
     24 C         -29.2404    2.4270   32.2448 C.2     1  UNL1        0.3877
     25 O         -28.5271    3.1923   32.0611 O.co2   1  UNL1       -0.2406
     26 O         -29.6717    2.2761   33.5072 O.co2   1  UNL1       -0.2406
     27 C         -24.6459    3.6090   26.1228 C.3     1  UNL1        0.1201
     28 C         -25.7977    2.8114   26.2732 C.3     1  UNL1        0.0499
@<TRIPOS>BOND
     1     1     2    1
     2     5     6    1
     3     1     9    1
     4     6    10   am
     5     6    11    2
     6     7    17    1
     7     3    18    1
     8    18    19    1
     9    18    20    1
    10    18    21    1
    11    17    22   ar
    12    17    23   ar
    13    15    24    1
    14    24    25   ar
    15    24    26   ar
    16    10    27    1
    17     4    28    1
    18    28    27    1
    19     2     3   ar
    20     3     4   ar
    21     4     5   ar
    22     5     8   ar
    23     8     7   ar
    24     7     2   ar
    25     9    12   ar
    26    12    13   ar
    27    13    14   ar
    28    14    15   ar
    29    15    16   ar
    30    16     9   ar
