@<TRIPOS>MOLECULE
No_2386-gen_results/8p0m/2024-11-26-14-13-15/
 10 10 0 0 0
SMALL
GASTEIGER

@<TRIPOS>ATOM
      1 C         -28.0162   -0.8135   28.8779 C.ar    1  UNL1        0.0021
      2 C         -27.0636   -0.1190   28.6079 C.ar    1  UNL1        0.0115
      3 C         -26.9716    0.7139   27.5060 C.ar    1  UNL1        0.0589
      4 C         -28.1053    0.7744   26.6421 C.ar    1  UNL1        0.0259
      5 C         -29.2041    0.1179   27.0477 C.ar    1  UNL1        0.0488
      6 C         -29.2127   -0.6088   28.1281 C.ar    1  UNL1        0.0146
      7 N         -30.3053    0.2258   26.1930 N.pl3   1  UNL1       -0.3040
      8 C         -30.2057    0.0159   24.9027 C.3     1  UNL1        0.1122
      9 C         -31.6277    0.3727   26.7075 C.3     1  UNL1        0.1122
     10 CL        -25.4699    1.4955   27.0446 Cl      1  UNL1       -0.0822
@<TRIPOS>BOND
     1     5     7    1
     2     7     8    1
     3     7     9    1
     4     3    10    1
     5     1     2   ar
     6     2     3   ar
     7     3     4   ar
     8     4     5   ar
     9     5     6   ar
    10     6     1   ar
