@<TRIPOS>MOLECULE
No_2387-gen_results/8p0m/2024-11-26-14-13-15/
 24 27 0 0 0
SMALL
GASTEIGER

@<TRIPOS>ATOM
      1 C         -28.0162   -0.8135   28.8779 C.ar    1  UNL1        0.0111
      2 C         -28.4690   -0.7850   29.8287 C.ar    1  UNL1       -0.0028
      3 C         -28.1960    0.3478   28.0550 C.ar    1  UNL1        0.0577
      4 C         -29.0191    1.3501   28.3782 C.ar    1  UNL1        0.0111
      5 C         -29.4107    0.1803   30.3782 C.ar    1  UNL1       -0.0143
      6 C         -29.6059    1.2495   29.6193 C.ar    1  UNL1       -0.0028
      7 CL        -27.3467    0.3759   26.5145 Cl      1  UNL1       -0.0822
      8 C         -30.0268   -0.0284   31.7609 C.3     1  UNL1        0.0669
      9 C         -29.9889    0.9520   32.5726 C.ar    1  UNL1       -0.0106
     10 C         -30.7976    0.9084   33.8069 C.ar    1  UNL1        0.0356
     11 C         -30.7803    1.9838   34.7263 C.ar    1  UNL1        0.0036
     12 C         -29.9880    3.1081   34.3846 C.ar    1  UNL1        0.0104
     13 C         -29.2121    3.1689   33.2475 C.ar    1  UNL1        0.0682
     14 C         -29.1699    2.0943   32.3594 C.ar    1  UNL1        0.0067
     15 C         -30.6345   -1.2869   31.9416 C.ar    1  UNL1       -0.0112
     16 C         -30.5315   -2.4127   31.1276 C.ar    1  UNL1       -0.0035
     17 C         -31.2124   -3.5266   31.5758 C.ar    1  UNL1       -0.0003
     18 C         -31.8848   -3.5230   32.7525 C.ar    1  UNL1        0.0001
     19 C         -31.9659   -2.4475   33.5476 C.ar    1  UNL1        0.0029
     20 C         -31.3677   -1.2994   33.2156 C.ar    1  UNL1        0.0356
     21 C         -31.3778   -0.2013   34.0745 C.2     1  UNL1        0.1950
     22 O         -32.2622   -0.1744   34.9983 O.2     1  UNL1       -0.2866
     23 C         -28.3719    4.3868   32.9478 C.1     1  UNL1        0.1004
     24 N         -27.6765    4.5136   32.0710 N.1     1  UNL1       -0.1908
@<TRIPOS>BOND
     1     3     7    1
     2     5     8    1
     3     8    15    1
     4    10    21    1
     5    20    21    1
     6    21    22    2
     7    13    23    1
     8    23    24    3
     9     9     8    1
    10     9    10   ar
    11    10    11   ar
    12    11    12   ar
    13    12    13   ar
    14    13    14   ar
    15    14     9   ar
    16    15    16   ar
    17    16    17   ar
    18    17    18   ar
    19    18    19   ar
    20    19    20   ar
    21    20    15   ar
    22     1     2   ar
    23     2     5   ar
    24     5     6   ar
    25     6     4   ar
    26     4     3   ar
    27     3     1   ar
