@<TRIPOS>MOLECULE
No_2388-gen_results/8p0m/2024-11-26-14-13-15/
 21 21 0 0 0
SMALL
GASTEIGER

@<TRIPOS>ATOM
      1 C         -28.0162   -0.8135   28.8779 C.ar    1  UNL1        0.0369
      2 C         -27.0636   -0.1189   28.6079 C.ar    1  UNL1        0.1384
      3 C         -25.7923   -0.4302   29.0761 C.ar    1  UNL1        0.0326
      4 C         -24.5456    0.3494   28.8225 C.2     1  UNL1        0.0117
      5 C         -23.2409    0.0217   29.3323 C.2     1  UNL1       -0.0018
      6 C         -27.8820   -1.8995   29.8633 C.ar    1  UNL1        0.0031
      7 C         -26.6706   -2.3272   30.3212 C.ar    1  UNL1        0.0002
      8 C         -25.5433   -1.5852   29.9316 C.ar    1  UNL1        0.0028
      9 C         -22.1918    0.8302   29.0004 C.2     1  UNL1       -0.0027
     10 C         -22.1472    1.7783   28.0287 C.2     1  UNL1        0.0012
     11 C         -24.5322    1.3987   27.8163 C.3     1  UNL1        0.1620
     12 C         -23.3620    2.0694   27.4607 C.3     1  UNL1        0.1579
     13 CL        -23.5308    3.2718   26.2287 Cl      1  UNL1       -0.0976
     14 BR        -24.1921    2.9507   27.0604 Br      1  UNL1       -0.0588
     15 O         -25.4740    0.7978   26.7722 O.3     1  UNL1       -0.3447
     16 C         -25.6052    1.9030   28.8072 C.2     1  UNL1        0.0393
     17 C         -26.7676    1.8599   28.9793 C.2     1  UNL1        0.1656
     18 F         -27.2563    1.0637   29.0503 F       1  UNL1       -0.2021
     19 O         -26.9086   -0.2320   27.1946 O.3     1  UNL1       -0.4714
     20 C         -25.3217    0.6098   25.4414 C.3     1  UNL1        0.1749
     21 C         -27.5776   -0.1924   26.1626 C.3     1  UNL1        0.2525
@<TRIPOS>BOND
     1     3     4    1
     2     4     5    2
     3     5     9    1
     4     9    10    2
     5     4    11    1
     6    10    12    1
     7    12    13    1
     8    12    14    1
     9    11    15    1
    10    11    16    1
    11    16    17    2
    12    17    18    1
    13     2    19    1
    14    15    20    1
    15    19    21    1
    16     1     2   ar
    17     2     3   ar
    18     3     8   ar
    19     8     7   ar
    20     7     6   ar
    21     6     1   ar
