@<TRIPOS>MOLECULE
No_2389-gen_results/8p0m/2024-11-26-14-13-15/
 23 25 0 0 0
SMALL
GASTEIGER

@<TRIPOS>ATOM
      1 C         -28.0162   -0.8135   28.8779 C.3     1  UNL1        0.0844
      2 C         -27.0636   -0.1190   28.6079 C.ar    1  UNL1       -0.0116
      3 C         -27.0010    0.6913   27.4910 C.ar    1  UNL1       -0.0239
      4 C         -25.8548    1.4825   27.0830 C.ar    1  UNL1       -0.0006
      5 C         -24.6901    1.4526   27.8807 C.ar    1  UNL1        0.0711
      6 C         -24.7379    0.6010   29.0416 C.ar    1  UNL1        0.0036
      7 C         -25.8234   -0.1688   29.3887 C.ar    1  UNL1       -0.0033
      8 N         -29.2150   -0.1726   29.0132 N.3     1  UNL1       -0.2436
      9 C         -30.2463   -0.7736   29.6388 C.3     1  UNL1        0.2245
     10 C         -23.5190    2.2034   27.5550 C.3     1  UNL1        0.4186
     11 F         -22.8328    2.5396   28.4944 F       1  UNL1       -0.1659
     12 F         -23.6282    3.1341   26.6343 F       1  UNL1       -0.1659
     13 F         -22.5712    1.2711   26.9459 F       1  UNL1       -0.1659
     14 C         -30.0001   -1.9227   30.3463 C.3     1  UNL1        0.0821
     15 C         -28.7414   -2.5324   30.4003 C.3     1  UNL1        0.1212
     16 C         -27.7074   -1.8527   29.8510 C.3     1  UNL1        0.0502
     17 F         -31.4083   -0.3052   29.5266 F       1  UNL1       -0.2190
     18 C         -29.4950    0.9745   28.2223 C.3     1  UNL1        0.0790
     19 C         -28.3673    1.2476   27.2787 C.3     1  UNL1        0.0381
     20 C         -28.6612    1.9462   26.0294 C.3     1  UNL1        0.0057
     21 O         -28.5601   -3.7230   31.0700 O.3     1  UNL1       -0.3534
     22 C         -29.3428   -4.2897   31.7606 C.3     1  UNL1        0.1740
     23 C         -29.1044    1.3119   25.0397 C.3     1  UNL1        0.0004
@<TRIPOS>BOND
     1     1     2    1
     2     1     8    1
     3     8     9    1
     4     5    10    1
     5    10    11    1
     6    10    12    1
     7    10    13    1
     8    14    15    1
     9     1    16    1
    10    15    16    1
    11     9    17    1
    12     8    18    1
    13     3    19    1
    14    18    19    1
    15    19    20    1
    16    15    21    1
    17    21    22    1
    18    20    23    1
    19    14     9    1
    20     2     7   ar
    21     7     6   ar
    22     6     5   ar
    23     5     4   ar
    24     4     3   ar
    25     3     2   ar
