@<TRIPOS>MOLECULE
No_239-gen_results/8p0m/2024-11-26-14-13-15/
 21 22 0 0 0
SMALL
GASTEIGER

@<TRIPOS>ATOM
      1 C         -28.0162   -0.8135   28.8779 C.ar    1  UNL1        0.0111
      2 C         -28.4690   -0.7850   29.8287 C.ar    1  UNL1        0.0799
      3 C         -27.1356    0.2359   28.5352 C.ar    1  UNL1        0.0538
      4 C         -26.8050    1.0509   29.2763 C.ar    1  UNL1        0.0045
      5 C         -28.2372    0.1503   30.9300 C.ar    1  UNL1        0.0066
      6 C         -27.3522    1.1239   30.6071 C.ar    1  UNL1        0.0004
      7 C         -26.4705    0.1962   27.1308 C.2     1  UNL1        0.2493
      8 N         -27.0542    0.6657   26.1840 N.am    1  UNL1       -0.2722
      9 O         -25.2775   -0.2992   27.0005 O.2     1  UNL1       -0.2699
     10 C         -26.5794    0.6079   24.8130 C.3     1  UNL1        0.1154
     11 C         -28.4118    1.2687   26.2194 C.3     1  UNL1        0.0983
     12 C         -28.2500    2.6232   26.0144 C.3     1  UNL1        0.0264
     13 C         -29.3336    0.6563   25.2359 C.ar    1  UNL1       -0.0043
     14 C         -29.5187   -1.8983   30.3311 C.2     1  UNL1        0.3878
     15 O         -29.3756   -2.6386   31.0632 O.co2   1  UNL1       -0.2406
     16 O         -30.7249   -1.6446   29.8607 O.co2   1  UNL1       -0.2406
     17 C         -30.1260   -0.3087   25.5376 C.ar    1  UNL1       -0.0027
     18 C         -31.0308   -0.9579   24.6986 C.ar    1  UNL1       -0.0003
     19 C         -30.9770   -0.5232   23.4030 C.ar    1  UNL1       -0.0000
     20 C         -29.3925    0.9766   23.8873 C.ar    1  UNL1       -0.0027
     21 C         -30.1823    0.4340   22.9991 C.ar    1  UNL1       -0.0003
@<TRIPOS>BOND
     1     3     7    1
     2     7     8   am
     3     7     9    2
     4     8    10    1
     5     8    11    1
     6    11    12    1
     7    11    13    1
     8     2    14    1
     9    14    15   ar
    10    14    16   ar
    11    13    17   ar
    12    17    18   ar
    13    18    19   ar
    14    19    21   ar
    15    21    20   ar
    16    20    13   ar
    17     1     2   ar
    18     2     5   ar
    19     5     6   ar
    20     6     4   ar
    21     4     3   ar
    22     3     1   ar
