@<TRIPOS>MOLECULE
No_2390-gen_results/8p0m/2024-11-26-14-13-15/
 20 21 0 0 0
SMALL
GASTEIGER

@<TRIPOS>ATOM
      1 C         -28.0162   -0.8135   28.8779 C.ar    1  UNL1        0.0800
      2 C         -27.0636   -0.1189   28.6079 C.ar    1  UNL1        0.0064
      3 C         -27.0010    0.6913   27.4910 C.ar    1  UNL1        0.0001
      4 C         -25.7770    1.0214   26.9135 C.ar    1  UNL1       -0.0038
      5 C         -24.5088    0.7364   27.5686 C.ar    1  UNL1       -0.0151
      6 C         -23.2776    1.1676   27.1017 C.3     1  UNL1        0.0871
      7 C         -29.2651   -0.2098   28.8447 C.ar    1  UNL1        0.0132
      8 C         -25.6190   -0.5572   28.9425 C.ar    1  UNL1       -0.0001
      9 C         -24.4260   -0.1402   28.6560 C.ar    1  UNL1       -0.0038
     10 C         -23.0790    2.1697   26.0760 C.3     1  UNL1        0.0130
     11 C         -22.0462    1.0539   27.9221 C.2     1  UNL1        0.2113
     12 C         -27.9281   -1.9582   29.8670 C.2     1  UNL1        0.3878
     13 C         -29.4836    0.8242   28.0822 C.ar    1  UNL1        0.0800
     14 C         -28.2659    1.3079   27.1695 C.ar    1  UNL1        0.0066
     15 O         -26.8493   -2.6706   30.0735 O.co2   1  UNL1       -0.2406
     16 O         -28.9715   -2.3032   30.5197 O.co2   1  UNL1       -0.2406
     17 C         -30.7659    1.4147   27.6674 C.2     1  UNL1        0.3878
     18 O         -31.0916    1.8656   26.7802 O.co2   1  UNL1       -0.2406
     19 O         -31.6110    1.3080   28.7291 O.co2   1  UNL1       -0.2406
     20 O         -21.9659    0.3408   28.8511 O.2     1  UNL1       -0.2880
@<TRIPOS>BOND
     1     5     6    1
     2     6    10    1
     3     6    11    1
     4     1    12    1
     5    12    15   ar
     6    12    16   ar
     7    13    17    1
     8    17    18   ar
     9    17    19   ar
    10    11    20    2
    11     1     2   ar
    12     3    14   ar
    13    14    13   ar
    14    13     7   ar
    15     7     1   ar
    16     2     3   ar
    17     3     4   ar
    18     4     5   ar
    19     5     9   ar
    20     9     8   ar
    21     8     2   ar
