@<TRIPOS>MOLECULE
No_2391-gen_results/8p0m/2024-11-26-14-13-15/
 20 21 0 0 0
SMALL
GASTEIGER

@<TRIPOS>ATOM
      1 C         -28.0162   -0.8135   28.8779 C.ar    1  UNL1        0.0296
      2 C         -28.4690   -0.7850   29.8287 C.ar    1  UNL1        0.0307
      3 C         -26.5455   -0.8762   28.8500 C.ar    1  UNL1        0.1399
      4 C         -25.8041   -1.0324   30.0571 C.ar    1  UNL1        0.0275
      5 C         -26.5373   -1.0386   31.2171 C.ar    1  UNL1        0.0020
      6 C         -27.8843   -0.9532   31.1862 C.ar    1  UNL1        0.0001
      7 C         -24.3655   -1.1134   30.0483 C.ar    1  UNL1        0.0030
      8 C         -23.7447   -1.3690   30.8125 C.ar    1  UNL1        0.0001
      9 C         -22.5702   -0.8171   31.2268 C.ar    1  UNL1        0.0009
     10 C         -21.7941   -0.1957   30.2067 C.ar    1  UNL1        0.0114
     11 C         -22.4671    0.0452   28.9825 C.ar    1  UNL1        0.0577
     12 C         -23.8655   -0.3262   28.8704 C.ar    1  UNL1        0.0115
     13 F         -25.8610   -0.8042   27.7376 F       1  UNL1       -0.2042
     14 CL        -21.6838    0.9374   27.7960 Cl      1  UNL1       -0.0822
     15 C         -30.0734   -0.7275   29.9150 C.3     1  UNL1        0.2672
     16 O         -30.7345   -1.5831   30.0679 O.3     1  UNL1       -0.1940
     17 N         -30.5387    0.5484   29.7011 N.pl3   1  UNL1       -0.2034
     18 C         -29.8089    1.7630   29.5186 C.2     1  UNL1        0.0785
     19 C         -29.6669    2.4722   28.6129 C.2     1  UNL1       -0.0083
     20 C         -28.7375    3.5683   28.5310 C.3     1  UNL1        0.0321
@<TRIPOS>BOND
     1     4     7    1
     2     3    13    1
     3    11    14    1
     4     2    15    1
     5    15    16    1
     6    15    17    1
     7    17    18    1
     8    18    19    2
     9    19    20    1
    10     1     2   ar
    11     2     6   ar
    12     6     5   ar
    13     5     4   ar
    14     4     3   ar
    15     3     1   ar
    16     7     8   ar
    17     8     9   ar
    18     9    10   ar
    19    10    11   ar
    20    11    12   ar
    21    12     7   ar
