@<TRIPOS>MOLECULE
No_2392-gen_results/8p0m/2024-11-26-14-13-15/
 30 32 0 0 0
SMALL
GASTEIGER

@<TRIPOS>ATOM
      1 C         -28.0162   -0.8135   28.8779 C.ar    1  UNL1       -0.0000
      2 C         -28.4690   -0.7850   29.8287 C.ar    1  UNL1       -0.0000
      3 C         -28.1816    0.4277   28.1134 C.ar    1  UNL1       -0.0000
      4 C         -27.4498    0.6435   26.8500 C.2     1  UNL1       -0.0003
      5 C         -26.4529    0.9939   26.6681 C.2     1  UNL1       -0.0039
      6 C         -25.1812    0.8624   26.8165 C.2     1  UNL1       -0.0178
      7 C         -24.2188    1.6769   26.2404 C.2     1  UNL1       -0.0039
      8 C         -29.4213    0.0903   30.4452 C.ar    1  UNL1        0.0000
      9 C         -29.0456    1.3709   28.5904 C.ar    1  UNL1       -0.0000
     10 C         -29.6394    1.1968   29.7666 C.ar    1  UNL1       -0.0000
     11 C         -23.7121    2.6445   25.9496 C.2     1  UNL1       -0.0003
     12 C         -28.4932    0.6762   25.8285 C.ar    1  UNL1        0.0002
     13 C         -29.5876    0.2268   25.6785 C.ar    1  UNL1        0.0066
     14 C         -27.9785    1.2597   24.5216 C.ar    1  UNL1        0.0000
     15 C         -30.3754    0.1373   24.5557 C.ar    1  UNL1        0.0798
     16 C         -28.6931    1.3098   23.3959 C.ar    1  UNL1        0.0002
     17 C         -31.7225   -0.4607   24.5100 C.2     1  UNL1        0.3878
     18 C         -29.9022    0.7282   23.4113 C.ar    1  UNL1        0.0066
     19 O         -32.5283   -0.1311   23.8827 O.co2   1  UNL1       -0.2406
     20 O         -31.8694   -1.5225   25.3650 O.co2   1  UNL1       -0.2406
     21 C         -24.5502   -0.3076   27.4820 C.3     1  UNL1        0.0526
     22 C         -23.9758   -0.3096   28.7176 C.ar    1  UNL1       -0.0178
     23 C         -23.6230   -1.5418   29.3423 C.ar    1  UNL1       -0.0039
     24 C         -22.8268   -1.5577   30.5128 C.ar    1  UNL1       -0.0003
     25 C         -23.3668    0.8863   29.3396 C.ar    1  UNL1       -0.0039
     26 C         -22.7358    0.7891   30.5463 C.ar    1  UNL1       -0.0003
     27 C         -22.4738   -0.4125   31.1657 C.ar    1  UNL1       -0.0000
     28 C         -23.9595    3.8605   26.7680 C.2     1  UNL1       -0.0000
     29 C         -25.1743    4.5041   26.9318 C.2     1  UNL1       -0.0000
     30 C         -25.2915    5.6460   27.7021 C.2     1  UNL1       -0.0000
@<TRIPOS>BOND
     1     3     4    1
     2     4     5    2
     3     5     6    1
     4     6     7    2
     5     7    11    1
     6     4    12    1
     7    15    17    1
     8    17    19   ar
     9    17    20   ar
    10     6    21    1
    11    21    22    1
    12    11    28    2
    13    28    29    1
    14    29    30    2
    15     1     2   ar
    16     2     8   ar
    17     8    10   ar
    18    10     9   ar
    19     9     3   ar
    20     3     1   ar
    21    12    13   ar
    22    13    15   ar
    23    15    18   ar
    24    18    16   ar
    25    16    14   ar
    26    14    12   ar
    27    22    23   ar
    28    23    24   ar
    29    24    27   ar
    30    27    26   ar
    31    26    25   ar
    32    25    22   ar
