@<TRIPOS>MOLECULE
No_2394-gen_results/8p0m/2024-11-26-14-13-15/
 6 5 0 0 0
SMALL
GASTEIGER

@<TRIPOS>ATOM
      1 O         -28.1229   -1.3353   28.4874 O.2     1  UNL1       -0.2541
      2 C         -27.4806   -0.4044   28.7094 C.2     1  UNL1        0.3333
      3 C         -27.1904    0.2460   29.5268 C.2     1  UNL1        0.0686
      4 F         -27.0111    0.1131   27.3653 F       1  UNL1       -0.1586
      5 C         -26.1628    1.2889   29.6833 C.2     1  UNL1       -0.0201
      6 C         -25.7690    1.7397   28.3142 C.3     1  UNL1        0.0309
@<TRIPOS>BOND
     1     1     2    2
     2     2     3    1
     3     2     4    1
     4     3     5    2
     5     5     6    1
