@<TRIPOS>MOLECULE
No_2395-gen_results/8p0m/2024-11-26-14-13-15/
 5 4 0 0 0
SMALL
GASTEIGER

@<TRIPOS>ATOM
      1 F         -28.0727   -1.2542   28.5316 F       1  UNL1       -0.1403
      2 C         -28.2662   -0.4214   29.1931 C.3     1  UNL1        0.5613
      3 F         -29.4400   -0.1817   29.3649 F       1  UNL1       -0.1403
      4 F         -27.6959   -0.7085   30.4324 F       1  UNL1       -0.1403
      5 F         -27.5996    0.6243   28.7040 F       1  UNL1       -0.1403
@<TRIPOS>BOND
     1     1     2    1
     2     2     3    1
     3     2     4    1
     4     2     5    1
