@<TRIPOS>MOLECULE
No_2396-gen_results/8p0m/2024-11-26-14-13-15/
 18 18 0 0 0
SMALL
GASTEIGER

@<TRIPOS>ATOM
      1 C         -28.0162   -0.8135   28.8779 C.ar    1  UNL1        0.0104
      2 C         -28.4690   -0.7850   29.8287 C.ar    1  UNL1        0.0797
      3 C         -27.1356    0.2359   28.5352 C.ar    1  UNL1        0.0716
      4 C         -26.8745    1.2825   29.3982 C.ar    1  UNL1        0.0039
      5 C         -28.3613    0.1987   30.9244 C.ar    1  UNL1        0.0066
      6 C         -27.5277    1.2234   30.6356 C.ar    1  UNL1        0.0002
      7 C         -26.3879    0.2914   27.2334 C.3     1  UNL1        0.4186
      8 F         -25.7787   -0.5228   27.0340 F       1  UNL1       -0.1659
      9 F         -25.6034    1.4597   27.1041 F       1  UNL1       -0.1659
     10 F         -27.2668    0.5439   26.1285 F       1  UNL1       -0.1659
     11 C         -29.3952   -2.0218   30.3220 C.2     1  UNL1        0.3877
     12 O         -29.7666   -2.0142   31.5134 O.co2   1  UNL1       -0.2406
     13 O         -29.3032   -3.0973   29.7918 O.co2   1  UNL1       -0.2406
     14 C         -27.2867    2.3418   31.6018 C.2     1  UNL1        0.0016
     15 C         -27.1526    3.5358   31.3856 C.2     1  UNL1        0.0202
     16 C         -27.2923    4.0758   30.0262 C.2     1  UNL1        0.0932
     17 N         -27.9545    3.9891   29.2673 N.2     1  UNL1       -0.2668
     18 C         -27.8455    4.5920   28.0139 C.3     1  UNL1        0.1517
@<TRIPOS>BOND
     1     3     7    1
     2     7     8    1
     3     7     9    1
     4     7    10    1
     5     2    11    1
     6    11    12   ar
     7    11    13   ar
     8     6    14    1
     9    14    15    2
    10    15    16    1
    11    16    17    2
    12    17    18    1
    13     1     2   ar
    14     2     5   ar
    15     5     6   ar
    16     6     4   ar
    17     4     3   ar
    18     3     1   ar
