@<TRIPOS>MOLECULE
No_2397-gen_results/8p0m/2024-11-26-14-13-15/
 19 21 0 0 0
SMALL
GASTEIGER

@<TRIPOS>ATOM
      1 C         -28.0162   -0.8135   28.8779 C.ar    1  UNL1       -0.0040
      2 C         -28.4690   -0.7850   29.8287 C.ar    1  UNL1       -0.0003
      3 C         -28.1816    0.4277   28.1134 C.ar    1  UNL1       -0.0190
      4 C         -28.9841    1.4155   28.5154 C.ar    1  UNL1       -0.0040
      5 C         -29.3802    0.1384   30.4612 C.ar    1  UNL1       -0.0000
      6 C         -29.5415    1.2736   29.7242 C.ar    1  UNL1       -0.0003
      7 C         -27.5429    0.6374   26.7442 C.3     1  UNL1        0.0378
      8 C         -26.1537    0.5302   26.7496 C.ar    1  UNL1       -0.0168
      9 C         -25.3991    0.9524   25.6853 C.ar    1  UNL1       -0.0038
     10 C         -24.0061    0.9206   25.7352 C.ar    1  UNL1        0.0020
     11 C         -23.3256    0.7672   26.9580 C.ar    1  UNL1        0.0296
     12 C         -24.1154    0.4727   28.0970 C.ar    1  UNL1        0.1398
     13 C         -25.4697    0.3873   28.0192 C.ar    1  UNL1        0.0257
     14 C         -28.1550   -0.2512   25.6767 C.3     1  UNL1        0.0081
     15 C         -27.8994    2.1124   26.3499 C.3     1  UNL1        0.0081
     16 C         -28.8203    0.3857   24.5891 C.3     1  UNL1        0.0007
     17 F         -23.4379    0.3193   29.2476 F       1  UNL1       -0.2042
     18 C         -28.7267    2.6411   26.0744 C.3     1  UNL1        0.0007
     19 C         -29.0765    1.5396   24.6415 C.3     1  UNL1        0.0000
@<TRIPOS>BOND
     1     3     7    1
     2     7     8    1
     3     7    14    1
     4     7    15    1
     5    14    16    1
     6    12    17    1
     7    16    19    1
     8    18    19    1
     9    18    15    1
    10     8     9   ar
    11     9    10   ar
    12    10    11   ar
    13    11    12   ar
    14    12    13   ar
    15    13     8   ar
    16     1     2   ar
    17     2     5   ar
    18     5     6   ar
    19     6     4   ar
    20     4     3   ar
    21     3     1   ar
