@<TRIPOS>MOLECULE
No_2399-gen_results/8p0m/2024-11-26-14-13-15/
 20 23 0 0 0
SMALL
GASTEIGER

@<TRIPOS>ATOM
      1 C         -28.0162   -0.8135   28.8779 C.ar    1  UNL1        0.0564
      2 C         -27.0636   -0.1190   28.6079 C.ar    1  UNL1        0.0284
      3 C         -25.7923   -0.4302   29.0761 C.ar    1  UNL1       -0.0015
      4 C         -25.5756   -1.5654   29.9363 C.ar    1  UNL1        0.0003
      5 C         -26.7354   -2.3004   30.2173 C.ar    1  UNL1        0.0079
      6 C         -27.9184   -1.9537   29.7629 C.ar    1  UNL1        0.0479
      7 BR        -29.4034   -2.9791   30.2597 Br      1  UNL1       -0.0477
      8 C         -27.1046    1.1105   27.7589 C.ar    1  UNL1        0.0683
      9 N         -27.8922    1.6477   27.4115 N.pl3   1  UNL1       -0.2192
     10 C         -25.7061    1.5179   27.1058 C.ar    1  UNL1        0.0159
     11 C         -24.5289    1.0906   27.3479 C.ar    1  UNL1       -0.0029
     12 C         -24.4752   -0.0303   28.4000 C.ar    1  UNL1       -0.0221
     13 C         -23.1147   -0.4143   28.8305 C.3     1  UNL1        0.0264
     14 C         -22.4694    0.4556   29.8082 C.3     1  UNL1        0.0050
     15 C         -29.0322    1.7179   28.1747 C.3     1  UNL1        0.1671
     16 C         -29.9183    2.4005   28.1893 C.3     1  UNL1        0.0424
     17 C         -31.0841    2.4451   29.0389 C.3     1  UNL1        0.0053
     18 C         -31.2152    1.3962   29.9207 C.3     1  UNL1        0.0216
     19 C         -30.2392    0.4763   30.0210 C.3     1  UNL1        0.0923
     20 N         -29.1434    0.6145   29.1685 N.pl3   1  UNL1       -0.2918
@<TRIPOS>BOND
     1     6     7    1
     2    12    13    1
     3    13    14    1
     4     9    15    1
     5    16    17    1
     6    18    19    1
     7     1    20    1
     8    15    20    1
     9    19    20    1
    10     8     9    1
    11    15    16    1
    12    17    18    1
    13     1     2   ar
    14     3     4   ar
    15     4     5   ar
    16     5     6   ar
    17     6     1   ar
    18     2     3   ar
    19     3    12   ar
    20    12    11   ar
    21    11    10   ar
    22    10     8   ar
    23     8     2   ar
