@<TRIPOS>MOLECULE
No_24-gen_results/8p0m/2024-11-26-14-13-15/
 22 23 0 0 0
SMALL
GASTEIGER

@<TRIPOS>ATOM
      1 C         -28.0162   -0.8135   28.8779 C.3     1  UNL1        0.0557
      2 C         -27.0636   -0.1189   28.6079 C.ar    1  UNL1       -0.0198
      3 C         -25.7647   -0.3897   29.0360 C.ar    1  UNL1       -0.0042
      4 C         -24.5516    0.4058   28.7646 C.ar    1  UNL1       -0.0006
      5 C         -24.6957    1.4480   27.7988 C.ar    1  UNL1       -0.0040
      6 C         -26.0010    1.6784   27.2965 C.ar    1  UNL1       -0.0006
      7 C         -27.0736    0.9682   27.6500 C.ar    1  UNL1       -0.0042
      8 C         -28.6424   -0.4818   30.1960 C.3     1  UNL1        0.1272
      9 N         -29.7218   -1.2610   30.6400 N.3     1  UNL1       -0.2634
     10 C         -23.5102    2.1795   27.4520 C.2     1  UNL1       -0.0219
     11 C         -22.4069    1.5773   27.1284 C.2     1  UNL1       -0.0046
     12 C         -23.9694    3.1016   26.2659 C.3     1  UNL1        0.0310
     13 C         -29.6084   -2.2142   31.4425 C.3     1  UNL1        0.0729
     14 C         -31.0157   -0.9692   30.1466 C.3     1  UNL1        0.0729
     15 C         -31.9644   -1.8879   30.1867 C.3     1  UNL1        0.0174
     16 C         -30.5810   -3.2916   31.5815 C.3     1  UNL1        0.0174
     17 C         -31.8316   -2.9880   31.0516 C.3     1  UNL1        0.0029
     18 C         -27.4061   -0.5970   31.0775 C.1     1  UNL1       -0.0706
     19 C         -27.3167    0.3670   32.1640 C.1     1  UNL1       -0.0628
     20 C         -26.2744    0.2651   33.0227 C.2     1  UNL1        0.0447
     21 C         -25.1737   -0.5869   32.7749 C.2     1  UNL1       -0.0170
     22 C         -25.2655   -1.4616   31.7386 C.3     1  UNL1        0.0314
@<TRIPOS>BOND
     1     1     8    1
     2     8     9    1
     3     5    10    1
     4    10    11    2
     5    10    12    1
     6     9    13    1
     7     9    14    1
     8    15    17    1
     9    16    17    1
    10     8    18    1
    11    18    19    3
    12    19    20    1
    13    20    21    2
    14    21    22    1
    15     1     2    1
    16    13    16    1
    17    15    14    1
    18     2     3   ar
    19     3     4   ar
    20     4     5   ar
    21     5     6   ar
    22     6     7   ar
    23     7     2   ar
