@<TRIPOS>MOLECULE
No_2400-gen_results/8p0m/2024-11-26-14-13-15/
 10 10 0 0 0
SMALL
GASTEIGER

@<TRIPOS>ATOM
      1 C         -28.0162   -0.8135   28.8779 C.ar    1  UNL1        0.0191
      2 C         -27.0636   -0.1190   28.6079 C.ar    1  UNL1        0.0814
      3 C         -25.7923   -0.4302   29.0761 C.ar    1  UNL1        0.0191
      4 C         -25.5756   -1.5654   29.9363 C.ar    1  UNL1        0.0015
      5 C         -26.7354   -2.3004   30.2173 C.ar    1  UNL1        0.0001
      6 C         -27.9184   -1.9537   29.7629 C.ar    1  UNL1        0.0015
      7 N         -27.3307    1.0101   27.8524 N.2     1  UNL1       -0.2438
      8 C         -26.3102    1.7710   27.4869 C.2     1  UNL1        0.0988
      9 C         -24.9638    1.5117   27.9591 C.2     1  UNL1        0.0206
     10 C         -24.6819    0.3950   28.7401 C.2     1  UNL1        0.0016
@<TRIPOS>BOND
     1     2     7    1
     2     7     8    2
     3     8     9    1
     4     9    10    2
     5     1     2   ar
     6     2     3   ar
     7     3     4   ar
     8     4     5   ar
     9     5     6   ar
    10     6     1   ar
