@<TRIPOS>MOLECULE
No_2401-gen_results/8p0m/2024-11-26-14-13-15/
 15 16 0 0 0
SMALL
GASTEIGER

@<TRIPOS>ATOM
      1 C         -28.0162   -0.8135   28.8779 C.3     1  UNL1        0.0645
      2 C         -28.4690   -0.7850   29.8287 C.3     1  UNL1        0.0078
      3 C         -26.5455   -0.8762   28.8500 C.2     1  UNL1        0.1503
      4 C         -25.8974   -0.8267   29.8894 C.3     1  UNL1        0.0600
      5 C         -24.3582   -0.8838   29.9598 C.3     1  UNL1        0.0347
      6 C         -27.9448   -0.8532   31.1969 C.3     1  UNL1        0.0009
      7 C         -26.5115   -0.9023   31.2208 C.3     1  UNL1        0.0074
      8 C         -23.7534    0.4495   30.1168 C.3     1  UNL1        0.0029
      9 C         -22.5362    0.6649   29.4697 C.3     1  UNL1        0.0002
     10 C         -21.7883   -0.4768   29.0267 C.3     1  UNL1        0.0026
     11 C         -23.7032   -1.5070   28.7600 C.3     1  UNL1        0.1523
     12 C         -22.3297   -1.5443   28.6884 C.3     1  UNL1        0.0329
     13 C         -23.8503   -1.7100   31.2056 C.3     1  UNL1        0.0029
     14 O         -25.9116   -0.8595   27.6399 O.2     1  UNL1       -0.2961
     15 O         -24.4552   -2.2258   28.0511 O.3     1  UNL1       -0.2231
@<TRIPOS>BOND
     1     1     3    1
     2     3     4    1
     3     4     5    1
     4     2     6    1
     5     4     7    1
     6     5     8    1
     7     9    10    1
     8     5    11    1
     9    10    12    1
    10     5    13    1
    11     3    14    2
    12    11    15    1
    13     8     9    1
    14    12    11    1
    15     1     2    1
    16     6     7    1
