@<TRIPOS>MOLECULE
No_2402-gen_results/8p0m/2024-11-26-14-13-15/
 16 16 0 0 0
SMALL
GASTEIGER

@<TRIPOS>ATOM
      1 CL        -28.1493   -0.8198   28.9079 Cl      1  UNL1       -0.0755
      2 C         -28.5324   -0.0471   29.7727 C.3     1  UNL1        0.2521
      3 F         -29.6682   -0.0995   30.1894 F       1  UNL1       -0.2182
      4 C         -27.6716    0.9796   30.3307 C.3     1  UNL1        0.1286
      5 C         -26.5008    1.1766   29.7530 C.1     1  UNL1       -0.0822
      6 C         -25.4964    1.0168   29.3938 C.1     1  UNL1       -0.0643
      7 C         -24.4078    0.8852   28.6716 C.ar    1  UNL1        0.0455
      8 C         -23.8340    1.6320   27.6572 C.ar    1  UNL1        0.0790
      9 C         -23.4666   -0.2033   29.1228 C.ar    1  UNL1        0.0082
     10 C         -24.6463    2.1041   26.6103 C.3     1  UNL1        0.4191
     11 C         -22.4353    2.0169   27.5952 C.ar    1  UNL1        0.0045
     12 C         -21.4647    1.1147   28.1622 C.ar    1  UNL1       -0.0000
     13 C         -21.9771    0.1158   29.0855 C.ar    1  UNL1        0.0006
     14 F         -24.5898    3.3389   26.3722 F       1  UNL1       -0.1658
     15 F         -25.9758    1.9806   27.0464 F       1  UNL1       -0.1658
     16 F         -24.4821    1.3864   25.5333 F       1  UNL1       -0.1658
@<TRIPOS>BOND
     1     1     2    1
     2     2     3    1
     3     2     4    1
     4     4     5    1
     5     5     6    3
     6     6     7    1
     7     8    10    1
     8    10    14    1
     9    10    15    1
    10    10    16    1
    11     7     8   ar
    12     8    11   ar
    13    11    12   ar
    14    12    13   ar
    15    13     9   ar
    16     9     7   ar
