@<TRIPOS>MOLECULE
No_2404-gen_results/8p0m/2024-11-26-14-13-15/
 23 25 0 0 0
SMALL
GASTEIGER

@<TRIPOS>ATOM
      1 C         -28.0162   -0.8135   28.8779 C.ar    1  UNL1        0.0397
      2 C         -27.0636   -0.1189   28.6079 C.ar    1  UNL1        0.0305
      3 C         -25.7923   -0.4302   29.0761 C.ar    1  UNL1        0.1403
      4 C         -25.5756   -1.5654   29.9363 C.ar    1  UNL1        0.0328
      5 C         -26.7354   -2.3004   30.2173 C.ar    1  UNL1        0.0398
      6 C         -27.9184   -1.9537   29.7629 C.ar    1  UNL1        0.1454
      7 O         -29.0001   -2.7012   30.1151 O.3     1  UNL1       -0.4535
      8 F         -24.6795    0.2962   28.8383 F       1  UNL1       -0.2042
      9 C         -30.0953   -2.0921   30.6113 C.ar    1  UNL1        0.1452
     10 C         -30.6488   -2.8666   31.6217 C.ar    1  UNL1        0.0375
     11 C         -31.8274   -2.3181   32.2446 C.ar    1  UNL1        0.0030
     12 C         -32.3207   -1.0968   31.7469 C.ar    1  UNL1        0.0013
     13 C         -31.6832   -0.4632   30.7465 C.ar    1  UNL1        0.0466
     14 C         -30.5519   -0.9323   30.1887 C.ar    1  UNL1        0.0386
     15 C         -27.1316    1.0967   27.6967 C.ar    1  UNL1        0.0023
     16 C         -27.9630    0.9725   26.5863 C.ar    1  UNL1        0.0001
     17 C         -28.0328    2.0616   25.7202 C.ar    1  UNL1        0.0000
     18 C         -27.2464    3.2114   25.9053 C.ar    1  UNL1        0.0000
     19 C         -26.4235    3.2994   27.0343 C.ar    1  UNL1        0.0000
     20 C         -26.3165    2.2541   27.8719 C.ar    1  UNL1        0.0001
     21 C         -32.2302    0.8866   30.2787 C.3     1  UNL1        0.3411
     22 F         -32.8909    1.5391   30.8163 F       1  UNL1       -0.1933
     23 F         -31.9634    1.1170   29.0028 F       1  UNL1       -0.1933
@<TRIPOS>BOND
     1     6     7    1
     2     3     8    1
     3     7     9    1
     4     2    15    1
     5    13    21    1
     6    21    22    1
     7    21    23    1
     8    15    16   ar
     9    16    17   ar
    10    17    18   ar
    11    18    19   ar
    12    19    20   ar
    13    20    15   ar
    14     1     2   ar
    15     2     3   ar
    16     3     4   ar
    17     4     5   ar
    18     5     6   ar
    19     6     1   ar
    20     9    10   ar
    21    10    11   ar
    22    11    12   ar
    23    12    13   ar
    24    13    14   ar
    25    14     9   ar
