@<TRIPOS>MOLECULE
No_2405-gen_results/8p0m/2024-11-26-14-13-15/
 35 37 0 0 0
SMALL
GASTEIGER

@<TRIPOS>ATOM
      1 C         -28.0162   -0.8135   28.8779 C.ar    1  UNL1        0.0114
      2 C         -27.0636   -0.1190   28.6079 C.ar    1  UNL1        0.0577
      3 C         -26.9287    1.1713   29.0083 C.ar    1  UNL1        0.0114
      4 C         -27.9560    1.7411   29.7840 C.ar    1  UNL1        0.0009
      5 C         -29.0569   -0.3271   29.7466 C.ar    1  UNL1        0.0009
      6 C         -28.9828    0.9722   30.1516 C.ar    1  UNL1        0.0001
      7 CL        -25.8196   -0.9203   27.7393 Cl      1  UNL1       -0.0822
      8 C         -30.0838    1.5342   30.9949 C.ar    1  UNL1        0.0004
      9 C         -31.1015    1.1641   31.1128 C.ar    1  UNL1        0.0066
     10 C         -32.1725    1.7436   31.9717 C.ar    1  UNL1        0.0799
     11 C         -31.8183    2.9283   32.6528 C.ar    1  UNL1        0.0111
     12 C         -30.5618    3.4155   32.5100 C.ar    1  UNL1        0.0553
     13 C         -29.6124    2.7915   31.7247 C.ar    1  UNL1        0.0046
     14 C         -30.1315    4.6457   33.2290 C.2     1  UNL1        0.2653
     15 N         -30.4764    5.2578   34.0549 N.am    1  UNL1       -0.1967
     16 O         -28.9055    5.1473   32.7026 O.2     1  UNL1       -0.2683
     17 C         -30.0473    6.4559   34.7201 C.3     1  UNL1        0.1161
     18 C         -30.3819    7.6757   34.1951 C.ar    1  UNL1       -0.0004
     19 C         -29.7168    8.6177   34.4508 C.ar    1  UNL1       -0.0024
     20 C         -29.9756   10.0026   33.8426 C.ar    1  UNL1       -0.0000
     21 C         -31.0681   10.0589   32.9605 C.ar    1  UNL1        0.0066
     22 C         -31.7782    8.9002   32.6971 C.ar    1  UNL1        0.0795
     23 C         -31.4635    7.6771   33.2598 C.ar    1  UNL1        0.0042
     24 C         -32.9157    8.9272   31.7342 C.2     1  UNL1        0.3877
     25 O         -33.4655    9.8161   31.2372 O.co2   1  UNL1       -0.2406
     26 O         -33.1696    7.6756   31.1552 O.co2   1  UNL1       -0.2406
     27 C         -33.4935    1.2272   32.0922 C.2     1  UNL1        0.3878
     28 O         -33.9658    0.4672   31.4029 O.co2   1  UNL1       -0.2406
     29 O         -34.2298    1.7028   33.0817 O.co2   1  UNL1       -0.2406
     30 C         -30.5095    6.4185   36.1701 C.2     1  UNL1       -0.0028
     31 C         -28.4807    6.3170   34.8337 C.3     1  UNL1        0.0308
     32 C         -31.5913    6.7623   36.5444 C.2     1  UNL1       -0.0030
     33 C         -32.2202    6.7692   37.6394 C.2     1  UNL1       -0.0048
     34 C         -33.5597    7.2543   37.8750 C.2     1  UNL1       -0.0258
     35 C         -34.2297    7.7541   36.7510 C.3     1  UNL1        0.0307
@<TRIPOS>BOND
     1     2     7    1
     2     6     8    1
     3    12    14    1
     4    14    15   am
     5    14    16    2
     6    15    17    1
     7    17    18    1
     8    22    24    1
     9    24    25   ar
    10    24    26   ar
    11    10    27    1
    12    27    28   ar
    13    27    29   ar
    14    17    30    1
    15    17    31    1
    16    30    32    2
    17    32    33    1
    18    33    34    2
    19    34    35    1
    20    18    19   ar
    21    19    20   ar
    22    20    21   ar
    23    21    22   ar
    24    22    23   ar
    25    23    18   ar
    26     1     2   ar
    27     2     3   ar
    28     3     4   ar
    29     4     6   ar
    30     6     5   ar
    31     5     1   ar
    32     8     9   ar
    33     9    10   ar
    34    10    11   ar
    35    11    12   ar
    36    12    13   ar
    37    13     8   ar
