@<TRIPOS>MOLECULE
No_2406-gen_results/8p0m/2024-11-26-14-13-15/
 24 26 0 0 0
SMALL
GASTEIGER

@<TRIPOS>ATOM
      1 C         -28.0162   -0.8135   28.8779 C.3     1  UNL1        0.0720
      2 C         -27.0636   -0.1189   28.6079 C.ar    1  UNL1       -0.0162
      3 C         -27.0010    0.6913   27.4910 C.ar    1  UNL1       -0.0040
      4 C         -25.8548    1.4825   27.0830 C.ar    1  UNL1        0.0008
      5 C         -24.6901    1.4526   27.8807 C.ar    1  UNL1        0.0436
      6 C         -24.7379    0.6010   29.0416 C.ar    1  UNL1        0.0008
      7 C         -25.8234   -0.1688   29.3887 C.ar    1  UNL1       -0.0040
      8 C         -29.2252   -0.0469   29.2805 C.ar    1  UNL1        0.0634
      9 N         -29.3751    0.2221   30.4723 N.ar    1  UNL1       -0.2478
     10 C         -29.7455    0.8609   31.1639 C.ar    1  UNL1        0.1000
     11 C         -30.4351    2.0676   30.6525 C.ar    1  UNL1        0.0383
     12 C         -30.7463    3.1646   31.2726 C.2     1  UNL1        0.1003
     13 C         -30.7255    1.9840   29.2226 C.ar    1  UNL1        0.0043
     14 C         -29.8399    0.8946   28.3966 C.ar    1  UNL1        0.0151
     15 C         -23.4963    2.1561   27.5463 C.3     1  UNL1        0.3410
     16 F         -23.5279    2.8744   26.5830 F       1  UNL1       -0.1933
     17 F         -22.3355    1.8164   27.9557 F       1  UNL1       -0.1933
     18 N         -31.8093    3.5570   31.3903 N.2     1  UNL1       -0.2438
     19 C         -32.8526    3.0053   30.9399 C.ar    1  UNL1        0.0814
     20 C         -33.9820    3.4172   30.8926 C.ar    1  UNL1        0.0191
     21 C         -35.1626    2.7271   30.4108 C.ar    1  UNL1        0.0015
     22 C         -34.8553    1.4547   29.8707 C.ar    1  UNL1        0.0001
     23 C         -33.6234    0.9422   29.8360 C.ar    1  UNL1        0.0015
     24 C         -32.5452    1.7154   30.3827 C.ar    1  UNL1        0.0191
@<TRIPOS>BOND
     1     1     2    1
     2     1     8    1
     3     5    15    1
     4    15    16    1
     5    15    17    1
     6    12    18    2
     7    18    19    1
     8    12    11    1
     9     2     3   ar
    10     3     4   ar
    11     4     5   ar
    12     5     6   ar
    13     6     7   ar
    14     7     2   ar
    15     8     9   ar
    16     9    10   ar
    17    10    11   ar
    18    11    13   ar
    19    13    14   ar
    20    14     8   ar
    21    19    20   ar
    22    20    21   ar
    23    21    22   ar
    24    22    23   ar
    25    23    24   ar
    26    24    19   ar
