@<TRIPOS>MOLECULE
No_2407-gen_results/8p0m/2024-11-26-14-13-15/
 19 20 0 0 0
SMALL
GASTEIGER

@<TRIPOS>ATOM
      1 O         -28.1229   -1.3353   28.4874 O.2     1  UNL1       -0.2745
      2 C         -28.5208   -0.4363   29.0779 C.2     1  UNL1        0.2294
      3 C         -27.6655    0.1129   30.0346 C.3     1  UNL1        0.0860
      4 N         -29.5662    0.3302   28.6099 N.am    1  UNL1       -0.2569
      5 C         -26.9528   -0.6475   30.7643 C.3     1  UNL1        0.0142
      6 C         -30.3151   -0.1911   27.5679 C.3     1  UNL1        0.1200
      7 C         -30.1958    1.2125   29.6650 C.ar    1  UNL1        0.0539
      8 C         -30.8338    0.7100   30.5609 C.ar    1  UNL1        0.0149
      9 C         -31.3461    1.5224   31.4932 C.ar    1  UNL1        0.0013
     10 C         -31.3430    2.9190   31.3256 C.ar    1  UNL1        0.0001
     11 C         -29.9244    2.5774   29.3313 C.ar    1  UNL1        0.0149
     12 C         -30.5569    3.4679   30.2560 C.ar    1  UNL1        0.0013
     13 C         -25.7983   -0.7081   30.8495 C.3     1  UNL1        0.0269
     14 C         -25.0531   -0.5436   30.1462 C.ar    1  UNL1       -0.0222
     15 C         -23.5834   -0.6708   30.3156 C.ar    1  UNL1       -0.0043
     16 C         -22.7095   -0.1839   29.6198 C.ar    1  UNL1       -0.0003
     17 C         -23.0408    0.3557   28.3200 C.ar    1  UNL1       -0.0000
     18 C         -24.3682    0.4334   28.0383 C.ar    1  UNL1       -0.0003
     19 C         -25.3146   -0.0086   28.9174 C.ar    1  UNL1       -0.0043
@<TRIPOS>BOND
     1     1     2    2
     2     2     3    1
     3     2     4   am
     4     3     5    1
     5     4     6    1
     6     4     7    1
     7     5    13    1
     8    13    14    1
     9     7     8   ar
    10     8     9   ar
    11     9    10   ar
    12    10    12   ar
    13    12    11   ar
    14    11     7   ar
    15    14    15   ar
    16    15    16   ar
    17    16    17   ar
    18    17    18   ar
    19    18    19   ar
    20    19    14   ar
