@<TRIPOS>MOLECULE
No_2408-gen_results/8p0m/2024-11-26-14-13-15/
 31 33 0 0 0
SMALL
GASTEIGER

@<TRIPOS>ATOM
      1 C         -28.0162   -0.8135   28.8779 C.3     1  UNL1        0.1117
      2 C         -27.0636   -0.1190   28.6079 C.ar    1  UNL1       -0.0087
      3 C         -26.9716    0.7139   27.5060 C.ar    1  UNL1        0.0503
      4 C         -25.8205    1.4909   27.1160 C.ar    1  UNL1        0.0108
      5 C         -24.8579    1.3421   27.6008 C.ar    1  UNL1        0.0799
      6 C         -24.6224    0.5295   28.8144 C.ar    1  UNL1        0.0063
      7 C         -25.7344   -0.1811   29.1908 C.ar    1  UNL1       -0.0034
      8 C         -27.9596   -1.4412   30.2523 C.2     1  UNL1        0.2301
      9 N         -29.0203   -2.1885   30.6818 N.am    1  UNL1       -0.2792
     10 O         -26.9731   -1.5643   31.0159 O.2     1  UNL1       -0.2745
     11 C         -30.2489   -2.1892   30.0253 C.3     1  UNL1        0.0942
     12 C         -23.5400    2.1744   27.2830 C.2     1  UNL1        0.3878
     13 O         -23.4578    2.6492   26.1020 O.co2   1  UNL1       -0.2406
     14 O         -22.4548    2.1498   28.0267 O.co2   1  UNL1       -0.2406
     15 C         -28.2569    0.8365   26.7247 C.2     1  UNL1        0.2490
     16 O         -29.2788    1.2384   27.0921 O.2     1  UNL1       -0.2699
     17 N         -28.1726    0.4217   25.4099 N.am    1  UNL1       -0.2702
     18 C         -31.2656   -2.5610   30.8582 C.3     1  UNL1        0.0313
     19 C         -31.0310   -3.4403   31.7094 C.3     1  UNL1        0.0043
     20 C         -29.7609   -3.5954   32.4566 C.3     1  UNL1        0.0216
     21 C         -28.7554   -2.7047   31.9225 C.3     1  UNL1        0.0934
     22 C         -29.2470    0.3399   24.4997 C.3     1  UNL1        0.1205
     23 C         -26.9107   -0.0807   24.7847 C.3     1  UNL1        0.1155
     24 C         -32.6298   -2.0970   30.4595 C.3     1  UNL1        0.0693
     25 BR        -33.4965   -2.2009   29.0531 Br      1  UNL1       -0.0807
     26 C         -30.4159    0.1229   25.0739 C.ar    1  UNL1       -0.0023
     27 C         -31.4765   -0.4391   24.2642 C.ar    1  UNL1       -0.0026
     28 C         -32.6624   -0.9264   24.8792 C.ar    1  UNL1       -0.0003
     29 C         -32.9551   -0.5245   26.1321 C.ar    1  UNL1       -0.0000
     30 C         -32.0132    0.0992   26.9394 C.ar    1  UNL1       -0.0003
     31 C         -30.8084    0.3896   26.4424 C.ar    1  UNL1       -0.0026
@<TRIPOS>BOND
     1     1     8    1
     2     8     9   am
     3     8    10    2
     4     9    11    1
     5     5    12    1
     6    12    13   ar
     7    12    14   ar
     8     3    15    1
     9    15    16    2
    10    15    17   am
    11    11    18    1
    12    18    19    1
    13     9    21    1
    14    20    21    1
    15    17    22    1
    16    17    23    1
    17    18    24    1
    18    24    25    1
    19    22    26    1
    20     1     2    1
    21    19    20    1
    22    26    27   ar
    23    27    28   ar
    24    28    29   ar
    25    29    30   ar
    26    30    31   ar
    27    31    26   ar
    28     2     3   ar
    29     3     4   ar
    30     4     5   ar
    31     5     6   ar
    32     6     7   ar
    33     7     2   ar
