@<TRIPOS>MOLECULE
No_2409-gen_results/8p0m/2024-11-26-14-13-15/
 14 15 0 0 0
SMALL
GASTEIGER

@<TRIPOS>ATOM
      1 C         -28.0162   -0.8135   28.8779 C.ar    1  UNL1        0.0009
      2 C         -27.0636   -0.1189   28.6079 C.ar    1  UNL1        0.0000
      3 C         -26.9716    0.7139   27.5060 C.ar    1  UNL1        0.0005
      4 C         -28.1053    0.7744   26.6421 C.ar    1  UNL1        0.0114
      5 C         -29.2008    0.1044   27.0527 C.ar    1  UNL1        0.0577
      6 C         -29.2096   -0.6029   28.1853 C.ar    1  UNL1        0.0114
      7 CL        -30.5651    0.2430   26.0493 Cl      1  UNL1       -0.0822
      8 C         -25.7033   -0.2337   29.4132 C.ar    1  UNL1       -0.0003
      9 C         -24.5301   -0.2334   28.8121 C.ar    1  UNL1       -0.0043
     10 C         -24.4520    0.6789   27.6149 C.ar    1  UNL1       -0.0225
     11 C         -25.6323    0.9877   26.9101 C.ar    1  UNL1       -0.0043
     12 C         -23.1407    1.1569   27.1811 C.3     1  UNL1        0.0224
     13 C         -22.9829    2.2499   26.3478 C.3     1  UNL1        0.0047
     14 C         -21.9938    0.7829   28.0012 C.3     1  UNL1        0.0047
@<TRIPOS>BOND
     1     5     7    1
     2    10    12    1
     3    12    13    1
     4    12    14    1
     5     1     2   ar
     6     3     4   ar
     7     4     5   ar
     8     5     6   ar
     9     6     1   ar
    10     2     3   ar
    11     3    11   ar
    12    11    10   ar
    13    10     9   ar
    14     9     8   ar
    15     8     2   ar
