@<TRIPOS>MOLECULE
No_241-gen_results/8p0m/2024-11-26-14-13-15/
 16 17 0 0 0
SMALL
GASTEIGER

@<TRIPOS>ATOM
      1 C         -28.0162   -0.8135   28.8779 C.ar    1  UNL1        0.1407
      2 C         -27.0636   -0.1189   28.6079 C.ar    1  UNL1        0.0371
      3 C         -26.9716    0.7139   27.5060 C.ar    1  UNL1        0.0072
      4 C         -28.1053    0.7744   26.6421 C.ar    1  UNL1        0.0498
      5 C         -29.2008    0.1044   27.0527 C.ar    1  UNL1        0.0711
      6 C         -29.2096   -0.6029   28.1853 C.ar    1  UNL1        0.0531
      7 N         -30.2055    0.3215   26.0588 N.pl3   1  UNL1       -0.2369
      8 C         -30.0515    0.6517   24.8862 C.3     1  UNL1        0.1203
      9 C         -28.8853    1.4329   24.5274 C.3     1  UNL1        0.0925
     10 C         -27.8608    1.4746   25.4255 C.2     1  UNL1        0.1761
     11 O         -28.0680   -1.5600   30.0743 O.3     1  UNL1       -0.4637
     12 C         -27.1851   -2.6412   30.1005 C.3     1  UNL1        0.3186
     13 C         -27.7375   -3.9559   30.1708 C.2     1  UNL1        0.4084
     14 O         -26.9944   -4.9655   29.9124 O.co2   1  UNL1       -0.2415
     15 O         -28.9190   -4.1393   30.5877 O.co2   1  UNL1       -0.2415
     16 O         -26.7367    2.0629   25.1767 O.2     1  UNL1       -0.2912
@<TRIPOS>BOND
     1     5     7    1
     2     8     9    1
     3     4    10    1
     4     9    10    1
     5     1    11    1
     6    11    12    1
     7    12    13    1
     8    13    14   ar
     9    13    15   ar
    10    10    16    2
    11     7     8    1
    12     1     2   ar
    13     2     3   ar
    14     3     4   ar
    15     4     5   ar
    16     5     6   ar
    17     6     1   ar
