@<TRIPOS>MOLECULE
No_2411-gen_results/8p0m/2024-11-26-14-13-15/
 26 27 0 0 0
SMALL
GASTEIGER

@<TRIPOS>ATOM
      1 C         -28.0162   -0.8135   28.8779 C.ar    1  UNL1       -0.0066
      2 C         -27.0636   -0.1190   28.6079 C.ar    1  UNL1       -0.0184
      3 C         -26.8756    1.1325   28.9134 C.ar    1  UNL1       -0.0040
      4 C         -27.9014    1.8066   29.6436 C.ar    1  UNL1       -0.0006
      5 C         -29.0458   -0.2316   29.7181 C.ar    1  UNL1       -0.0030
      6 C         -28.9402    1.0517   30.0597 C.ar    1  UNL1       -0.0026
      7 C         -25.8732   -0.7125   27.8045 C.3     1  UNL1        0.0486
      8 C         -24.7599   -1.1987   28.6570 C.2     1  UNL1       -0.0347
      9 C         -24.7496   -2.3847   29.1063 C.2     1  UNL1       -0.0081
     10 C         -23.5894   -2.8336   29.8419 C.2     1  UNL1       -0.0048
     11 C         -22.7913   -1.8035   30.2794 C.2     1  UNL1       -0.0210
     12 C         -23.7233   -0.4336   29.2770 C.3     1  UNL1        0.0581
     13 C         -23.1635    0.8351   29.2766 C.3     1  UNL1        0.0996
     14 N         -23.5657    1.8342   29.9833 N.3     1  UNL1       -0.1322
     15 C         -22.1203    1.1081   28.2730 C.3     1  UNL1        0.0212
     16 C         -30.1944   -1.0971   30.1469 C.3     1  UNL1        0.1143
     17 N         -31.1722   -1.1693   29.3654 N.pl3   1  UNL1       -0.2392
     18 C         -32.3558   -0.9416   29.7213 C.2     1  UNL1        0.0437
     19 C         -32.6987   -0.6269   30.8131 C.2     1  UNL1        0.0117
     20 C         -33.4384   -1.0331   28.6337 C.3     1  UNL1        0.0488
     21 C         -31.8290   -0.5238   31.9264 C.2     1  UNL1        0.0010
     22 C         -29.6780   -2.3108   30.9191 C.3     1  UNL1        0.0282
     23 C         -32.0087    0.0220   33.1391 C.2     1  UNL1       -0.0003
     24 C         -31.1582   -0.0137   34.2444 C.2     1  UNL1       -0.0046
     25 C         -29.9339   -0.6853   34.0342 C.2     1  UNL1       -0.0258
     26 C         -29.6247   -1.2408   32.8340 C.3     1  UNL1        0.0307
@<TRIPOS>BOND
     1     2     7    1
     2     7     8    1
     3     8     9    2
     4     9    10    1
     5    10    11    2
     6     8    12    1
     7    11    12    1
     8    12    13    1
     9    13    14    1
    10    13    15    1
    11     5    16    1
    12    16    17    1
    13    17    18    1
    14    18    19    2
    15    18    20    1
    16    19    21    1
    17    16    22    1
    18    21    23    2
    19    23    24    1
    20    24    25    2
    21    25    26    1
    22     1     2   ar
    23     2     3   ar
    24     3     4   ar
    25     4     6   ar
    26     6     5   ar
    27     5     1   ar
