@<TRIPOS>MOLECULE
No_2412-gen_results/8p0m/2024-11-26-14-13-15/
 16 17 0 0 0
SMALL
GASTEIGER

@<TRIPOS>ATOM
      1 C         -28.0162   -0.8135   28.8779 C.ar    1  UNL1        0.0039
      2 C         -27.0636   -0.1189   28.6079 C.ar    1  UNL1       -0.0001
      3 C         -25.7647   -0.3897   29.0360 C.ar    1  UNL1       -0.0000
      4 C         -24.5516    0.4058   28.7646 C.ar    1  UNL1       -0.0000
      5 C         -23.2300    0.1178   29.2575 C.ar    1  UNL1       -0.0000
      6 C         -22.1393    0.9427   28.9224 C.ar    1  UNL1        0.0000
      7 C         -27.8294   -1.9287   29.8545 C.ar    1  UNL1        0.0714
      8 C         -26.5882   -2.3272   30.2682 C.ar    1  UNL1        0.0039
      9 C         -25.4565   -1.5432   29.9146 C.ar    1  UNL1       -0.0001
     10 C         -22.2302    1.9089   27.8723 C.ar    1  UNL1        0.0000
     11 C         -24.5538    1.4700   27.7617 C.ar    1  UNL1       -0.0000
     12 C         -23.4471    2.1666   27.3764 C.ar    1  UNL1        0.0000
     13 C         -28.8778   -2.8857   30.3196 C.3     1  UNL1        0.4186
     14 F         -28.5668   -4.0956   30.4846 F       1  UNL1       -0.1659
     15 F         -29.3284   -2.4220   31.5582 F       1  UNL1       -0.1659
     16 F         -29.9707   -2.8317   29.5689 F       1  UNL1       -0.1659
@<TRIPOS>BOND
     1     3     4    1
     2     7    13    1
     3    13    14    1
     4    13    15    1
     5    13    16    1
     6     1     2   ar
     7     2     3   ar
     8     3     9   ar
     9     9     8   ar
    10     8     7   ar
    11     7     1   ar
    12     4     5   ar
    13     5     6   ar
    14     6    10   ar
    15    10    12   ar
    16    12    11   ar
    17    11     4   ar
