@<TRIPOS>MOLECULE
No_2413-gen_results/8p0m/2024-11-26-14-13-15/
 10 10 0 0 0
SMALL
GASTEIGER

@<TRIPOS>ATOM
      1 C         -28.0162   -0.8135   28.8779 C.ar    1  UNL1       -0.0003
      2 C         -28.4690   -0.7850   29.8287 C.ar    1  UNL1       -0.0000
      3 C         -27.2166   -0.0832   27.9639 C.ar    1  UNL1       -0.0026
      4 C         -27.0905    1.2695   28.4177 C.ar    1  UNL1       -0.0007
      5 C         -27.6655    1.5758   29.6941 C.ar    1  UNL1       -0.0026
      6 C         -28.3335    0.6031   30.4319 C.ar    1  UNL1       -0.0003
      7 C         -26.3583    2.2788   27.6965 C.3     1  UNL1        0.1386
      8 N         -25.0714    2.1920   27.9113 N.pl3   1  UNL1       -0.2315
      9 C         -24.2239    1.5421   27.6768 C.2     1  UNL1        0.0805
     10 C         -22.8209    1.7104   28.1475 C.2     1  UNL1        0.0188
@<TRIPOS>BOND
     1     4     7    1
     2     7     8    1
     3     8     9    1
     4     9    10    2
     5     1     2   ar
     6     2     6   ar
     7     6     5   ar
     8     5     4   ar
     9     4     3   ar
    10     3     1   ar
