@<TRIPOS>MOLECULE
No_2416-gen_results/8p0m/2024-11-26-14-13-15/
 14 15 0 0 0
SMALL
GASTEIGER

@<TRIPOS>ATOM
      1 C         -28.0162   -0.8135   28.8779 C.ar    1  UNL1        0.0066
      2 C         -28.4690   -0.7850   29.8287 C.ar    1  UNL1        0.0798
      3 C         -26.5042   -0.7777   28.8766 C.ar    1  UNL1        0.0002
      4 C         -25.8103   -0.8531   30.1028 C.ar    1  UNL1       -0.0003
      5 C         -27.9906   -0.8916   31.2257 C.ar    1  UNL1        0.0066
      6 C         -24.3976   -0.8364   30.1775 C.2     1  UNL1       -0.0042
      7 C         -26.5754   -0.8899   31.2661 C.ar    1  UNL1        0.0002
      8 C         -23.6362   -0.9045   29.1560 C.2     1  UNL1       -0.0214
      9 C         -22.1750   -0.7187   29.2225 C.3     1  UNL1        0.0520
     10 C         -23.5790    0.1052   30.8828 C.2     1  UNL1       -0.0045
     11 C         -22.2056    0.0749   30.3715 C.2     1  UNL1       -0.0214
     12 C         -30.0872   -0.7577   29.8408 C.2     1  UNL1        0.3878
     13 O         -30.4905   -0.2972   28.8770 O.co2   1  UNL1       -0.2406
     14 O         -30.7714   -0.8346   30.9363 O.co2   1  UNL1       -0.2406
@<TRIPOS>BOND
     1     4     6    1
     2     6     8    2
     3     8     9    1
     4     6    10    1
     5     9    11    1
     6    10    11    2
     7     2    12    1
     8    12    13   ar
     9    12    14   ar
    10     1     2   ar
    11     2     5   ar
    12     5     7   ar
    13     7     4   ar
    14     4     3   ar
    15     3     1   ar
