@<TRIPOS>MOLECULE
No_2417-gen_results/8p0m/2024-11-26-14-13-15/
 23 25 0 0 0
SMALL
GASTEIGER

@<TRIPOS>ATOM
      1 C         -28.0162   -0.8135   28.8779 C.ar    1  UNL1        0.0257
      2 C         -28.4690   -0.7850   29.8287 C.ar    1  UNL1        0.1398
      3 C         -26.5042   -0.7777   28.8766 C.ar    1  UNL1       -0.0156
      4 C         -25.6540   -0.6597   27.7191 C.3     1  UNL1        0.0524
      5 C         -27.9180   -0.9374   31.1824 C.ar    1  UNL1        0.0296
      6 C         -26.5423   -0.9399   31.2606 C.ar    1  UNL1        0.0020
      7 C         -25.7832   -0.8935   30.1201 C.ar    1  UNL1       -0.0038
      8 C         -25.2204    0.6866   27.3939 C.ar    1  UNL1       -0.0216
      9 C         -25.3029    1.0787   26.0731 C.ar    1  UNL1       -0.0227
     10 C         -24.7297    2.3383   25.6867 C.ar    1  UNL1       -0.0045
     11 C         -24.0128    2.9911   26.6964 C.ar    1  UNL1       -0.0003
     12 C         -24.3778    1.5707   28.1616 C.ar    1  UNL1       -0.0042
     13 C         -23.7611    2.5357   27.7782 C.ar    1  UNL1       -0.0003
     14 F         -29.9071   -0.8142   29.8324 F       1  UNL1       -0.2042
     15 C         -26.0551    0.5710   24.9619 C.3     1  UNL1        0.0659
     16 C         -27.4799    0.4423   25.0713 C.3     1  UNL1        0.1875
     17 C         -28.1500    1.2098   26.0059 C.ar    1  UNL1        0.0102
     18 C         -29.5677    1.2024   26.0916 C.ar    1  UNL1       -0.0016
     19 C         -30.2822    1.9644   27.0514 C.ar    1  UNL1       -0.0002
     20 C         -29.5394    2.7399   27.9661 C.ar    1  UNL1       -0.0000
     21 C         -28.1178    2.8035   27.8665 C.ar    1  UNL1       -0.0002
     22 C         -27.4815    2.1062   26.9429 C.ar    1  UNL1       -0.0016
     23 F         -28.1109   -0.3136   24.2913 F       1  UNL1       -0.2321
@<TRIPOS>BOND
     1     3     4    1
     2     4     8    1
     3     2    14    1
     4     9    15    1
     5    15    16    1
     6    16    23    1
     7    16    17    1
     8    17    18   ar
     9    18    19   ar
    10    19    20   ar
    11    20    21   ar
    12    21    22   ar
    13    22    17   ar
    14     1     2   ar
    15     2     5   ar
    16     5     6   ar
    17     6     7   ar
    18     7     3   ar
    19     3     1   ar
    20     8     9   ar
    21     9    10   ar
    22    10    11   ar
    23    11    13   ar
    24    13    12   ar
    25    12     8   ar
