@<TRIPOS>MOLECULE
No_2419-gen_results/8p0m/2024-11-26-14-13-15/
 25 27 0 0 0
SMALL
GASTEIGER

@<TRIPOS>ATOM
      1 C         -28.0162   -0.8135   28.8779 C.ar    1  UNL1        0.0045
      2 C         -28.4690   -0.7850   29.8287 C.ar    1  UNL1        0.0539
      3 C         -26.5042   -0.7777   28.8766 C.ar    1  UNL1        0.0001
      4 C         -25.8103   -0.8531   30.1028 C.ar    1  UNL1        0.0000
      5 C         -27.9906   -0.8916   31.2257 C.ar    1  UNL1        0.0045
      6 C         -26.6042   -0.8676   31.2652 C.ar    1  UNL1        0.0001
      7 C         -24.3894   -0.8049   30.1638 C.ar    1  UNL1        0.0000
      8 C         -23.7660   -0.9500   31.0679 C.ar    1  UNL1        0.0000
      9 C         -22.2665   -0.8379   31.2250 C.ar    1  UNL1        0.0000
     10 C         -21.6700   -0.5264   30.0648 C.ar    1  UNL1        0.0000
     11 C         -23.6437   -0.4433   28.9621 C.ar    1  UNL1        0.0000
     12 C         -22.3479   -0.3035   28.9177 C.ar    1  UNL1        0.0000
     13 C         -30.0865   -0.8367   30.0156 C.2     1  UNL1        0.2528
     14 O         -30.6715   -1.8362   30.1178 O.2     1  UNL1       -0.2696
     15 N         -30.7292    0.2860   29.4110 N.am    1  UNL1       -0.2534
     16 C         -32.1246    0.2860   29.2653 C.3     1  UNL1        0.1203
     17 C         -30.0165    1.5479   29.1903 C.ar    1  UNL1        0.0542
     18 C         -29.8950    1.8827   27.9766 C.ar    1  UNL1        0.0149
     19 C         -30.2063    2.9707   27.6062 C.ar    1  UNL1        0.0013
     20 C         -30.1484    4.1571   28.4835 C.ar    1  UNL1        0.0016
     21 C         -30.1324    3.7743   29.8598 C.ar    1  UNL1        0.0199
     22 C         -29.9721    2.4055   30.3093 C.ar    1  UNL1        0.0164
     23 C         -30.0791    4.8403   30.9226 C.2     1  UNL1        0.0932
     24 N         -29.5738    5.8834   30.8047 N.2     1  UNL1       -0.2668
     25 C         -29.5218    6.7982   31.8232 C.3     1  UNL1        0.1517
@<TRIPOS>BOND
     1     4     7    1
     2     2    13    1
     3    13    14    2
     4    13    15   am
     5    15    16    1
     6    15    17    1
     7    21    23    1
     8    23    24    2
     9    24    25    1
    10     7     8   ar
    11     8     9   ar
    12     9    10   ar
    13    10    12   ar
    14    12    11   ar
    15    11     7   ar
    16    17    18   ar
    17    18    19   ar
    18    19    20   ar
    19    20    21   ar
    20    21    22   ar
    21    22    17   ar
    22     1     2   ar
    23     2     5   ar
    24     5     6   ar
    25     6     4   ar
    26     4     3   ar
    27     3     1   ar
