@<TRIPOS>MOLECULE
No_242-gen_results/8p0m/2024-11-26-14-13-15/
 12 12 0 0 0
SMALL
GASTEIGER

@<TRIPOS>ATOM
      1 C         -28.0162   -0.8135   28.8779 C.ar    1  UNL1        0.0262
      2 C         -28.4690   -0.7850   29.8287 C.ar    1  UNL1        0.1399
      3 C         -26.5042   -0.7777   28.8766 C.ar    1  UNL1       -0.0094
      4 C         -25.8103   -0.8531   30.1028 C.ar    1  UNL1        0.0311
      5 C         -27.9906   -0.8916   31.2257 C.ar    1  UNL1        0.0301
      6 C         -26.6042   -0.8676   31.2652 C.ar    1  UNL1        0.0087
      7 BR        -23.9859   -0.7976   30.1716 Br      1  UNL1       -0.0493
      8 F         -29.9469   -0.8330   29.8185 F       1  UNL1       -0.2042
      9 C         -25.6361   -0.7294   27.6544 C.3     1  UNL1        0.0525
     10 C         -25.3824    0.5896   27.1255 C.2     1  UNL1       -0.0260
     11 C         -24.2675    1.1241   27.3368 C.2     1  UNL1       -0.0300
     12 C         -23.9022    2.3850   26.6320 C.3     1  UNL1        0.0304
@<TRIPOS>BOND
     1     4     7    1
     2     2     8    1
     3     3     9    1
     4     9    10    1
     5    10    11    2
     6    11    12    1
     7     1     2   ar
     8     2     5   ar
     9     5     6   ar
    10     6     4   ar
    11     4     3   ar
    12     3     1   ar
