@<TRIPOS>MOLECULE
No_2421-gen_results/8p0m/2024-11-26-14-13-15/
 8 8 0 0 0
SMALL
GASTEIGER

@<TRIPOS>ATOM
      1 C         -28.0162   -0.8135   28.8779 C.ar    1  UNL1        0.0609
      2 C         -28.4690   -0.7850   29.8287 C.ar    1  UNL1        0.0116
      3 CL        -26.3597   -1.1928   28.7735 Cl      1  UNL1       -0.0821
      4 C         -29.8497   -0.3789   29.9529 C.ar    1  UNL1        0.0041
      5 C         -30.4691    0.0239   28.7575 C.ar    1  UNL1        0.0421
      6 C         -29.7242    0.0555   27.6385 C.ar    1  UNL1        0.1966
      7 C         -28.4282   -0.3029   27.6513 C.ar    1  UNL1        0.0534
      8 O         -30.2444    0.4663   26.4237 O.3     1  UNL1       -0.2865
@<TRIPOS>BOND
     1     1     3    1
     2     6     8    1
     3     1     2   ar
     4     2     4   ar
     5     4     5   ar
     6     5     6   ar
     7     6     7   ar
     8     7     1   ar
