@<TRIPOS>MOLECULE
No_2422-gen_results/8p0m/2024-11-26-14-13-15/
 35 39 0 0 0
SMALL
GASTEIGER

@<TRIPOS>ATOM
      1 F         -28.0727   -1.2542   28.5316 F       1  UNL1       -0.2013
      2 C         -27.0607   -0.6291   28.8721 C.ar    1  UNL1        0.1702
      3 C         -26.1528   -1.1557   29.4537 C.ar    1  UNL1        0.1730
      4 C         -24.8777   -0.5788   29.8639 C.ar    1  UNL1        0.0509
      5 C         -24.7426    0.8273   29.4808 C.ar    1  UNL1        0.0569
      6 C         -25.7883    1.3927   28.7628 C.ar    1  UNL1       -0.0088
      7 C         -26.9145    0.7309   28.4427 C.ar    1  UNL1        0.0058
      8 CL        -23.3446    1.6560   29.9170 Cl      1  UNL1       -0.0825
      9 C         -27.9239    1.4141   27.6485 C.3     1  UNL1        0.0331
     10 C         -27.6154    1.9739   26.5609 C.3     1  UNL1        0.0304
     11 C         -26.3741    2.1884   26.1776 C.2     1  UNL1       -0.0300
     12 C         -25.1662    2.5606   26.7193 C.2     1  UNL1       -0.0260
     13 C         -24.8333    2.4541   27.9591 C.3     1  UNL1        0.0526
     14 O         -26.2849   -2.4456   30.0312 O.3     1  UNL1       -0.4512
     15 C         -27.3382   -2.7587   30.6514 C.ar    1  UNL1        0.1454
     16 C         -27.9417   -4.0622   30.3213 C.ar    1  UNL1        0.0375
     17 C         -29.2401   -4.4022   30.8602 C.ar    1  UNL1        0.0031
     18 C         -29.9143   -3.4094   31.5279 C.ar    1  UNL1        0.0002
     19 C         -29.3964   -2.1512   31.8181 C.ar    1  UNL1        0.0031
     20 C         -28.1306   -1.8043   31.2933 C.ar    1  UNL1        0.0375
     21 C         -31.2185   -3.8309   32.1463 C.ar    1  UNL1        0.0015
     22 C         -32.2328   -3.8783   31.4729 C.ar    1  UNL1        0.0000
     23 C         -32.2736   -3.4440   30.2337 C.ar    1  UNL1        0.0000
     24 C         -31.3079   -2.7079   29.6880 C.ar    1  UNL1        0.0000
     25 C         -31.6033   -2.0789   28.2499 C.ar    1  UNL1        0.0000
     26 C         -32.5911   -2.6243   27.5528 C.ar    1  UNL1        0.0000
     27 C         -33.5299   -3.5051   28.0997 C.ar    1  UNL1        0.0000
     28 C         -33.3936   -3.8580   29.3855 C.ar    1  UNL1        0.0000
     29 C         -31.0580   -4.2196   33.5950 C.ar    1  UNL1        0.0187
     30 C         -31.8658   -4.9959   34.0747 C.ar    1  UNL1        0.0015
     31 C         -33.1847   -5.0585   33.4385 C.ar    1  UNL1        0.0000
     32 C         -33.3335   -4.5819   32.1514 C.ar    1  UNL1        0.0000
     33 C         -29.6431   -4.0837   34.2202 C.2     1  UNL1        0.0932
     34 N         -29.1693   -5.0999   34.8187 N.2     1  UNL1       -0.2668
     35 C         -28.6757   -4.9603   36.1046 C.3     1  UNL1        0.1517
@<TRIPOS>BOND
     1     1     2    1
     2     5     8    1
     3     7     9    1
     4     9    10    1
     5    10    11    1
     6    11    12    2
     7     6    13    1
     8    12    13    1
     9     3    14    1
    10    14    15    1
    11    18    21    1
    12    29    33    1
    13    33    34    2
    14    34    35    1
    15    23    22    1
    16    15    16   ar
    17    16    17   ar
    18    17    18   ar
    19    18    19   ar
    20    19    20   ar
    21    20    15   ar
    22     2     3   ar
    23     3     4   ar
    24     4     5   ar
    25     5     6   ar
    26     6     7   ar
    27     7     2   ar
    28    23    24   ar
    29    24    25   ar
    30    25    26   ar
    31    26    27   ar
    32    27    28   ar
    33    28    23   ar
    34    21    22   ar
    35    22    32   ar
    36    32    31   ar
    37    31    30   ar
    38    30    29   ar
    39    29    21   ar
