@<TRIPOS>MOLECULE
No_2423-gen_results/8p0m/2024-11-26-14-13-15/
 18 18 0 0 0
SMALL
GASTEIGER

@<TRIPOS>ATOM
      1 C         -28.0162   -0.8135   28.8779 C.3     1  UNL1        0.0268
      2 C         -27.0636   -0.1190   28.6079 C.ar    1  UNL1       -0.0222
      3 C         -26.9287    1.1713   29.0083 C.ar    1  UNL1       -0.0043
      4 C         -25.7702    2.0341   28.6884 C.ar    1  UNL1        0.0035
      5 C         -24.7141    1.4431   27.9188 C.ar    1  UNL1        0.0714
      6 C         -24.8590    0.0783   27.5836 C.ar    1  UNL1        0.0035
      7 C         -25.9647   -0.6606   27.9164 C.ar    1  UNL1       -0.0043
      8 C         -28.0410   -1.4978   30.2732 C.3     1  UNL1        0.0110
      9 C         -29.0412   -2.4455   30.6173 C.3     1  UNL1        0.0652
     10 C         -23.5346    2.1813   27.5529 C.3     1  UNL1        0.4186
     11 F         -22.6684    1.5681   27.0249 F       1  UNL1       -0.1659
     12 F         -23.9473    3.2007   26.6691 F       1  UNL1       -0.1659
     13 F         -23.0255    2.8563   28.6153 F       1  UNL1       -0.1659
     14 C         -27.9470   -0.4865   31.3396 C.3     1  UNL1        0.0008
     15 C         -26.7150   -2.3295   30.2284 C.3     1  UNL1        0.0008
     16 C         -30.3075   -2.1696   30.4439 C.3     1  UNL1        0.0082
     17 C         -28.7399   -3.8556   30.9491 C.2     1  UNL1        0.2070
     18 O         -29.5433   -4.5241   31.5893 O.2     1  UNL1       -0.2883
@<TRIPOS>BOND
     1     1     2    1
     2     1     8    1
     3     8     9    1
     4     5    10    1
     5    10    11    1
     6    10    12    1
     7    10    13    1
     8     8    14    1
     9     8    15    1
    10     9    16    1
    11     9    17    1
    12    17    18    2
    13     2     3   ar
    14     3     4   ar
    15     4     5   ar
    16     5     6   ar
    17     6     7   ar
    18     7     2   ar
