@<TRIPOS>MOLECULE
No_2424-gen_results/8p0m/2024-11-26-14-13-15/
 23 24 0 0 0
SMALL
GASTEIGER

@<TRIPOS>ATOM
      1 C         -28.0162   -0.8135   28.8779 C.ar    1  UNL1        0.0369
      2 C         -27.0636   -0.1190   28.6079 C.ar    1  UNL1        0.0031
      3 C         -25.7923   -0.4302   29.0761 C.ar    1  UNL1        0.0002
      4 C         -25.5756   -1.5654   29.9363 C.ar    1  UNL1        0.0031
      5 C         -26.7354   -2.3004   30.2173 C.ar    1  UNL1        0.0369
      6 C         -27.9184   -1.9537   29.7629 C.ar    1  UNL1        0.1387
      7 O         -29.0001   -2.7012   30.1151 O.3     1  UNL1       -0.4727
      8 C         -24.5290    0.3490   28.7998 C.ar    1  UNL1        0.0005
      9 C         -23.3442    0.0060   29.1658 C.ar    1  UNL1        0.0000
     10 C         -22.1783    0.7811   28.7783 C.ar    1  UNL1        0.0005
     11 C         -22.3217    1.7499   27.7727 C.ar    1  UNL1        0.0067
     12 C         -24.6102    1.3558   27.7479 C.ar    1  UNL1        0.0067
     13 C         -23.5148    2.0341   27.3068 C.ar    1  UNL1        0.0346
     14 BR        -23.7239    3.4302   26.0161 Br      1  UNL1       -0.0490
     15 C         -30.1219   -2.1347   30.5882 C.3     1  UNL1        0.2380
     16 C         -30.5764   -2.8482   31.6809 C.3     1  UNL1        0.1957
     17 O         -30.0162   -3.7065   32.2028 O.3     1  UNL1       -0.2191
     18 C         -32.0781   -3.3681   31.3266 C.3     1  UNL1        0.0415
     19 C         -32.9780   -2.5299   30.8238 C.3     1  UNL1        0.0288
     20 C         -32.9207   -1.2758   31.2593 C.2     1  UNL1       -0.0261
     21 C         -33.5006   -0.2500   30.5205 C.2     1  UNL1       -0.0046
     22 C         -33.3477    1.1136   30.8846 C.2     1  UNL1       -0.0003
     23 C         -33.8260    2.1935   30.1197 C.2     1  UNL1       -0.0000
@<TRIPOS>BOND
     1     6     7    1
     2     3     8    1
     3    13    14    1
     4     7    15    1
     5    15    16    1
     6    16    17    1
     7    16    18    1
     8    18    19    1
     9    19    20    1
    10    20    21    2
    11    21    22    1
    12    22    23    2
    13     1     2   ar
    14     2     3   ar
    15     3     4   ar
    16     4     5   ar
    17     5     6   ar
    18     6     1   ar
    19     8     9   ar
    20     9    10   ar
    21    10    11   ar
    22    11    13   ar
    23    13    12   ar
    24    12     8   ar
