@<TRIPOS>MOLECULE
No_2425-gen_results/8p0m/2024-11-26-14-13-15/
 35 38 0 0 0
SMALL
GASTEIGER

@<TRIPOS>ATOM
      1 C         -28.0162   -0.8135   28.8779 C.ar    1  UNL1        0.0006
      2 C         -28.4690   -0.7850   29.8287 C.ar    1  UNL1        0.0533
      3 C         -26.5042   -0.7777   28.8766 C.ar    1  UNL1       -0.0179
      4 C         -25.8103   -0.8531   30.1028 C.ar    1  UNL1       -0.0039
      5 C         -27.9906   -0.8916   31.2257 C.ar    1  UNL1        0.0045
      6 C         -26.6042   -0.8676   31.2652 C.ar    1  UNL1       -0.0002
      7 C         -30.0739   -0.8360   29.8615 C.2     1  UNL1        0.2493
      8 O         -30.6891   -1.6554   30.2229 O.2     1  UNL1       -0.2699
      9 N         -30.6139    0.2846   29.2227 N.am    1  UNL1       -0.2702
     10 C         -32.0200    0.3382   29.0215 C.3     1  UNL1        0.1155
     11 C         -29.8434    1.4263   28.7504 C.3     1  UNL1        0.1205
     12 C         -30.0696    2.5922   29.5725 C.ar    1  UNL1       -0.0023
     13 C         -29.3221    3.5645   29.2494 C.ar    1  UNL1       -0.0026
     14 C         -29.2624    4.8163   30.1016 C.ar    1  UNL1       -0.0003
     15 C         -30.2470    4.8573   31.1195 C.ar    1  UNL1       -0.0000
     16 C         -31.0352    3.7563   31.3590 C.ar    1  UNL1       -0.0003
     17 C         -30.8963    2.5993   30.6584 C.ar    1  UNL1       -0.0026
     18 C         -25.6671   -0.6749   27.6581 C.3     1  UNL1        0.0494
     19 C         -25.2415    0.6840   27.3226 C.2     1  UNL1       -0.0260
     20 C         -25.5029    1.1492   26.0828 C.2     1  UNL1       -0.0243
     21 C         -26.1781    0.3992   25.1382 C.2     1  UNL1       -0.0087
     22 C         -27.1697    0.1428   24.8202 C.2     1  UNL1       -0.0217
     23 C         -28.2967    0.9086   25.1866 C.3     1  UNL1        0.0523
     24 C         -29.0984    1.3945   24.4115 C.ar    1  UNL1       -0.0178
     25 C         -30.1298    2.2836   24.7655 C.ar    1  UNL1       -0.0039
     26 C         -31.3028    2.4534   24.1054 C.ar    1  UNL1       -0.0003
     27 C         -31.3891    1.7244   22.8999 C.ar    1  UNL1       -0.0000
     28 C         -30.4985    0.8539   22.5128 C.ar    1  UNL1       -0.0003
     29 C         -29.4643    0.6345   23.2168 C.ar    1  UNL1       -0.0039
     30 C         -24.7111    1.5145   28.2065 C.3     1  UNL1        0.1144
     31 N         -24.0023    1.2705   29.1772 N.3     1  UNL1       -0.1281
     32 C         -25.3791    2.8185   28.3776 C.3     1  UNL1        0.0489
     33 C         -25.0371    3.8022   27.4263 C.2     1  UNL1       -0.0285
     34 C         -25.2914    3.6267   26.0072 C.2     1  UNL1       -0.0259
     35 C         -25.1232    2.5493   25.6821 C.3     1  UNL1        0.0514
@<TRIPOS>BOND
     1     2     7    1
     2     7     8    2
     3     7     9   am
     4     9    10    1
     5     9    11    1
     6    11    12    1
     7     3    18    1
     8    18    19    1
     9    19    20    2
    10    20    21    1
    11    21    22    2
    12    22    23    1
    13    19    30    1
    14    30    31    1
    15    30    32    1
    16    32    33    1
    17    33    34    2
    18    20    35    1
    19    34    35    1
    20    23    24    1
    21    12    13   ar
    22    13    14   ar
    23    14    15   ar
    24    15    16   ar
    25    16    17   ar
    26    17    12   ar
    27    24    25   ar
    28    25    26   ar
    29    26    27   ar
    30    27    28   ar
    31    28    29   ar
    32    29    24   ar
    33     1     2   ar
    34     2     5   ar
    35     5     6   ar
    36     6     4   ar
    37     4     3   ar
    38     3     1   ar
