@<TRIPOS>MOLECULE
No_2426-gen_results/8p0m/2024-11-26-14-13-15/
 26 28 0 0 0
SMALL
GASTEIGER

@<TRIPOS>ATOM
      1 O         -28.1229   -1.3353   28.4874 O.2     1  UNL1       -0.2741
      2 C         -27.0637   -0.8242   28.8687 C.2     1  UNL1        0.2350
      3 C         -26.4017   -0.0623   28.6224 C.3     1  UNL1        0.0999
      4 N         -26.2652   -1.8674   29.7609 N.am    1  UNL1       -0.2288
      5 C         -25.0436    0.3924   29.0662 C.3     1  UNL1        0.0265
      6 C         -24.4726   -0.5445   29.9870 C.3     1  UNL1        0.1244
      7 C         -25.1332   -1.6696   30.2893 C.3     1  UNL1        0.1121
      8 C         -26.9049    1.1098   27.6518 C.ar    1  UNL1       -0.0138
      9 C         -26.1345    1.7175   26.8119 C.ar    1  UNL1       -0.0038
     10 C         -26.5551    2.4858   25.8779 C.ar    1  UNL1       -0.0003
     11 C         -27.9765    2.6663   25.6429 C.ar    1  UNL1       -0.0000
     12 C         -28.8068    1.9719   26.5087 C.ar    1  UNL1       -0.0003
     13 C         -28.3111    1.1223   27.4330 C.ar    1  UNL1       -0.0038
     14 C         -27.0724   -3.0947   30.1323 C.2     1  UNL1        0.2358
     15 C         -23.0807   -0.2273   30.4460 C.2     1  UNL1        0.3660
     16 O         -22.4472    0.7700   30.0479 O.co2   1  UNL1       -0.2456
     17 O         -22.5617   -0.9517   31.4819 O.co2   1  UNL1       -0.2456
     18 C         -28.2582   -3.0008   30.8667 C.3     1  UNL1        0.1120
     19 C         -28.9955   -4.1924   31.0107 C.ar    1  UNL1       -0.0130
     20 C         -30.2484   -4.1148   31.6065 C.ar    1  UNL1       -0.0029
     21 C         -31.1286   -5.1848   31.4945 C.ar    1  UNL1        0.0111
     22 C         -30.7642   -6.2936   30.7526 C.ar    1  UNL1        0.0577
     23 C         -29.5510   -6.2787   30.0633 C.ar    1  UNL1        0.0111
     24 C         -28.6761   -5.2314   30.1860 C.ar    1  UNL1       -0.0029
     25 CL        -31.7344   -7.6932   30.5824 Cl      1  UNL1       -0.0822
     26 O         -26.1568   -3.9829   30.4314 O.2     1  UNL1       -0.2741
@<TRIPOS>BOND
     1     1     2    2
     2     2     3    1
     3     2     4   am
     4     5     6    1
     5     4     7    1
     6     3     8    1
     7     4    14   am
     8     6    15    1
     9    15    16   ar
    10    15    17   ar
    11    14    18    1
    12    22    25    1
    13    14    26    2
    14    18    19    1
    15     3     5    1
    16     6     7    1
    17    19    20   ar
    18    20    21   ar
    19    21    22   ar
    20    22    23   ar
    21    23    24   ar
    22    24    19   ar
    23     8     9   ar
    24     9    10   ar
    25    10    11   ar
    26    11    12   ar
    27    12    13   ar
    28    13     8   ar
