@<TRIPOS>MOLECULE
No_2427-gen_results/8p0m/2024-11-26-14-13-15/
 8 7 0 0 0
SMALL
GASTEIGER

@<TRIPOS>ATOM
      1 F         -28.0727   -1.2542   28.5316 F       1  UNL1       -0.1639
      2 C         -27.3591   -0.3792   28.7224 C.3     1  UNL1        0.4697
      3 F         -26.9761   -0.0935   27.6617 F       1  UNL1       -0.1639
      4 F         -26.3178   -0.8087   29.4966 F       1  UNL1       -0.1639
      5 C         -27.9592    0.7832   29.4561 C.3     1  UNL1        0.4155
      6 F         -27.2113    1.1396   30.3401 F       1  UNL1       -0.1773
      7 F         -28.0830    1.7767   28.6890 F       1  UNL1       -0.1773
      8 CL        -29.4545    0.2415   30.1718 Cl      1  UNL1       -0.0387
@<TRIPOS>BOND
     1     1     2    1
     2     2     3    1
     3     2     4    1
     4     2     5    1
     5     5     6    1
     6     5     7    1
     7     5     8    1
