@<TRIPOS>MOLECULE
No_2429-gen_results/8p0m/2024-11-26-14-13-15/
 33 36 0 0 0
SMALL
GASTEIGER

@<TRIPOS>ATOM
      1 C         -28.0162   -0.8135   28.8779 C.ar    1  UNL1        0.0743
      2 C         -27.0636   -0.1190   28.6079 C.ar    1  UNL1        0.1485
      3 C         -26.9287    1.1713   29.0083 C.ar    1  UNL1        0.0423
      4 C         -27.9560    1.7411   29.7840 C.ar    1  UNL1        0.0614
      5 C         -29.0569   -0.3271   29.7466 C.ar    1  UNL1        0.1419
      6 C         -28.9828    0.9722   30.1516 C.ar    1  UNL1        0.0417
      7 O         -25.9911   -0.6119   27.8566 O.3     1  UNL1       -0.4534
      8 C         -24.6317   -0.3328   28.2530 C.ar    1  UNL1        0.1454
      9 C         -23.9205   -1.2516   28.9900 C.ar    1  UNL1        0.0398
     10 C         -24.0063    0.7971   27.6717 C.ar    1  UNL1        0.0398
     11 C         -22.6700    1.0498   28.0433 C.ar    1  UNL1        0.0328
     12 C         -21.9478    0.1544   28.7969 C.ar    1  UNL1        0.1403
     13 C         -22.5922   -1.0494   29.2196 C.ar    1  UNL1        0.0328
     14 F         -20.7125    0.3124   28.9939 F       1  UNL1       -0.2042
     15 O         -29.9501   -1.2612   30.1292 O.3     1  UNL1       -0.4713
     16 C         -29.6266   -2.2529   30.9177 C.3     1  UNL1        0.2525
     17 C         -27.8167    3.1793   30.1829 C.2     1  UNL1        0.2692
     18 O         -27.1298    3.8878   29.6876 O.2     1  UNL1       -0.2680
     19 N         -28.6037    3.5816   31.2477 N.am    1  UNL1       -0.1754
     20 C         -28.5584    4.9461   31.7236 C.ar    1  UNL1        0.0737
     21 C         -27.7599    5.7553   31.3741 C.ar    1  UNL1        0.0163
     22 C         -27.9727    6.9298   31.2449 C.ar    1  UNL1       -0.0012
     23 C         -29.5529    5.1590   32.7185 C.ar    1  UNL1        0.0163
     24 C         -29.7638    6.5869   32.9082 C.ar    1  UNL1       -0.0012
     25 C         -28.8990    7.5041   32.2629 C.ar    1  UNL1       -0.0005
     26 C         -29.0842    8.9521   32.4778 C.3     1  UNL1        0.1402
     27 N         -28.8734    9.3738   33.6044 N.pl3   1  UNL1       -0.2154
     28 C         -28.4250    9.1169   34.5956 C.ar    1  UNL1        0.1478
     29 C         -28.0333    9.2551   35.5603 C.ar    1  UNL1        0.0358
     30 C         -27.4995    8.3461   36.5868 C.ar    1  UNL1        0.0045
     31 C         -27.3666    7.0162   36.1742 C.ar    1  UNL1        0.0208
     32 C         -27.6465    6.6573   34.9212 C.ar    1  UNL1        0.1004
     33 N         -28.1270    7.5713   34.2952 N.ar    1  UNL1       -0.2277
@<TRIPOS>BOND
     1     2     7    1
     2     7     8    1
     3    12    14    1
     4     5    15    1
     5    15    16    1
     6     4    17    1
     7    17    18    2
     8    17    19   am
     9    19    20    1
    10    25    26    1
    11    26    27    1
    12    27    28    1
    13    28    29   ar
    14    29    30   ar
    15    30    31   ar
    16    31    32   ar
    17    32    33   ar
    18    33    28   ar
    19    20    21   ar
    20    21    22   ar
    21    22    25   ar
    22    25    24   ar
    23    24    23   ar
    24    23    20   ar
    25     1     2   ar
    26     2     3   ar
    27     3     4   ar
    28     4     6   ar
    29     6     5   ar
    30     5     1   ar
    31     8     9   ar
    32     9    13   ar
    33    13    12   ar
    34    12    11   ar
    35    11    10   ar
    36    10     8   ar
