@<TRIPOS>MOLECULE
No_243-gen_results/8p0m/2024-11-26-14-13-15/
 18 19 0 0 0
SMALL
GASTEIGER

@<TRIPOS>ATOM
      1 C         -28.0162   -0.8135   28.8779 C.ar    1  UNL1        0.0165
      2 C         -27.0636   -0.1190   28.6079 C.ar    1  UNL1        0.0704
      3 C         -26.9287    1.1713   29.0083 C.ar    1  UNL1        0.0204
      4 C         -27.9560    1.7411   29.7840 C.ar    1  UNL1        0.0727
      5 C         -29.0569   -0.3271   29.7466 C.ar    1  UNL1        0.0013
      6 C         -28.9828    0.9722   30.1516 C.ar    1  UNL1        0.0039
      7 N         -26.0660   -0.7857   27.8860 N.pl3   1  UNL1       -0.2124
      8 C         -24.6295   -0.5615   28.2005 C.ar    1  UNL1        0.0727
      9 C         -24.0002   -1.4788   29.1004 C.ar    1  UNL1        0.0166
     10 C         -23.9894    0.5086   27.5807 C.ar    1  UNL1        0.0461
     11 C         -22.6416    0.7525   28.0274 C.ar    1  UNL1        0.1414
     12 C         -21.9583   -0.1034   28.8874 C.ar    1  UNL1        0.0297
     13 C         -22.6831   -1.2317   29.4198 C.ar    1  UNL1        0.0036
     14 F         -21.9263    1.7828   27.5600 F       1  UNL1       -0.2041
     15 C         -27.8271    3.1903   30.2061 C.3     1  UNL1        0.4186
     16 F         -28.4292    3.6286   31.1209 F       1  UNL1       -0.1659
     17 F         -28.1077    3.9881   29.0767 F       1  UNL1       -0.1659
     18 F         -26.4799    3.4478   30.4181 F       1  UNL1       -0.1659
@<TRIPOS>BOND
     1     2     7    1
     2     7     8    1
     3    11    14    1
     4     4    15    1
     5    15    16    1
     6    15    17    1
     7    15    18    1
     8     1     2   ar
     9     2     3   ar
    10     3     4   ar
    11     4     6   ar
    12     6     5   ar
    13     5     1   ar
    14     8     9   ar
    15     9    13   ar
    16    13    12   ar
    17    12    11   ar
    18    11    10   ar
    19    10     8   ar
