@<TRIPOS>MOLECULE
No_2431-gen_results/8p0m/2024-11-26-14-13-15/
 34 37 0 0 0
SMALL
GASTEIGER

@<TRIPOS>ATOM
      1 O         -28.1229   -1.3353   28.4874 O.2     1  UNL1       -0.2699
      2 C         -27.4806   -0.4044   28.7094 C.2     1  UNL1        0.2485
      3 C         -26.3804   -0.0867   27.9395 C.ar    1  UNL1        0.0473
      4 N         -27.6664    0.4468   29.8988 N.am    1  UNL1       -0.2755
      5 C         -26.4086    0.8567   26.8802 C.ar    1  UNL1       -0.0019
      6 C         -25.2466    1.1198   26.1102 C.ar    1  UNL1       -0.0028
      7 C         -23.9991    0.7500   26.5964 C.ar    1  UNL1       -0.0006
      8 C         -23.9411    0.0388   27.7865 C.ar    1  UNL1       -0.0038
      9 C         -25.0420   -0.3844   28.4675 C.ar    1  UNL1       -0.0146
     10 C         -26.9428    1.5560   30.3196 C.3     1  UNL1        0.1049
     11 C         -26.9481    1.7681   31.5181 C.3     1  UNL1        0.1232
     12 C         -27.7737    1.2391   32.5150 C.3     1  UNL1        0.0147
     13 C         -28.4380    0.0748   32.1015 C.3     1  UNL1        0.0221
     14 C         -28.3594   -0.3964   30.8345 C.3     1  UNL1        0.0937
     15 C         -27.6981    1.1766   26.4170 C.3     1  UNL1        0.1039
     16 N         -28.0230    2.3790   26.7366 N.3     1  UNL1       -0.2133
     17 C         -28.8478    2.9179   27.3571 C.3     1  UNL1        0.2893
     18 F         -29.6681    2.2212   27.9233 F       1  UNL1       -0.1998
     19 N         -29.0050    4.2462   27.5834 N.3     1  UNL1       -0.2198
     20 C         -27.0679    3.4595   26.0683 C.3     1  UNL1        0.1683
     21 C         -29.9895    4.8547   28.4618 C.3     1  UNL1        0.0771
     22 C         -28.0937    5.0896   26.9957 C.3     1  UNL1        0.1365
     23 N         -27.1504    4.7078   26.2398 N.3     1  UNL1       -0.1858
     24 C         -26.2638    3.1198   31.9538 C.2     1  UNL1        0.3660
     25 O         -26.3804    3.4881   33.0541 O.co2   1  UNL1       -0.2456
     26 O         -25.4106    3.6430   31.0916 O.co2   1  UNL1       -0.2456
     27 C         -30.2492    5.9728   28.4100 C.3     1  UNL1        0.0176
     28 C         -29.3204    6.9521   27.8290 C.3     1  UNL1        0.0043
     29 C         -28.2803    6.5767   27.0392 C.3     1  UNL1        0.0343
     30 C         -24.7866   -1.2411   29.6229 C.3     1  UNL1        0.0407
     31 C         -24.5376   -2.6320   29.3771 C.3     1  UNL1        0.0091
     32 C         -24.7173   -0.7679   30.9414 C.2     1  UNL1       -0.0402
     33 C         -23.9262    0.2499   31.4578 C.2     1  UNL1       -0.0088
     34 C         -25.6192   -1.4544   31.9155 C.3     1  UNL1        0.0267
@<TRIPOS>BOND
     1     1     2    2
     2     2     3    1
     3     2     4   am
     4     4    10    1
     5    11    12    1
     6     4    14    1
     7    13    14    1
     8     5    15    1
     9    15    16    1
    10    16    17    1
    11    17    18    1
    12    17    19    1
    13    16    20    1
    14    19    21    1
    15    19    22    1
    16    22    23    1
    17    11    24    1
    18    24    25   ar
    19    24    26   ar
    20    27    28    1
    21    22    29    1
    22     9    30    1
    23    30    31    1
    24    30    32    1
    25    32    33    2
    26    32    34    1
    27    10    11    1
    28    12    13    1
    29    20    23    1
    30    21    27    1
    31    28    29    1
    32     3     5   ar
    33     5     6   ar
    34     6     7   ar
    35     7     8   ar
    36     8     9   ar
    37     9     3   ar
