@<TRIPOS>MOLECULE
No_2433-gen_results/8p0m/2024-11-26-14-13-15/
 20 21 0 0 0
SMALL
GASTEIGER

@<TRIPOS>ATOM
      1 F         -28.0727   -1.2542   28.5316 F       1  UNL1       -0.2018
      2 C         -28.2662   -0.4214   29.1931 C.ar    1  UNL1        0.1673
      3 C         -29.4445    0.0759   29.3394 C.ar    1  UNL1        0.1676
      4 C         -29.7073    1.1743   30.2277 C.ar    1  UNL1        0.0385
      5 C         -28.5970    1.7109   30.9109 C.ar    1  UNL1        0.0821
      6 C         -27.3024    1.1821   30.7905 C.ar    1  UNL1        0.0090
      7 C         -27.1217    0.1218   29.9802 C.ar    1  UNL1        0.0299
      8 C         -25.7978   -0.4263   29.8450 C.ar    1  UNL1        0.0024
      9 C         -25.4921   -1.6638   29.8157 C.ar    1  UNL1        0.0001
     10 C         -24.1816   -2.1791   29.6201 C.ar    1  UNL1        0.0001
     11 C         -23.1502   -1.2714   29.5340 C.ar    1  UNL1        0.0046
     12 C         -23.3941    0.0867   29.4837 C.ar    1  UNL1        0.0567
     13 C         -24.7307    0.5132   29.6899 C.ar    1  UNL1        0.0047
     14 C         -22.2906    1.0324   29.4000 C.2     1  UNL1        0.2842
     15 N         -21.2814    0.5627   28.5526 N.am    1  UNL1       -0.0837
     16 F         -30.4539   -0.4231   28.7094 F       1  UNL1       -0.2018
     17 O         -22.3277    2.1712   29.7351 O.2     1  UNL1       -0.2667
     18 C         -28.8229    2.8706   31.8826 C.2     1  UNL1        0.3878
     19 O         -29.7101    3.2675   32.3365 O.co2   1  UNL1       -0.2406
     20 O         -27.6064    3.1868   32.4333 O.co2   1  UNL1       -0.2406
@<TRIPOS>BOND
     1     1     2    1
     2     7     8    1
     3    12    14    1
     4    14    15   am
     5     3    16    1
     6    14    17    2
     7     5    18    1
     8    18    19   ar
     9    18    20   ar
    10     2     3   ar
    11     3     4   ar
    12     4     5   ar
    13     5     6   ar
    14     6     7   ar
    15     7     2   ar
    16     8     9   ar
    17     9    10   ar
    18    10    11   ar
    19    11    12   ar
    20    12    13   ar
    21    13     8   ar
