@<TRIPOS>MOLECULE
No_2434-gen_results/8p0m/2024-11-26-14-13-15/
 33 36 0 0 0
SMALL
GASTEIGER

@<TRIPOS>ATOM
      1 C         -28.0162   -0.8135   28.8779 C.3     1  UNL1        0.1214
      2 C         -27.0636   -0.1189   28.6079 C.ar    1  UNL1       -0.0050
      3 C         -25.7923   -0.4302   29.0761 C.ar    1  UNL1       -0.0076
      4 C         -24.5456    0.3494   28.8225 C.ar    1  UNL1        0.0006
      5 C         -24.6586    1.4196   27.8878 C.ar    1  UNL1        0.0711
      6 C         -25.9471    1.6811   27.3792 C.ar    1  UNL1        0.0036
      7 C         -27.0439    0.9739   27.6871 C.ar    1  UNL1       -0.0027
      8 N         -28.6567   -0.5529   30.0960 N.am    1  UNL1       -0.2587
      9 C         -28.5841    0.2508   30.7384 C.3     1  UNL1        0.0972
     10 C         -29.3702    0.2374   32.0976 C.3     1  UNL1        0.0450
     11 C         -29.4781   -1.8037   30.6035 C.2     1  UNL1        0.3235
     12 O         -29.5187   -2.7392   29.8803 O.2     1  UNL1       -0.2508
     13 N         -30.0632   -1.8199   31.7995 N.am    1  UNL1       -0.1884
     14 C         -29.9880   -0.7569   32.5811 C.3     1  UNL1        0.1185
     15 C         -23.4467    2.1303   27.5327 C.3     1  UNL1        0.4186
     16 F         -23.5779    3.2033   26.9622 F       1  UNL1       -0.1659
     17 F         -22.5544    1.3547   26.7488 F       1  UNL1       -0.1659
     18 F         -22.6848    2.4088   28.6767 F       1  UNL1       -0.1659
     19 C         -28.3160    1.3787   27.0279 C.ar    1  UNL1        0.0002
     20 C         -28.9990    2.3590   27.6475 C.ar    1  UNL1        0.0067
     21 C         -30.3296    2.6689   27.2622 C.ar    1  UNL1        0.0346
     22 C         -28.7392    0.7754   25.8921 C.ar    1  UNL1        0.0000
     23 C         -30.0324    1.0658   25.4198 C.ar    1  UNL1        0.0005
     24 C         -30.7814    2.0627   26.0691 C.ar    1  UNL1        0.0067
     25 C         -25.4621   -1.5646   30.0425 C.3     1  UNL1        0.1308
     26 CL        -25.9526   -1.5986   31.4815 Cl      1  UNL1       -0.1077
     27 C         -24.9415   -2.7658   29.3928 C.3     1  UNL1        0.1746
     28 C         -25.6246   -3.9983   29.3580 C.2     1  UNL1        0.1414
     29 N         -24.9805   -5.0458   28.8397 N.2     1  UNL1       -0.2151
     30 C         -23.7867   -4.5592   28.3736 C.2     1  UNL1        0.1951
     31 N         -23.7818   -3.2289   28.7854 N.2     1  UNL1       -0.2434
     32 CL        -27.2746   -4.2038   30.0137 Cl      1  UNL1       -0.0640
     33 BR        -31.3992    3.9693   28.0916 Br      1  UNL1       -0.0490
@<TRIPOS>BOND
     1     1     2    1
     2     1     8    1
     3     8     9    1
     4     8    11   am
     5    11    12    2
     6    11    13   am
     7    10    14    1
     8     5    15    1
     9    15    16    1
    10    15    17    1
    11    15    18    1
    12     7    19    1
    13     3    25    1
    14    25    26    1
    15    25    27    1
    16    27    28    1
    17    28    29    2
    18    29    30    1
    19    27    31    1
    20    30    31    2
    21    28    32    1
    22    21    33    1
    23     9    10    1
    24    14    13    1
    25     2     3   ar
    26     3     4   ar
    27     4     5   ar
    28     5     6   ar
    29     6     7   ar
    30     7     2   ar
    31    19    20   ar
    32    20    21   ar
    33    21    24   ar
    34    24    23   ar
    35    23    22   ar
    36    22    19   ar
