@<TRIPOS>MOLECULE
No_2435-gen_results/8p0m/2024-11-26-14-13-15/
 12 13 0 0 0
SMALL
GASTEIGER

@<TRIPOS>ATOM
      1 O         -28.1229   -1.3353   28.4874 O.2     1  UNL1       -0.2730
      2 C         -27.4806   -0.4044   28.7094 C.2     1  UNL1        0.2461
      3 C         -26.3804   -0.0867   27.9394 C.3     1  UNL1        0.1129
      4 N         -27.4232    0.1749   30.0549 N.am    1  UNL1       -0.2003
      5 C         -25.4065    0.7421   28.2860 C.ar    1  UNL1       -0.0145
      6 C         -25.5431    1.4795   29.5328 C.ar    1  UNL1       -0.0040
      7 C         -26.5322    1.0821   30.4010 C.3     1  UNL1        0.1412
      8 C         -24.3170    1.2191   27.4105 C.ar    1  UNL1        0.0074
      9 C         -23.0559    1.4620   27.9702 C.ar    1  UNL1        0.0574
     10 C         -22.9988    1.8330   29.3592 C.ar    1  UNL1        0.0111
     11 C         -24.1660    1.6858   30.1935 C.ar    1  UNL1       -0.0020
     12 CL        -21.7082    1.9442   27.0695 Cl      1  UNL1       -0.0823
@<TRIPOS>BOND
     1     1     2    2
     2     2     3    1
     3     2     4   am
     4     3     5    1
     5     6     7    1
     6     9    12    1
     7     7     4    1
     8     5     8   ar
     9     8     9   ar
    10     9    10   ar
    11    10    11   ar
    12    11     6   ar
    13     6     5   ar
