@<TRIPOS>MOLECULE
No_2436-gen_results/8p0m/2024-11-26-14-13-15/
 14 16 0 0 0
SMALL
GASTEIGER

@<TRIPOS>ATOM
      1 C         -28.0162   -0.8135   28.8779 C.ar    1  UNL1        0.0000
      2 C         -28.4690   -0.7850   29.8287 C.ar    1  UNL1        0.0000
      3 C         -26.5042   -0.7777   28.8766 C.ar    1  UNL1        0.0000
      4 C         -25.6540   -0.6597   27.7191 C.ar    1  UNL1        0.0000
      5 C         -29.9920   -0.8134   29.9579 C.ar    1  UNL1        0.0000
      6 C         -24.2351   -0.6217   27.9719 C.ar    1  UNL1        0.0000
      7 C         -23.7091   -0.7791   29.2532 C.ar    1  UNL1        0.0000
      8 C         -24.4887   -0.9098   30.3453 C.ar    1  UNL1        0.0000
      9 C         -25.8453   -0.9368   30.1856 C.ar    1  UNL1        0.0000
     10 C         -30.6404   -1.1320   31.1021 C.ar    1  UNL1        0.0000
     11 C         -29.8841   -1.2504   32.3094 C.ar    1  UNL1        0.0000
     12 C         -28.5535   -1.2624   32.3236 C.ar    1  UNL1        0.0000
     13 C         -27.8586   -1.1347   31.1950 C.ar    1  UNL1        0.0000
     14 C         -26.4947   -1.1310   31.1724 C.ar    1  UNL1        0.0000
@<TRIPOS>BOND
     1     3     4   ar
     2     4     6   ar
     3     6     7   ar
     4     7     8   ar
     5     8     9   ar
     6     1     2   ar
     7    13    14   ar
     8    14     9   ar
     9     9     3   ar
    10     3     1   ar
    11     2     5   ar
    12     5    10   ar
    13    10    11   ar
    14    11    12   ar
    15    12    13   ar
    16    13     2   ar
