@<TRIPOS>MOLECULE
No_2437-gen_results/8p0m/2024-11-26-14-13-15/
 30 34 0 0 0
SMALL
GASTEIGER

@<TRIPOS>ATOM
      1 C         -28.0162   -0.8135   28.8779 C.ar    1  UNL1        0.0044
      2 C         -27.0636   -0.1190   28.6079 C.ar    1  UNL1        0.0365
      3 C         -27.0010    0.6913   27.4910 C.ar    1  UNL1        0.0012
      4 C         -28.1373    0.7363   26.6350 C.ar    1  UNL1        0.0164
      5 C         -29.2360    0.0765   27.0690 C.ar    1  UNL1        0.0810
      6 C         -29.2177   -0.6429   28.1747 C.ar    1  UNL1        0.0179
      7 N         -30.3516    0.1564   26.2430 N.ar    1  UNL1       -0.2437
      8 C         -31.4313   -0.4312   26.5996 C.ar    1  UNL1        0.1034
      9 C         -31.4825   -1.1210   27.8409 C.ar    1  UNL1        0.0745
     10 C         -30.4093   -1.2929   28.5803 C.ar    1  UNL1        0.0076
     11 C         -32.8019   -1.8248   28.1893 C.2     1  UNL1        0.2705
     12 C         -25.6918    1.3945   27.1009 C.3     1  UNL1        0.1245
     13 C         -24.6206    0.9498   27.7791 C.ar    1  UNL1       -0.0003
     14 C         -23.3598    1.7363   27.5831 C.ar    1  UNL1       -0.0027
     15 C         -22.2004    1.4232   28.4067 C.ar    1  UNL1       -0.0003
     16 C         -22.2302    0.2922   29.2288 C.ar    1  UNL1        0.0001
     17 C         -23.3678   -0.4666   29.3804 C.ar    1  UNL1        0.0029
     18 C         -24.5276   -0.1517   28.6456 C.ar    1  UNL1        0.0364
     19 C         -25.7290   -0.5263   29.2086 C.2     1  UNL1        0.1950
     20 O         -25.7998   -1.4339   30.1229 O.2     1  UNL1       -0.2866
     21 CL        -25.7077    2.5247   25.8523 Cl      1  UNL1       -0.1053
     22 N         -33.1817   -1.8132   29.4228 N.am    1  UNL1       -0.1741
     23 C         -34.0499   -2.4112   29.9272 C.2     1  UNL1        0.0889
     24 O         -33.1931   -2.7601   27.4845 O.2     1  UNL1       -0.2680
     25 C         -33.7884   -3.5496   30.6744 C.ar    1  UNL1        0.0166
     26 C         -34.7724   -4.3621   31.2521 C.ar    1  UNL1        0.0013
     27 C         -34.4544   -5.5196   31.9649 C.ar    1  UNL1        0.0000
     28 C         -33.0866   -5.9105   32.0734 C.ar    1  UNL1        0.0000
     29 C         -32.0628   -5.1514   31.4542 C.ar    1  UNL1        0.0000
     30 C         -32.4382   -3.9761   30.7666 C.ar    1  UNL1        0.0013
@<TRIPOS>BOND
     1     9    11    1
     2     3    12    1
     3    12    13    1
     4     2    19    1
     5    18    19    1
     6    19    20    2
     7    12    21    1
     8    11    22    1
     9    22    23    2
    10    11    24    2
    11    23    25    1
    12     1     2   ar
    13     2     3   ar
    14     3     4   ar
    15     4     5   ar
    16     6     1   ar
    17    25    26   ar
    18    26    27   ar
    19    27    28   ar
    20    28    29   ar
    21    29    30   ar
    22    30    25   ar
    23    13    14   ar
    24    14    15   ar
    25    15    16   ar
    26    16    17   ar
    27    17    18   ar
    28    18    13   ar
    29     5     6   ar
    30     6    10   ar
    31    10     9   ar
    32     9     8   ar
    33     8     7   ar
    34     7     5   ar
