@<TRIPOS>MOLECULE
No_2438-gen_results/8p0m/2024-11-26-14-13-15/
 22 24 0 0 0
SMALL
GASTEIGER

@<TRIPOS>ATOM
      1 C         -28.0162   -0.8135   28.8779 C.ar    1  UNL1        0.0066
      2 C         -27.0636   -0.1189   28.6079 C.ar    1  UNL1        0.0002
      3 C         -25.7923   -0.4302   29.0761 C.ar    1  UNL1        0.0001
      4 C         -24.5456    0.3494   28.8225 C.ar    1  UNL1        0.0030
      5 C         -24.6586    1.4196   27.8878 C.ar    1  UNL1        0.0375
      6 C         -23.5403    2.1791   27.5500 C.ar    1  UNL1        0.1453
      7 C         -22.2925    1.7429   28.0473 C.ar    1  UNL1        0.0375
      8 C         -22.1712    0.7080   28.9284 C.ar    1  UNL1        0.0031
      9 C         -23.3345   -0.0624   29.3081 C.ar    1  UNL1        0.0002
     10 C         -27.9466   -1.8823   29.8708 C.ar    1  UNL1        0.0798
     11 C         -26.7159   -2.3287   30.3060 C.ar    1  UNL1        0.0066
     12 C         -25.5921   -1.5643   29.9672 C.ar    1  UNL1        0.0002
     13 C         -29.1228   -2.6879   30.2451 C.2     1  UNL1        0.3878
     14 O         -29.4011   -2.7388   31.5076 O.co2   1  UNL1       -0.2406
     15 O         -30.0162   -3.0054   29.5024 O.co2   1  UNL1       -0.2406
     16 O         -23.6464    3.1736   26.6958 O.3     1  UNL1       -0.4535
     17 C         -25.0008    3.7295   26.5676 C.ar    1  UNL1        0.1453
     18 C         -25.8741    3.0575   25.9729 C.ar    1  UNL1        0.0375
     19 C         -27.1668    3.7126   25.9297 C.ar    1  UNL1        0.0031
     20 C         -27.3949    4.8903   26.4976 C.ar    1  UNL1        0.0002
     21 C         -25.1824    5.0161   27.1593 C.ar    1  UNL1        0.0375
     22 C         -26.3638    5.6068   27.1264 C.ar    1  UNL1        0.0031
@<TRIPOS>BOND
     1     3     4    1
     2    10    13    1
     3    13    14   ar
     4    13    15   ar
     5     6    16    1
     6    16    17    1
     7    17    18   ar
     8    18    19   ar
     9    19    20   ar
    10    20    22   ar
    11    22    21   ar
    12    21    17   ar
    13     1     2   ar
    14     2     3   ar
    15     3    12   ar
    16    12    11   ar
    17    11    10   ar
    18    10     1   ar
    19     4     5   ar
    20     5     6   ar
    21     6     7   ar
    22     7     8   ar
    23     8     9   ar
    24     9     4   ar
