@<TRIPOS>MOLECULE
No_2439-gen_results/8p0m/2024-11-26-14-13-15/
 20 22 0 0 0
SMALL
GASTEIGER

@<TRIPOS>ATOM
      1 C         -28.0162   -0.8135   28.8779 C.ar    1  UNL1       -0.0000
      2 C         -28.4690   -0.7850   29.8287 C.ar    1  UNL1       -0.0000
      3 C         -27.1356    0.2359   28.5352 C.ar    1  UNL1       -0.0003
      4 C         -26.8745    1.2825   29.3982 C.ar    1  UNL1       -0.0000
      5 C         -28.3613    0.1987   30.9244 C.ar    1  UNL1       -0.0000
      6 C         -27.5277    1.2234   30.6356 C.ar    1  UNL1       -0.0000
      7 C         -26.3987    0.2949   27.2279 C.ar    1  UNL1       -0.0034
      8 C         -26.9022    0.7280   26.2134 C.ar    1  UNL1       -0.0003
      9 C         -26.1747    0.6364   24.9259 C.ar    1  UNL1       -0.0000
     10 C         -25.0769   -0.2067   27.2393 C.ar    1  UNL1       -0.0146
     11 C         -24.2656   -0.1217   26.1499 C.ar    1  UNL1       -0.0036
     12 C         -24.8747    0.2819   24.9272 C.ar    1  UNL1       -0.0003
     13 C         -24.4075   -0.6566   28.5073 C.3     1  UNL1        0.0629
     14 C         -23.4554   -0.8332   29.0517 C.2     1  UNL1       -0.0180
     15 C         -23.1737   -1.4385   30.2392 C.2     1  UNL1       -0.0045
     16 C         -24.3945   -1.5873   30.9325 C.2     1  UNL1       -0.0077
     17 C         -25.4479   -1.0625   29.6531 C.2     1  UNL1       -0.0287
     18 C         -25.7469   -2.5465   29.3482 C.3     1  UNL1        0.0948
     19 C         -25.2874   -3.4853   30.3661 C.2     1  UNL1        0.2118
     20 O         -24.7686   -2.9682   31.1958 O.2     1  UNL1       -0.2879
@<TRIPOS>BOND
     1     3     7    1
     2    10    13    1
     3    13    14    1
     4    14    15    2
     5    15    16    1
     6    13    17    1
     7    16    17    2
     8    17    18    1
     9    18    19    1
    10    19    20    2
    11     1     2   ar
    12     2     5   ar
    13     5     6   ar
    14     6     4   ar
    15     4     3   ar
    16     3     1   ar
    17     7     8   ar
    18     8     9   ar
    19     9    12   ar
    20    12    11   ar
    21    11    10   ar
    22    10     7   ar
