@<TRIPOS>MOLECULE
No_244-gen_results/8p0m/2024-11-26-14-13-15/
 18 20 0 0 0
SMALL
GASTEIGER

@<TRIPOS>ATOM
      1 C         -28.0162   -0.8135   28.8779 C.ar    1  UNL1        0.0032
      2 C         -28.4690   -0.7850   29.8287 C.ar    1  UNL1        0.0001
      3 C         -27.1356    0.2359   28.5352 C.ar    1  UNL1        0.0390
      4 C         -26.3351    0.2900   27.2835 C.2     1  UNL1        0.1955
      5 C         -28.3692    0.1957   30.9236 C.ar    1  UNL1        0.0000
      6 C         -27.5158    1.2655   30.6540 C.ar    1  UNL1        0.0001
      7 C         -26.8411    1.2942   29.4761 C.ar    1  UNL1        0.0032
      8 C         -25.3614    0.7751   26.9672 C.ar    1  UNL1        0.0389
      9 C         -24.5345    1.1332   27.4189 C.ar    1  UNL1        0.0031
     10 C         -23.3042    1.8381   26.9053 C.ar    1  UNL1        0.0001
     11 C         -22.1944    2.2796   27.6897 C.ar    1  UNL1        0.0000
     12 C         -22.1299    1.3793   28.8008 C.ar    1  UNL1        0.0000
     13 C         -23.0741    0.6917   29.4247 C.ar    1  UNL1        0.0000
     14 C         -24.1585    0.4586   28.8031 C.ar    1  UNL1        0.0001
     15 C         -25.2482    0.9773   25.3758 C.ar    1  UNL1        0.0032
     16 C         -23.3911    2.3281   25.6271 C.ar    1  UNL1        0.0000
     17 C         -24.3546    1.7900   24.8631 C.ar    1  UNL1        0.0001
     18 O         -27.2731   -0.3797   26.3936 O.2     1  UNL1       -0.2866
@<TRIPOS>BOND
     1     3     4    1
     2     4     8    1
     3     4    18    2
     4    10    11   ar
     5    11    12   ar
     6    12    13   ar
     7    13    14   ar
     8    14     9   ar
     9     8     9   ar
    10     9    10   ar
    11    10    16   ar
    12    16    17   ar
    13    17    15   ar
    14    15     8   ar
    15     1     2   ar
    16     2     5   ar
    17     5     6   ar
    18     6     7   ar
    19     7     3   ar
    20     3     1   ar
