@<TRIPOS>MOLECULE
No_2440-gen_results/8p0m/2024-11-26-14-13-15/
 28 29 0 0 0
SMALL
GASTEIGER

@<TRIPOS>ATOM
      1 C         -28.0162   -0.8135   28.8779 C.ar    1  UNL1        0.1769
      2 C         -27.0636   -0.1189   28.6079 C.ar    1  UNL1        0.1746
      3 C         -25.7923   -0.4302   29.0761 C.ar    1  UNL1        0.0307
      4 C         -25.5756   -1.5654   29.9363 C.ar    1  UNL1        0.0033
      5 C         -26.7354   -2.3004   30.2173 C.ar    1  UNL1        0.0146
      6 C         -27.9184   -1.9537   29.7629 C.ar    1  UNL1        0.0938
      7 CL        -29.2678   -2.8890   30.2152 Cl      1  UNL1       -0.0790
      8 F         -27.1316    1.0004   27.8714 F       1  UNL1       -0.2009
      9 C         -24.5169    0.3503   28.7511 C.ar    1  UNL1        0.0053
     10 C         -24.3486    1.1722   27.8436 C.ar    1  UNL1        0.0370
     11 C         -23.1076    1.8299   27.5882 C.ar    1  UNL1        0.1387
     12 C         -21.9497    1.3727   28.2661 C.ar    1  UNL1        0.0369
     13 C         -23.2955   -0.0964   29.4823 C.ar    1  UNL1        0.0003
     14 C         -22.0461    0.5230   29.2186 C.ar    1  UNL1        0.0031
     15 O         -23.0342    2.7536   26.5842 O.3     1  UNL1       -0.4714
     16 C         -24.2537    3.0897   26.0588 C.3     1  UNL1        0.2525
     17 O         -29.3457   -0.6384   28.6262 O.3     1  UNL1       -0.4624
     18 C         -29.9276    0.5327   28.9643 C.3     1  UNL1        0.2913
     19 C         -31.1969    0.5299   28.9073 C.2     1  UNL1        0.2862
     20 O         -31.8290   -0.3853   28.6581 O.2     1  UNL1       -0.2693
     21 N         -31.9043    1.7452   29.2108 N.am    1  UNL1       -0.1974
     22 C         -33.3403    1.8627   29.2044 C.3     1  UNL1        0.1413
     23 C         -34.0522    1.2348   29.8018 C.2     1  UNL1       -0.0029
     24 C         -33.8689    1.0657   31.1824 C.2     1  UNL1       -0.0028
     25 C         -34.7547    0.2085   32.0361 C.2     1  UNL1       -0.0003
     26 C         -34.5021    0.1269   33.4237 C.2     1  UNL1       -0.0000
     27 C         -33.3729    0.7593   33.9670 C.2     1  UNL1       -0.0000
     28 C         -32.5127    1.5000   33.1751 C.2     1  UNL1       -0.0000
@<TRIPOS>BOND
     1     6     7    1
     2     2     8    1
     3     3     9    1
     4    11    15    1
     5    15    16    1
     6     1    17    1
     7    17    18    1
     8    18    19    1
     9    19    20    2
    10    19    21   am
    11    21    22    1
    12    22    23    1
    13    23    24    2
    14    24    25    1
    15    25    26    2
    16    26    27    1
    17    27    28    2
    18     1     2   ar
    19     2     3   ar
    20     3     4   ar
    21     4     5   ar
    22     5     6   ar
    23     6     1   ar
    24     9    10   ar
    25    10    11   ar
    26    11    12   ar
    27    12    14   ar
    28    14    13   ar
    29    13     9   ar
