@<TRIPOS>MOLECULE
No_2441-gen_results/8p0m/2024-11-26-14-13-15/
 14 15 0 0 0
SMALL
GASTEIGER

@<TRIPOS>ATOM
      1 O         -28.1229   -1.3353   28.4874 O.2     1  UNL1       -0.2684
      2 C         -27.0637   -0.8242   28.8687 C.2     1  UNL1        0.2645
      3 C         -26.4017   -0.0623   28.6224 C.ar    1  UNL1        0.0513
      4 N         -26.5721   -1.5844   30.1172 N.am    1  UNL1       -0.2013
      5 C         -25.0209    0.3561   29.0444 C.ar    1  UNL1       -0.0096
      6 C         -24.6541   -0.3468   30.2523 C.3     1  UNL1        0.0501
      7 C         -25.4243   -1.3432   30.6966 C.3     1  UNL1        0.1201
      8 C         -26.6993    0.8154   27.3435 C.ar    1  UNL1        0.0043
      9 C         -25.8211    1.5527   26.7172 C.ar    1  UNL1        0.0003
     10 C         -24.5526    1.9190   27.3303 C.ar    1  UNL1        0.0063
     11 C         -24.1132    1.2417   28.4594 C.ar    1  UNL1        0.0760
     12 C         -22.7813    1.5122   28.9535 C.2     1  UNL1        0.3874
     13 O         -21.8806    1.9097   28.0981 O.co2   1  UNL1       -0.2406
     14 O         -22.5529    1.5677   30.2161 O.co2   1  UNL1       -0.2406
@<TRIPOS>BOND
     1     1     2    2
     2     2     3    1
     3     2     4   am
     4     6     7    1
     5    11    12    1
     6    12    13   ar
     7    12    14   ar
     8     5     6    1
     9     7     4    1
    10     3     5   ar
    11     5    11   ar
    12    11    10   ar
    13    10     9   ar
    14     9     8   ar
    15     8     3   ar
