@<TRIPOS>MOLECULE
No_2442-gen_results/8p0m/2024-11-26-14-13-15/
 12 11 0 0 0
SMALL
GASTEIGER

@<TRIPOS>ATOM
      1 C         -28.0162   -0.8135   28.8779 C.3     1  UNL1        0.0915
      2 C         -27.0636   -0.1190   28.6079 C.2     1  UNL1        0.2418
      3 O         -25.8586   -0.4060   28.9035 O.2     1  UNL1       -0.2733
      4 N         -27.1834    1.0379   27.7428 N.am    1  UNL1       -0.2035
      5 C         -28.6671   -0.3519   30.2001 C.3     1  UNL1        0.0356
      6 C         -28.4134    0.2825   30.9306 C.2     1  UNL1       -0.0256
      7 C         -26.0647    1.6962   27.1750 C.3     1  UNL1        0.1385
      8 C         -28.4399    0.8515   31.8444 C.2     1  UNL1       -0.0046
      9 C         -28.8350    0.8636   33.0907 C.2     1  UNL1       -0.0003
     10 C         -28.6422    1.8286   34.1432 C.2     1  UNL1       -0.0000
     11 C         -27.8726    2.9619   33.8177 C.2     1  UNL1       -0.0000
     12 C         -27.2930    3.0788   32.5348 C.2     1  UNL1       -0.0000
@<TRIPOS>BOND
     1     1     2    1
     2     2     3    2
     3     2     4   am
     4     1     5    1
     5     5     6    1
     6     4     7    1
     7     6     8    2
     8     8     9    1
     9     9    10    2
    10    10    11    1
    11    11    12    2
