@<TRIPOS>MOLECULE
No_2443-gen_results/8p0m/2024-11-26-14-13-15/
 20 21 0 0 0
SMALL
GASTEIGER

@<TRIPOS>ATOM
      1 O         -28.1229   -1.3353   28.4874 O.2     1  UNL1       -0.2733
      2 C         -27.0637   -0.8242   28.8687 C.2     1  UNL1        0.2427
      3 C         -26.9592    0.0926   29.7582 C.3     1  UNL1        0.1003
      4 N         -25.8184   -1.0917   28.1701 N.am    1  UNL1       -0.2048
      5 C         -25.7390    0.7178   30.2339 C.3     1  UNL1        0.0229
      6 C         -24.5979   -0.5764   28.5263 C.3     1  UNL1        0.1263
      7 C         -24.5141    0.3428   29.5346 C.3     1  UNL1        0.1255
      8 C         -23.2442    0.9170   29.8880 C.2     1  UNL1        0.3661
      9 O         -22.1743    0.4203   29.3925 O.co2   1  UNL1       -0.2456
     10 O         -23.1680    1.9940   30.6123 O.co2   1  UNL1       -0.2456
     11 C         -28.1613    0.4213   30.5820 C.3     1  UNL1        0.1213
     12 N         -28.2749    1.4339   31.1797 N.pl3   1  UNL1       -0.2357
     13 C         -27.5218    2.3594   31.1307 C.ar    1  UNL1        0.0820
     14 C         -27.7128    3.6961   31.8658 C.ar    1  UNL1        0.0175
     15 C         -26.8845    4.7122   31.8005 C.ar    1  UNL1        0.0014
     16 C         -25.6745    4.6638   31.0507 C.ar    1  UNL1        0.0015
     17 C         -25.4567    3.4940   30.3789 C.ar    1  UNL1        0.0194
     18 C         -26.3028    2.5798   30.4879 C.ar    1  UNL1        0.1038
     19 N         -26.8854    2.4947   29.0136 N.pl3   1  UNL1       -0.1267
     20 C         -25.4669    0.3514   31.8095 C.3     1  UNL1        0.0012
@<TRIPOS>BOND
     1     1     2    2
     2     2     3    1
     3     2     4   am
     4     4     6    1
     5     5     7    1
     6     6     7    1
     7     7     8    1
     8     8     9   ar
     9     8    10   ar
    10     3    11    1
    11    11    12    1
    12    12    13    1
    13    18    19    1
    14     5    20    1
    15     3     5    1
    16    13    14   ar
    17    14    15   ar
    18    15    16   ar
    19    16    17   ar
    20    17    18   ar
    21    18    13   ar
