@<TRIPOS>MOLECULE
No_2444-gen_results/8p0m/2024-11-26-14-13-15/
 10 9 0 0 0
SMALL
GASTEIGER

@<TRIPOS>ATOM
      1 C         -28.0162   -0.8135   28.8779 C.3     1  UNL1        0.0047
      2 C         -28.4690   -0.7850   29.8287 C.3     1  UNL1        0.0004
      3 C         -26.5042   -0.7777   28.8766 C.3     1  UNL1        0.0257
      4 C         -25.7622   -0.0022   27.9705 C.2     1  UNL1       -0.0304
      5 C         -24.3914    0.1198   28.1381 C.2     1  UNL1       -0.0260
      6 C         -23.5447    1.0260   27.3824 C.3     1  UNL1        0.0517
      7 C         -22.2254    1.3236   27.7840 C.2     1  UNL1       -0.0214
      8 C         -21.5761    0.4572   28.6807 C.2     1  UNL1       -0.0042
      9 C         -22.3236   -0.5619   29.3159 C.2     1  UNL1       -0.0003
     10 C         -23.6595   -0.6732   29.0841 C.2     1  UNL1       -0.0000
@<TRIPOS>BOND
     1     1     2    1
     2     1     3    1
     3     3     4    1
     4     4     5    2
     5     5     6    1
     6     6     7    1
     7     7     8    2
     8     8     9    1
     9     9    10    2
