@<TRIPOS>MOLECULE
No_2445-gen_results/8p0m/2024-11-26-14-13-15/
 15 15 0 0 0
SMALL
GASTEIGER

@<TRIPOS>ATOM
      1 C         -28.0162   -0.8135   28.8779 C.ar    1  UNL1        0.0145
      2 C         -27.0636   -0.1190   28.6079 C.ar    1  UNL1        0.0579
      3 C         -26.9287    1.1713   29.0083 C.ar    1  UNL1        0.0145
      4 C         -27.9560    1.7411   29.7840 C.ar    1  UNL1        0.0378
      5 C         -29.0569   -0.3271   29.7466 C.ar    1  UNL1        0.0378
      6 C         -28.9828    0.9722   30.1516 C.ar    1  UNL1        0.1391
      7 CL        -25.7249   -0.7275   27.6731 Cl      1  UNL1       -0.0822
      8 O         -30.0060    1.2996   31.0327 O.3     1  UNL1       -0.4707
      9 C         -31.0741    1.2353   30.9661 C.3     1  UNL1        0.2318
     10 C         -32.0419    1.8825   31.7759 C.2     1  UNL1        0.0207
     11 C         -31.5396    2.6992   32.7698 C.2     1  UNL1       -0.0009
     12 C         -32.4331    3.4606   33.6342 C.2     1  UNL1       -0.0002
     13 C         -31.9182    4.3039   34.6670 C.2     1  UNL1       -0.0000
     14 C         -30.5038    4.3636   34.8076 C.2     1  UNL1       -0.0000
     15 C         -29.6403    3.6312   33.9761 C.2     1  UNL1       -0.0000
@<TRIPOS>BOND
     1     2     7    1
     2     6     8    1
     3     8     9    1
     4     9    10    1
     5    10    11    2
     6    11    12    1
     7    12    13    2
     8    13    14    1
     9    14    15    2
    10     1     2   ar
    11     2     3   ar
    12     3     4   ar
    13     4     6   ar
    14     6     5   ar
    15     5     1   ar
