@<TRIPOS>MOLECULE
No_2446-gen_results/8p0m/2024-11-26-14-13-15/
 12 13 0 0 0
SMALL
GASTEIGER

@<TRIPOS>ATOM
      1 C         -28.0162   -0.8135   28.8779 C.ar    1  UNL1        0.0000
      2 C         -28.4690   -0.7850   29.8287 C.ar    1  UNL1        0.0000
      3 C         -28.1915    0.1474   27.8714 C.ar    1  UNL1        0.0000
      4 C         -29.2816    1.0120   27.9611 C.ar    1  UNL1        0.0000
      5 C         -29.6441    0.0897   30.1590 C.ar    1  UNL1        0.0000
      6 C         -29.9298    0.9926   29.1822 C.ar    1  UNL1        0.0000
      7 C         -29.5234    1.9508   26.8996 C.ar    1  UNL1        0.0000
      8 C         -29.3104    1.8914   25.7706 C.ar    1  UNL1        0.0000
      9 C         -29.6054    2.9406   24.7234 C.ar    1  UNL1        0.0000
     10 C         -30.1612    4.1454   25.1601 C.ar    1  UNL1        0.0000
     11 C         -30.3902    4.2965   26.4996 C.ar    1  UNL1        0.0000
     12 C         -30.0878    3.2993   27.3964 C.ar    1  UNL1        0.0000
@<TRIPOS>BOND
     1     4     7    1
     2     1     2   ar
     3     2     5   ar
     4     5     6   ar
     5     6     4   ar
     6     4     3   ar
     7     3     1   ar
     8     7     8   ar
     9     8     9   ar
    10     9    10   ar
    11    10    11   ar
    12    11    12   ar
    13    12     7   ar
