@<TRIPOS>MOLECULE
No_2447-gen_results/8p0m/2024-11-26-14-13-15/
 32 34 0 0 0
SMALL
GASTEIGER

@<TRIPOS>ATOM
      1 O         -28.1229   -1.3353   28.4874 O.2     1  UNL1       -0.2730
      2 C         -27.0637   -0.8242   28.8687 C.2     1  UNL1        0.2450
      3 C         -26.9592    0.0926   29.7582 C.3     1  UNL1        0.1009
      4 N         -25.8011   -1.3566   28.3971 N.am    1  UNL1       -0.2046
      5 C         -25.7368    0.7239   30.2099 C.3     1  UNL1        0.0245
      6 C         -24.5490   -0.8600   28.7870 C.3     1  UNL1        0.1243
      7 C         -24.5149    0.1880   29.6985 C.3     1  UNL1        0.1023
      8 C         -23.2206    0.7326   30.0471 C.2     1  UNL1        0.2620
      9 O         -23.1613    1.6773   30.7179 O.2     1  UNL1       -0.2716
     10 N         -22.0696    0.0838   29.6462 N.am    1  UNL1       -0.0877
     11 C         -28.2024    0.6556   30.3579 C.ar    1  UNL1       -0.0136
     12 C         -28.7655    0.0523   31.2841 C.ar    1  UNL1       -0.0038
     13 C         -30.0061    0.5511   31.9454 C.ar    1  UNL1       -0.0001
     14 C         -30.4919    1.7698   31.4510 C.ar    1  UNL1        0.0064
     15 C         -29.8133    2.4009   30.4224 C.ar    1  UNL1        0.0757
     16 C         -28.6224    1.9230   29.8851 C.ar    1  UNL1        0.0026
     17 C         -30.3152    3.7282   29.9236 C.2     1  UNL1        0.3457
     18 O         -30.3541    4.0629   28.8986 O.2     1  UNL1       -0.2445
     19 O         -30.7310    4.5194   30.9580 O.3     1  UNL1       -0.4210
     20 C         -30.8508    5.8013   30.7987 C.ar    1  UNL1        0.1489
     21 C         -29.7846    6.5708   30.9331 C.ar    1  UNL1        0.0415
     22 C         -29.8572    7.9865   30.7095 C.ar    1  UNL1        0.0747
     23 C         -31.1164    8.5374   30.4196 C.ar    1  UNL1        0.0106
     24 C         -32.1985    7.6841   30.3230 C.ar    1  UNL1        0.0828
     25 C         -32.0767    6.2947   30.5087 C.ar    1  UNL1        0.0442
     26 C         -33.5290    8.2440   29.9960 C.2     1  UNL1        0.3878
     27 O         -33.8845    8.6269   29.0384 O.co2   1  UNL1       -0.2406
     28 O         -34.4831    7.8143   30.9541 O.co2   1  UNL1       -0.2406
     29 C         -28.6617    8.8101   30.8629 C.3     1  UNL1        0.4187
     30 F         -28.7764    9.8298   31.4819 F       1  UNL1       -0.1659
     31 F         -27.7364    8.0754   31.5082 F       1  UNL1       -0.1659
     32 F         -28.2498    9.0229   29.6036 F       1  UNL1       -0.1659
@<TRIPOS>BOND
     1     1     2    2
     2     2     3    1
     3     2     4   am
     4     3     5    1
     5     5     7    1
     6     6     7    1
     7     7     8    1
     8     8     9    2
     9     8    10   am
    10     3    11    1
    11    15    17    1
    12    17    18    2
    13    17    19    1
    14    19    20    1
    15    24    26    1
    16    26    27   ar
    17    26    28   ar
    18    22    29    1
    19    29    30    1
    20    29    31    1
    21    29    32    1
    22     6     4    1
    23    11    12   ar
    24    12    13   ar
    25    13    14   ar
    26    14    15   ar
    27    15    16   ar
    28    16    11   ar
    29    20    21   ar
    30    21    22   ar
    31    22    23   ar
    32    23    24   ar
    33    24    25   ar
    34    25    20   ar
