@<TRIPOS>MOLECULE
No_2448-gen_results/8p0m/2024-11-26-14-13-15/
 30 31 0 0 0
SMALL
GASTEIGER

@<TRIPOS>ATOM
      1 C         -28.0162   -0.8135   28.8779 C.ar    1  UNL1        0.0385
      2 C         -27.0636   -0.1190   28.6079 C.ar    1  UNL1        0.1356
      3 N         -26.9515    1.1286   28.9566 N.ar    1  UNL1       -0.2289
      4 C         -29.1088   -0.2102   29.6318 C.ar    1  UNL1        0.0757
      5 C         -30.1959   -1.0433   29.9956 C.3     1  UNL1        0.4187
      6 C         -29.0643    1.1092   29.9938 C.ar    1  UNL1        0.0246
      7 C         -27.9090    1.7990   29.6019 C.ar    1  UNL1        0.1003
      8 F         -29.9689   -2.2243   30.1696 F       1  UNL1       -0.1659
      9 F         -30.7803   -0.5976   31.1434 F       1  UNL1       -0.1659
     10 F         -31.3429   -0.9926   29.2345 F       1  UNL1       -0.1659
     11 N         -25.8845   -0.6147   27.9504 N.pl3   1  UNL1       -0.2681
     12 C         -24.7292   -0.8724   28.7253 C.ar    1  UNL1        0.0529
     13 C         -24.3956   -2.1439   29.0116 C.ar    1  UNL1        0.0134
     14 C         -23.8242    0.1696   28.9228 C.ar    1  UNL1        0.0149
     15 C         -22.5402   -0.1644   29.5281 C.ar    1  UNL1        0.0013
     16 C         -25.2613   -3.2604   28.7959 C.2     1  UNL1       -0.0033
     17 C         -22.2710   -1.4787   29.8976 C.ar    1  UNL1        0.0001
     18 C         -23.1692   -2.4184   29.6569 C.ar    1  UNL1        0.0012
     19 C         -24.8897   -4.5398   29.2064 C.2     1  UNL1       -0.0257
     20 C         -25.8989   -5.5578   29.2124 C.3     1  UNL1        0.0307
     21 C         -25.6125    0.1504   26.7033 C.3     1  UNL1        0.1232
     22 C         -26.4321   -0.1057   25.5946 C.2     1  UNL1       -0.0044
     23 C         -26.5124    0.8297   24.6107 C.2     1  UNL1       -0.0029
     24 C         -27.5572    0.7162   23.7128 C.2     1  UNL1       -0.0003
     25 C         -28.6364   -0.1671   23.9728 C.2     1  UNL1       -0.0000
     26 C         -29.8414    0.1390   24.4028 C.2     1  UNL1       -0.0000
     27 C         -30.1700    1.4824   24.7693 C.2     1  UNL1       -0.0003
     28 C         -31.4095    1.7428   25.3174 C.2     1  UNL1       -0.0046
     29 C         -32.2805    0.6646   25.5615 C.2     1  UNL1       -0.0258
     30 C         -31.9697   -0.6236   25.2523 C.3     1  UNL1        0.0307
@<TRIPOS>BOND
     1     4     5    1
     2     5     8    1
     3     5     9    1
     4     5    10    1
     5     2    11    1
     6    11    12    1
     7    13    16    1
     8    16    19    2
     9    19    20    1
    10    11    21    1
    11    21    22    1
    12    22    23    2
    13    23    24    1
    14    24    25    2
    15    25    26    1
    16    26    27    2
    17    27    28    1
    18    28    29    2
    19    29    30    1
    20    12    13   ar
    21    13    18   ar
    22    18    17   ar
    23    17    15   ar
    24    15    14   ar
    25    14    12   ar
    26     1     2   ar
    27     2     3   ar
    28     3     7   ar
    29     7     6   ar
    30     6     4   ar
    31     4     1   ar
