@<TRIPOS>MOLECULE
No_2449-gen_results/8p0m/2024-11-26-14-13-15/
 15 17 0 0 0
SMALL
GASTEIGER

@<TRIPOS>ATOM
      1 C         -28.0162   -0.8135   28.8779 C.ar    1  UNL1       -0.0038
      2 C         -27.0636   -0.1190   28.6079 C.ar    1  UNL1       -0.0147
      3 C         -25.7923   -0.4302   29.0761 C.3     1  UNL1        0.0528
      4 C         -24.5456    0.3494   28.8225 C.ar    1  UNL1       -0.0147
      5 C         -24.6586    1.4196   27.8878 C.ar    1  UNL1        0.0353
      6 C         -23.5403    2.1791   27.5500 C.ar    1  UNL1        0.0029
      7 C         -22.2925    1.7428   28.0473 C.ar    1  UNL1        0.0001
      8 C         -22.1712    0.7079   28.9284 C.ar    1  UNL1       -0.0003
      9 C         -23.3345   -0.0624   29.3081 C.ar    1  UNL1       -0.0038
     10 C         -29.3408   -0.3116   28.6627 C.ar    1  UNL1       -0.0003
     11 C         -29.4591    0.8244   27.8613 C.ar    1  UNL1        0.0001
     12 C         -28.3803    1.5024   27.4214 C.ar    1  UNL1        0.0029
     13 C         -27.0965    1.1384   27.8258 C.ar    1  UNL1        0.0353
     14 C         -25.9444    1.8471   27.4557 C.2     1  UNL1        0.1950
     15 O         -26.0482    2.8836   26.7250 O.2     1  UNL1       -0.2866
@<TRIPOS>BOND
     1     3     4    1
     2     5    14    1
     3    13    14    1
     4    14    15    2
     5     3     2    1
     6     4     9   ar
     7     9     8   ar
     8     8     7   ar
     9     7     6   ar
    10     6     5   ar
    11     5     4   ar
    12     1     2   ar
    13     2    13   ar
    14    13    12   ar
    15    12    11   ar
    16    11    10   ar
    17    10     1   ar
