@<TRIPOS>MOLECULE
No_245-gen_results/8p0m/2024-11-26-14-13-15/
 26 28 0 0 0
SMALL
GASTEIGER

@<TRIPOS>ATOM
      1 C         -28.0162   -0.8135   28.8779 C.ar    1  UNL1        0.0064
      2 C         -27.0636   -0.1190   28.6079 C.ar    1  UNL1        0.0002
      3 C         -25.7647   -0.3897   29.0360 C.ar    1  UNL1        0.0001
      4 C         -25.5296   -1.5302   29.9014 C.ar    1  UNL1        0.0002
      5 C         -26.6577   -2.2915   30.2035 C.ar    1  UNL1        0.0064
      6 C         -27.8548   -1.9555   29.7630 C.ar    1  UNL1        0.0756
      7 C         -24.5349    0.4128   28.7431 C.ar    1  UNL1        0.0022
      8 C         -23.3062    0.0366   29.0393 C.ar    1  UNL1        0.0001
      9 C         -22.1759    0.8277   28.6836 C.ar    1  UNL1        0.0023
     10 C         -22.3552    1.8290   27.6875 C.ar    1  UNL1        0.0296
     11 C         -24.5941    1.4954   27.7678 C.ar    1  UNL1        0.0296
     12 C         -23.5500    2.1700   27.3300 C.ar    1  UNL1        0.1401
     13 C         -29.0293   -2.7691   30.1841 C.2     1  UNL1        0.3413
     14 O         -30.0693   -2.4699   30.0237 O.2     1  UNL1       -0.2449
     15 O         -28.7055   -3.9026   30.8356 O.3     1  UNL1       -0.4426
     16 F         -23.7250    3.2098   26.4891 F       1  UNL1       -0.2042
     17 C         -29.6280   -4.9791   30.8037 C.3     1  UNL1        0.2417
     18 C         -29.7332   -5.5978   32.0226 C.3     1  UNL1        0.1998
     19 C         -31.0324   -5.4204   32.6062 C.3     1  UNL1        0.0631
     20 C         -31.2167   -4.2330   33.2277 C.ar    1  UNL1       -0.0195
     21 C         -32.0123   -3.5708   33.4637 C.ar    1  UNL1       -0.0042
     22 C         -32.0462   -2.2118   34.1559 C.ar    1  UNL1       -0.0003
     23 C         -30.7979   -1.6316   34.3856 C.ar    1  UNL1       -0.0000
     24 C         -29.6415   -2.3852   34.0457 C.ar    1  UNL1       -0.0003
     25 C         -29.7861   -3.6487   33.4730 C.ar    1  UNL1       -0.0042
     26 O         -28.6866   -5.2843   32.7511 O.3     1  UNL1       -0.2188
@<TRIPOS>BOND
     1     3     7    1
     2     6    13    1
     3    13    14    2
     4    13    15    1
     5    12    16    1
     6    15    17    1
     7    17    18    1
     8    18    19    1
     9    19    20    1
    10    18    26    1
    11     7     8   ar
    12     8     9   ar
    13     9    10   ar
    14    10    12   ar
    15    12    11   ar
    16    11     7   ar
    17     1     2   ar
    18     2     3   ar
    19     3     4   ar
    20     4     5   ar
    21     5     6   ar
    22     6     1   ar
    23    20    21   ar
    24    21    22   ar
    25    22    23   ar
    26    23    24   ar
    27    24    25   ar
    28    25    20   ar
