@<TRIPOS>MOLECULE
No_2450-gen_results/8p0m/2024-11-26-14-13-15/
 30 33 0 0 0
SMALL
GASTEIGER

@<TRIPOS>ATOM
      1 C         -28.0162   -0.8135   28.8779 C.ar    1  UNL1        0.0111
      2 C         -28.4690   -0.7850   29.8287 C.ar    1  UNL1        0.0577
      3 C         -26.5042   -0.7777   28.8766 C.ar    1  UNL1       -0.0031
      4 C         -25.8103   -0.8531   30.1028 C.ar    1  UNL1       -0.0184
      5 C         -27.9906   -0.8916   31.2257 C.ar    1  UNL1        0.0111
      6 C         -26.6042   -0.8676   31.2652 C.ar    1  UNL1       -0.0031
      7 CL        -30.2937   -0.8377   29.8355 Cl      1  UNL1       -0.0822
      8 C         -24.3700   -0.8208   30.1393 C.3     1  UNL1        0.0446
      9 C         -23.6317   -0.3592   29.1003 C.ar    1  UNL1       -0.0187
     10 C         -22.1856   -0.3104   29.2384 C.ar    1  UNL1       -0.0040
     11 C         -21.4360    0.2369   28.1746 C.ar    1  UNL1       -0.0006
     12 C         -22.0683    1.1431   27.3132 C.ar    1  UNL1       -0.0040
     13 C         -23.4676    1.3367   27.3406 C.ar    1  UNL1       -0.0181
     14 C         -24.2377    0.6885   28.2905 C.ar    1  UNL1       -0.0079
     15 C         -24.0096    2.3358   26.4133 C.3     1  UNL1        0.0526
     16 C         -25.2038    1.9557   25.8324 C.ar    1  UNL1       -0.0178
     17 C         -26.4182    2.6655   26.0121 C.ar    1  UNL1       -0.0039
     18 C         -27.5919    2.2497   25.3599 C.ar    1  UNL1       -0.0003
     19 C         -27.5551    1.0006   24.6963 C.ar    1  UNL1       -0.0001
     20 C         -26.4465    0.2281   24.6597 C.ar    1  UNL1       -0.0003
     21 C         -25.2734    0.6618   25.2636 C.ar    1  UNL1       -0.0039
     22 C         -28.8214    0.5097   24.1427 C.ar    1  UNL1        0.0039
     23 C         -29.8831    1.3317   24.3386 C.ar    1  UNL1        0.0714
     24 C         -29.8783    2.5972   24.9399 C.ar    1  UNL1        0.0039
     25 C         -28.7385    3.0508   25.5116 C.ar    1  UNL1       -0.0001
     26 C         -23.7886   -1.5103   31.3070 C.3     1  UNL1        0.0094
     27 C         -31.1907    0.8291   23.7336 C.3     1  UNL1        0.4186
     28 F         -31.2568   -0.3280   23.4681 F       1  UNL1       -0.1659
     29 F         -32.2303    1.2219   24.5948 F       1  UNL1       -0.1659
     30 F         -31.4699    1.5634   22.5791 F       1  UNL1       -0.1659
@<TRIPOS>BOND
     1     2     7    1
     2     4     8    1
     3    13    15    1
     4    15    16    1
     5     8    26    1
     6    23    27    1
     7    27    28    1
     8    27    29    1
     9    27    30    1
    10     8     9    1
    11     9    10   ar
    12    10    11   ar
    13    11    12   ar
    14    12    13   ar
    15    13    14   ar
    16    14     9   ar
    17    19    22   ar
    18    22    23   ar
    19    23    24   ar
    20    24    25   ar
    21    25    18   ar
    22     1     2   ar
    23     2     5   ar
    24     5     6   ar
    25     6     4   ar
    26     4     3   ar
    27     3     1   ar
    28    16    17   ar
    29    17    18   ar
    30    18    19   ar
    31    19    20   ar
    32    20    21   ar
    33    21    16   ar
