@<TRIPOS>MOLECULE
No_2451-gen_results/8p0m/2024-11-26-14-13-15/
 19 20 0 0 0
SMALL
GASTEIGER

@<TRIPOS>ATOM
      1 C         -28.0162   -0.8135   28.8779 C.ar    1  UNL1       -0.0043
      2 C         -28.4690   -0.7850   29.8287 C.ar    1  UNL1       -0.0003
      3 C         -27.1356    0.2359   28.5352 C.ar    1  UNL1       -0.0219
      4 C         -26.8745    1.2825   29.3982 C.ar    1  UNL1       -0.0043
      5 C         -27.5070    1.2380   30.6295 C.ar    1  UNL1       -0.0003
      6 C         -28.3293    0.1745   30.9350 C.ar    1  UNL1       -0.0000
      7 C         -26.4077    0.3070   27.2259 C.3     1  UNL1        0.0307
      8 C         -26.8748    0.8389   26.2127 C.3     1  UNL1        0.0267
      9 C         -25.0813   -0.2883   27.1835 C.3     1  UNL1        0.0304
     10 C         -28.1776    1.4121   26.1391 C.ar    1  UNL1       -0.0222
     11 C         -29.1025    1.0983   25.7418 C.ar    1  UNL1       -0.0043
     12 C         -30.3681    1.8522   25.7322 C.ar    1  UNL1       -0.0003
     13 C         -30.3321    3.0947   26.3681 C.ar    1  UNL1       -0.0000
     14 C         -29.1707    3.6796   26.7962 C.ar    1  UNL1       -0.0003
     15 C         -28.0111    2.8955   26.7568 C.ar    1  UNL1       -0.0043
     16 C         -26.2226    0.7412   24.9343 C.3     1  UNL1        0.0050
     17 C         -24.5073   -0.6786   28.5313 C.2     1  UNL1       -0.0303
     18 C         -23.7880    0.2255   29.2920 C.2     1  UNL1       -0.0303
     19 C         -23.1617   -0.2401   30.4414 C.3     1  UNL1        0.0303
@<TRIPOS>BOND
     1     3     7    1
     2     7     8    1
     3     7     9    1
     4     8    10    1
     5     8    16    1
     6     9    17    1
     7    17    18    2
     8    18    19    1
     9     1     2   ar
    10     2     6   ar
    11     6     5   ar
    12     5     4   ar
    13     4     3   ar
    14     3     1   ar
    15    10    11   ar
    16    11    12   ar
    17    12    13   ar
    18    13    14   ar
    19    14    15   ar
    20    15    10   ar
