@<TRIPOS>MOLECULE
No_2453-gen_results/8p0m/2024-11-26-14-13-15/
 9 9 0 0 0
SMALL
GASTEIGER

@<TRIPOS>ATOM
      1 C         -28.0162   -0.8135   28.8779 C.ar    1  UNL1        0.0013
      2 C         -27.0636   -0.1189   28.6079 C.ar    1  UNL1        0.0165
      3 C         -26.8756    1.1325   28.9134 C.ar    1  UNL1        0.0705
      4 C         -27.9014    1.8066   29.6436 C.ar    1  UNL1        0.0165
      5 C         -28.9449    1.0388   30.0360 C.ar    1  UNL1        0.0013
      6 C         -29.0273   -0.2890   29.7051 C.ar    1  UNL1        0.0001
      7 N         -25.7704    1.8894   28.5012 N.pl3   1  UNL1       -0.2112
      8 C         -24.8873    1.7449   27.7638 C.2     1  UNL1        0.0857
      9 C         -23.8285    2.6741   27.3875 C.2     1  UNL1        0.0192
@<TRIPOS>BOND
     1     3     7    1
     2     7     8    1
     3     8     9    2
     4     1     2   ar
     5     2     3   ar
     6     3     4   ar
     7     4     5   ar
     8     5     6   ar
     9     6     1   ar
