@<TRIPOS>MOLECULE
No_2454-gen_results/8p0m/2024-11-26-14-13-15/
 18 20 0 0 0
SMALL
GASTEIGER

@<TRIPOS>ATOM
      1 C         -28.0162   -0.8135   28.8779 C.ar    1  UNL1        0.0043
      2 C         -27.0636   -0.1189   28.6079 C.ar    1  UNL1        0.0514
      3 C         -25.7923   -0.4302   29.0761 C.ar    1  UNL1       -0.0122
      4 C         -25.5756   -1.5654   29.9363 C.ar    1  UNL1       -0.0038
      5 C         -26.7354   -2.3004   30.2173 C.ar    1  UNL1       -0.0003
      6 C         -27.9184   -1.9537   29.7629 C.ar    1  UNL1        0.0001
      7 C         -27.3243    1.0850   27.8190 C.2     1  UNL1        0.2645
      8 N         -26.3391    1.8438   27.4826 N.am    1  UNL1       -0.2010
      9 O         -28.4069    1.3409   27.3479 O.2     1  UNL1       -0.2684
     10 C         -24.9713    1.7622   27.9828 C.3     1  UNL1        0.1241
     11 C         -24.6637    0.5184   28.6939 C.3     1  UNL1        0.0673
     12 C         -23.2887    0.2833   29.1437 C.ar    1  UNL1       -0.0030
     13 C         -22.9050    0.3032   30.4350 C.ar    1  UNL1        0.0732
     14 C         -22.3365    0.0901   28.1217 C.ar    1  UNL1        0.0176
     15 C         -20.9891   -0.0804   28.5692 C.ar    1  UNL1        0.0986
     16 CL        -24.0834    0.6581   31.7457 Cl      1  UNL1       -0.0809
     17 N         -20.7134   -0.2169   29.8656 N.ar    1  UNL1       -0.2415
     18 C         -21.5701   -0.0163   30.7933 C.ar    1  UNL1        0.1099
@<TRIPOS>BOND
     1     2     7    1
     2     7     8   am
     3     7     9    2
     4     8    10    1
     5     3    11    1
     6    11    12    1
     7    13    16    1
     8    11    10    1
     9     1     2   ar
    10     2     3   ar
    11     3     4   ar
    12     4     5   ar
    13     5     6   ar
    14     6     1   ar
    15    12    13   ar
    16    13    18   ar
    17    18    17   ar
    18    17    15   ar
    19    15    14   ar
    20    14    12   ar
