@<TRIPOS>MOLECULE
No_2455-gen_results/8p0m/2024-11-26-14-13-15/
 19 21 0 0 0
SMALL
GASTEIGER

@<TRIPOS>ATOM
      1 C         -28.0162   -0.8135   28.8779 C.ar    1  UNL1        0.0509
      2 C         -28.4690   -0.7850   29.8287 C.2     1  UNL1        0.2582
      3 C         -28.1816    0.4277   28.1134 C.ar    1  UNL1       -0.0064
      4 C         -27.4498    0.6435   26.8500 C.ar    1  UNL1        0.0260
      5 C         -26.1815    0.0357   26.7145 C.ar    1  UNL1        0.1398
      6 C         -25.7800   -0.9326   27.6938 C.ar    1  UNL1        0.0298
      7 C         -26.5568   -1.2134   28.7413 C.ar    1  UNL1        0.0065
      8 N         -29.6101   -0.2783   30.1938 N.am    1  UNL1       -0.2044
      9 O         -28.2441   -1.9032   30.7503 O.2     1  UNL1       -0.2692
     10 C         -30.4027   -0.3937   31.1217 C.ar    1  UNL1        0.0610
     11 F         -25.3711    0.2807   25.6983 F       1  UNL1       -0.2042
     12 C         -31.5539    0.2714   31.1792 C.ar    1  UNL1        0.0153
     13 C         -32.5011    0.1853   32.1779 C.ar    1  UNL1        0.0013
     14 C         -32.1881   -0.7216   33.2621 C.ar    1  UNL1        0.0001
     15 C         -31.0374   -1.4526   33.2538 C.ar    1  UNL1        0.0013
     16 C         -30.1230   -1.3150   32.2595 C.ar    1  UNL1        0.0153
     17 C         -29.9536    0.9069   29.4212 C.2     1  UNL1        0.2398
     18 C         -29.2553    1.0710   28.1323 C.3     1  UNL1        0.1125
     19 O         -31.1132    1.5128   29.5746 O.2     1  UNL1       -0.2738
@<TRIPOS>BOND
     1     1     2    1
     2     2     8   am
     3     2     9    2
     4     8    10    1
     5     5    11    1
     6     8    17   am
     7     3    18    1
     8    17    18    1
     9    17    19    2
    10     1     7   ar
    11     7     6   ar
    12     6     5   ar
    13     5     4   ar
    14     4     3   ar
    15     3     1   ar
    16    10    12   ar
    17    12    13   ar
    18    13    14   ar
    19    14    15   ar
    20    15    16   ar
    21    16    10   ar
