@<TRIPOS>MOLECULE
No_2457-gen_results/8p0m/2024-11-26-14-13-15/
 21 22 0 0 0
SMALL
GASTEIGER

@<TRIPOS>ATOM
      1 C         -28.0162   -0.8135   28.8779 C.ar    1  UNL1        0.0045
      2 C         -28.4690   -0.7850   29.8287 C.ar    1  UNL1        0.0536
      3 C         -26.5455   -0.8762   28.8500 C.ar    1  UNL1        0.0001
      4 C         -25.8041   -1.0324   30.0571 C.ar    1  UNL1        0.0000
      5 C         -27.9437   -0.9869   31.2075 C.ar    1  UNL1        0.0045
      6 C         -26.5825   -1.0386   31.2231 C.ar    1  UNL1        0.0001
      7 C         -30.0606   -0.7371   29.9024 C.2     1  UNL1        0.2493
      8 O         -30.7252   -1.5544   30.2697 O.2     1  UNL1       -0.2699
      9 N         -30.5563    0.4242   29.3124 N.am    1  UNL1       -0.2707
     10 C         -31.9645    0.5638   29.1626 C.3     1  UNL1        0.0941
     11 C         -32.2853    1.2696   28.1337 C.3     1  UNL1        0.0216
     12 C         -31.3616    2.1104   27.3885 C.3     1  UNL1        0.0039
     13 C         -29.9730    1.8990   27.6231 C.3     1  UNL1        0.0278
     14 C         -29.6126    1.0500   28.4870 C.3     1  UNL1        0.1373
     15 C         -28.4351    1.6002   28.9936 C.2     1  UNL1        0.1949
     16 C         -28.0190    2.6330   29.0012 C.2     1  UNL1        0.1144
     17 C         -26.6798    3.0229   29.6610 C.3     1  UNL1        0.4213
     18 F         -26.2527    1.8590   30.0528 F       1  UNL1       -0.1658
     19 F         -26.7752    3.8018   30.7377 F       1  UNL1       -0.1658
     20 F         -25.7801    3.4515   28.8089 F       1  UNL1       -0.1658
     21 O         -27.6549    0.8403   29.6408 O.2     1  UNL1       -0.2897
@<TRIPOS>BOND
     1     2     7    1
     2     7     8    2
     3     7     9   am
     4     9    10    1
     5    11    12    1
     6     9    14    1
     7    13    14    1
     8    14    15    1
     9    15    16    2
    10    16    17    1
    11    17    18    1
    12    17    19    1
    13    17    20    1
    14    15    21    1
    15    10    11    1
    16    12    13    1
    17     1     2   ar
    18     2     5   ar
    19     5     6   ar
    20     6     4   ar
    21     4     3   ar
    22     3     1   ar
