@<TRIPOS>MOLECULE
No_2459-gen_results/8p0m/2024-11-26-14-13-15/
 35 38 0 0 0
SMALL
GASTEIGER

@<TRIPOS>ATOM
      1 C         -28.0162   -0.8135   28.8779 C.ar    1  UNL1        0.0064
      2 C         -27.0636   -0.1190   28.6079 C.ar    1  UNL1        0.0002
      3 C         -25.7647   -0.3897   29.0360 C.ar    1  UNL1        0.0000
      4 C         -25.5296   -1.5302   29.9014 C.ar    1  UNL1        0.0002
      5 C         -26.6577   -2.2915   30.2035 C.ar    1  UNL1        0.0064
      6 C         -27.8548   -1.9555   29.7630 C.ar    1  UNL1        0.0757
      7 C         -24.4389    0.1803   28.7279 C.ar    1  UNL1        0.0000
      8 C         -24.3450    1.1842   27.7676 C.ar    1  UNL1        0.0000
      9 C         -23.1506    1.7018   27.3711 C.ar    1  UNL1        0.0000
     10 C         -21.9201    1.3331   28.0110 C.ar    1  UNL1        0.0000
     11 C         -23.1002   -0.3112   29.0244 C.ar    1  UNL1        0.0000
     12 C         -21.9145    0.3282   28.8135 C.ar    1  UNL1        0.0000
     13 C         -29.0224   -2.7694   30.2005 C.2     1  UNL1        0.3417
     14 O         -28.9618   -4.0075   30.3302 O.2     1  UNL1       -0.2449
     15 O         -30.1144   -2.1998   30.5257 O.3     1  UNL1       -0.4352
     16 C         -31.0631   -2.6463   31.1556 C.3     1  UNL1        0.2948
     17 C         -32.3274   -1.9854   31.2164 C.2     1  UNL1        0.2902
     18 O         -33.2343   -2.4541   31.7423 O.2     1  UNL1       -0.2689
     19 N         -32.4075   -0.7726   30.5731 N.am    1  UNL1       -0.1761
     20 C         -33.6250   -0.0342   30.4382 C.ar    1  UNL1        0.0735
     21 C         -33.5998    0.9808   29.9515 C.ar    1  UNL1        0.0166
     22 C         -34.7049    1.9315   29.8235 C.ar    1  UNL1        0.0013
     23 C         -35.9328    1.3862   30.3098 C.ar    1  UNL1        0.0001
     24 C         -35.9214    0.1277   30.8695 C.ar    1  UNL1        0.0013
     25 C         -34.7857   -0.5804   31.0067 C.ar    1  UNL1        0.0166
     26 C         -37.2113   -0.3435   31.4146 C.ar    1  UNL1        0.0000
     27 C         -38.0768   -0.9330   31.2006 C.ar    1  UNL1        0.0000
     28 C         -39.2034   -1.3175   31.9556 C.ar    1  UNL1        0.0000
     29 C         -37.2360    0.0774   32.9367 C.ar    1  UNL1        0.0000
     30 C         -38.2331   -0.2079   33.7509 C.ar    1  UNL1        0.0000
     31 C         -39.2652   -0.9372   33.2443 C.ar    1  UNL1        0.0000
     32 C         -40.4499   -1.3092   34.0601 C.2     1  UNL1        0.0000
     33 C         -40.5018   -0.9012   35.3482 C.2     1  UNL1        0.0000
     34 C         -41.6066   -1.2321   36.1605 C.2     1  UNL1        0.0000
     35 C         -42.6304   -2.0081   35.5581 C.2     1  UNL1        0.0000
@<TRIPOS>BOND
     1     3     7    1
     2     6    13    1
     3    13    14    2
     4    13    15    1
     5    15    16    1
     6    16    17    1
     7    17    18    2
     8    17    19   am
     9    19    20    1
    10    24    26    1
    11    31    32    1
    12    32    33    2
    13    33    34    1
    14    34    35    2
    15     7     8   ar
    16     8     9   ar
    17     9    10   ar
    18    10    12   ar
    19    12    11   ar
    20    11     7   ar
    21     1     2   ar
    22     2     3   ar
    23     3     4   ar
    24     4     5   ar
    25     5     6   ar
    26     6     1   ar
    27    26    27   ar
    28    27    28   ar
    29    28    31   ar
    30    31    30   ar
    31    30    29   ar
    32    29    26   ar
    33    20    21   ar
    34    21    22   ar
    35    22    23   ar
    36    23    24   ar
    37    24    25   ar
    38    25    20   ar
