@<TRIPOS>MOLECULE
No_246-gen_results/8p0m/2024-11-26-14-13-15/
 18 18 0 0 0
SMALL
GASTEIGER

@<TRIPOS>ATOM
      1 C         -28.0162   -0.8135   28.8779 C.2     1  UNL1        0.0673
      2 C         -27.0636   -0.1190   28.6079 C.2     1  UNL1       -0.0319
      3 C         -26.9716    0.7139   27.5060 C.3     1  UNL1        0.0928
      4 C         -25.8205    1.4909   27.1160 C.3     1  UNL1        0.0295
      5 C         -24.6562    1.4242   27.9180 C.3     1  UNL1        0.0917
      6 C         -24.6847    0.5901   29.0659 C.3     1  UNL1        0.1224
      7 C         -25.8099   -0.1265   29.3338 C.3     1  UNL1        0.0349
      8 C         -28.7093   -0.4588   30.1754 C.3     1  UNL1        0.4180
      9 F         -28.5882    0.4074   30.7539 F       1  UNL1       -0.1659
     10 F         -30.1149   -0.8242   30.0363 F       1  UNL1       -0.1659
     11 F         -28.3396   -1.6348   31.0209 F       1  UNL1       -0.1659
     12 CL        -23.3036    2.3855   27.5794 Cl      1  UNL1       -0.1144
     13 C         -23.4486    0.5130   29.9253 C.2     1  UNL1        0.3658
     14 O         -22.4391    0.0872   29.5361 O.co2   1  UNL1       -0.2456
     15 O         -23.6847    0.9784   31.1730 O.co2   1  UNL1       -0.2456
     16 C         -28.1189    0.8325   26.6107 C.2     1  UNL1        0.2339
     17 CL        -28.4211    0.5927   25.6862 Cl      1  UNL1       -0.0425
     18 O         -29.2331    1.1243   27.5958 O.2     1  UNL1       -0.2785
@<TRIPOS>BOND
     1     1     2    2
     2     2     3    1
     3     3     4    1
     4     4     5    1
     5     5     6    1
     6     2     7    1
     7     6     7    1
     8     1     8    1
     9     8     9    1
    10     8    10    1
    11     8    11    1
    12     5    12    1
    13     6    13    1
    14    13    14   ar
    15    13    15   ar
    16     3    16    1
    17    16    17    1
    18    16    18    2
