@<TRIPOS>MOLECULE
No_2460-gen_results/8p0m/2024-11-26-14-13-15/
 26 28 0 0 0
SMALL
GASTEIGER

@<TRIPOS>ATOM
      1 C         -28.0162   -0.8135   28.8779 C.ar    1  UNL1        0.0046
      2 C         -27.0636   -0.1189   28.6079 C.ar    1  UNL1        0.0001
      3 C         -25.7647   -0.3897   29.0360 C.ar    1  UNL1        0.0000
      4 C         -25.5296   -1.5302   29.9014 C.ar    1  UNL1        0.0001
      5 C         -26.6888   -2.2893   30.1810 C.ar    1  UNL1        0.0046
      6 C         -27.8727   -1.9508   29.7373 C.ar    1  UNL1        0.0552
      7 C         -24.5491    0.4100   28.7341 C.ar    1  UNL1        0.0000
      8 C         -24.0931    1.3779   29.5761 C.ar    1  UNL1        0.0000
      9 C         -22.9754    2.1437   29.2395 C.ar    1  UNL1        0.0000
     10 C         -22.2571    1.9096   28.0218 C.ar    1  UNL1        0.0000
     11 C         -23.7980    0.2733   27.5521 C.ar    1  UNL1        0.0000
     12 C         -22.7107    1.0013   27.2291 C.ar    1  UNL1        0.0000
     13 C         -29.0291   -2.7933   30.1645 C.2     1  UNL1        0.2680
     14 N         -30.1935   -2.3218   30.1814 N.am    1  UNL1       -0.1726
     15 O         -28.8123   -3.9797   30.5759 O.2     1  UNL1       -0.2682
     16 C         -31.3772   -3.1181   30.5530 C.3     1  UNL1        0.1470
     17 C         -32.3834   -2.5500   30.8454 C.2     1  UNL1        0.0155
     18 C         -32.6667   -1.4665   30.2022 C.2     1  UNL1        0.0866
     19 C         -33.8850   -0.6546   30.4700 C.2     1  UNL1        0.0178
     20 C         -34.1211    0.5856   29.8473 C.2     1  UNL1        0.0023
     21 C         -33.1478    1.0213   28.9088 C.2     1  UNL1        0.0131
     22 C         -32.0179    0.2861   28.6394 C.2     1  UNL1        0.0783
     23 C         -31.8088   -0.8961   29.2900 C.2     1  UNL1        0.1292
     24 N         -30.5070   -1.4311   29.2810 N.2     1  UNL1       -0.1727
     25 N         -33.2792   -1.4874   29.3590 N.pl3   1  UNL1       -0.1283
     26 CL        -31.4695   -0.2145   28.6149 Cl      1  UNL1       -0.0806
@<TRIPOS>BOND
     1     3     7    1
     2     6    13    1
     3    13    14   am
     4    13    15    2
     5    14    16    1
     6    16    17    1
     7    17    18    2
     8    18    19    1
     9    19    20    2
    10    20    21    1
    11    21    22    2
    12    22    23    1
    13    14    24    1
    14    23    24    2
    15    18    25    1
    16    22    26    1
    17     7     8   ar
    18     8     9   ar
    19     9    10   ar
    20    10    12   ar
    21    12    11   ar
    22    11     7   ar
    23     1     2   ar
    24     2     3   ar
    25     3     4   ar
    26     4     5   ar
    27     5     6   ar
    28     6     1   ar
