@<TRIPOS>MOLECULE
No_2463-gen_results/8p0m/2024-11-26-14-13-15/
 22 23 0 0 0
SMALL
GASTEIGER

@<TRIPOS>ATOM
      1 C         -28.0162   -0.8135   28.8779 C.ar    1  UNL1        0.0046
      2 C         -27.0636   -0.1189   28.6079 C.ar    1  UNL1        0.0001
      3 C         -25.7647   -0.3897   29.0360 C.ar    1  UNL1        0.0000
      4 C         -25.5296   -1.5302   29.9014 C.ar    1  UNL1        0.0001
      5 C         -26.6577   -2.2915   30.2035 C.ar    1  UNL1        0.0046
      6 C         -27.8548   -1.9555   29.7630 C.ar    1  UNL1        0.0550
      7 C         -24.5349    0.4128   28.7431 C.ar    1  UNL1        0.0000
      8 C         -23.3062    0.0366   29.0393 C.ar    1  UNL1        0.0000
      9 C         -22.1759    0.8277   28.6836 C.ar    1  UNL1        0.0000
     10 C         -22.3552    1.8290   27.6875 C.ar    1  UNL1        0.0000
     11 C         -24.5941    1.4954   27.7678 C.ar    1  UNL1        0.0000
     12 C         -23.5500    2.1700   27.3300 C.ar    1  UNL1        0.0000
     13 C         -29.0227   -2.7733   30.1850 C.2     1  UNL1        0.2650
     14 N         -30.1512   -2.3592   30.2143 N.am    1  UNL1       -0.1989
     15 O         -28.7727   -3.9867   30.6028 O.2     1  UNL1       -0.2684
     16 C         -31.3424   -3.1597   30.5961 C.3     1  UNL1        0.1176
     17 C         -31.4225   -3.9898   31.2673 C.3     1  UNL1        0.0283
     18 C         -32.4893   -2.5770   29.8530 C.2     1  UNL1       -0.0049
     19 C         -32.5529   -1.3309   29.3815 C.2     1  UNL1       -0.0032
     20 C         -33.2626   -0.9857   28.3485 C.2     1  UNL1       -0.0048
     21 C         -34.2038   -1.8815   27.8203 C.2     1  UNL1       -0.0258
     22 C         -34.2012   -3.1981   28.2566 C.3     1  UNL1        0.0307
@<TRIPOS>BOND
     1     3     7    1
     2     6    13    1
     3    13    14   am
     4    13    15    2
     5    14    16    1
     6    16    17    1
     7    16    18    1
     8    18    19    2
     9    19    20    1
    10    20    21    2
    11    21    22    1
    12     7     8   ar
    13     8     9   ar
    14     9    10   ar
    15    10    12   ar
    16    12    11   ar
    17    11     7   ar
    18     1     2   ar
    19     2     3   ar
    20     3     4   ar
    21     4     5   ar
    22     5     6   ar
    23     6     1   ar
