@<TRIPOS>MOLECULE
No_2464-gen_results/8p0m/2024-11-26-14-13-15/
 16 17 0 0 0
SMALL
GASTEIGER

@<TRIPOS>ATOM
      1 C         -28.0162   -0.8135   28.8779 C.ar    1  UNL1        0.0045
      2 C         -28.4690   -0.7850   29.8287 C.ar    1  UNL1        0.0536
      3 C         -26.5042   -0.7777   28.8766 C.ar    1  UNL1        0.0001
      4 C         -25.8103   -0.8531   30.1028 C.ar    1  UNL1        0.0000
      5 C         -27.9906   -0.8916   31.2257 C.ar    1  UNL1        0.0045
      6 C         -26.6042   -0.8676   31.2652 C.ar    1  UNL1        0.0001
      7 C         -30.0739   -0.8360   29.8615 C.2     1  UNL1        0.2509
      8 O         -30.5608   -0.4417   28.9417 O.2     1  UNL1       -0.2698
      9 N         -30.7486   -1.4028   30.9473 N.am    1  UNL1       -0.2478
     10 C         -31.6897   -1.7727   31.0553 C.3     1  UNL1        0.0963
     11 C         -32.3173   -2.6756   31.2228 C.3     1  UNL1        0.0244
     12 C         -31.5079   -3.9121   31.4492 C.3     1  UNL1        0.0394
     13 C         -30.2101   -3.7141   31.8494 C.3     1  UNL1        0.2039
     14 C         -29.7969   -2.3878   31.7293 C.3     1  UNL1        0.2701
     15 F         -29.8313   -2.1232   33.0326 F       1  UNL1       -0.2119
     16 O         -29.8679   -4.3657   33.0346 O.3     1  UNL1       -0.2183
@<TRIPOS>BOND
     1     2     7    1
     2     7     8    2
     3     7     9   am
     4     9    10    1
     5    11    12    1
     6     9    14    1
     7    13    14    1
     8    14    15    1
     9    13    16    1
    10    10    11    1
    11    12    13    1
    12     1     2   ar
    13     2     5   ar
    14     5     6   ar
    15     6     4   ar
    16     4     3   ar
    17     3     1   ar
