@<TRIPOS>MOLECULE
No_2465-gen_results/8p0m/2024-11-26-14-13-15/
 32 34 0 0 0
SMALL
GASTEIGER

@<TRIPOS>ATOM
      1 C         -28.0162   -0.8135   28.8779 C.ar    1  UNL1        0.0025
      2 C         -27.0636   -0.1189   28.6079 C.ar    1  UNL1       -0.0176
      3 C         -26.9287    1.1713   29.0083 C.ar    1  UNL1       -0.0039
      4 C         -27.9560    1.7411   29.7840 C.ar    1  UNL1       -0.0001
      5 C         -29.0569   -0.3271   29.7466 C.ar    1  UNL1        0.0757
      6 C         -28.9828    0.9722   30.1516 C.ar    1  UNL1        0.0064
      7 C         -25.8907   -0.6263   27.7857 C.3     1  UNL1        0.0523
      8 C         -24.5687   -0.1994   28.1996 C.ar    1  UNL1       -0.0173
      9 C         -23.6406   -0.6993   28.6892 C.ar    1  UNL1        0.0675
     10 C         -23.6645   -2.0146   29.2912 C.3     1  UNL1        0.4183
     11 C         -24.3547    1.3022   27.7474 C.ar    1  UNL1       -0.0155
     12 C         -24.7547    1.9030   26.7485 C.3     1  UNL1        0.1253
     13 C         -25.4766    1.2872   25.7249 C.3     1  UNL1        0.0166
     14 C         -22.2773   -0.1042   28.8279 C.ar    1  UNL1        0.0035
     15 C         -21.8752    1.0737   28.3129 C.ar    1  UNL1       -0.0004
     16 C         -22.8581    1.7275   27.9999 C.ar    1  UNL1       -0.0041
     17 C         -25.0234    3.3304   26.8652 C.2     1  UNL1        0.3683
     18 O         -24.1345    4.0449   26.8742 O.co2   1  UNL1       -0.2453
     19 O         -26.2851    3.8059   26.9323 O.co2   1  UNL1       -0.2453
     20 C         -30.2247   -1.1848   30.0699 C.2     1  UNL1        0.3458
     21 O         -30.0539   -2.1757   30.6696 O.3     1  UNL1       -0.4177
     22 O         -31.4148   -0.8379   29.8162 O.2     1  UNL1       -0.2445
     23 F         -23.8318   -2.0727   30.5848 F       1  UNL1       -0.1659
     24 F         -22.5967   -2.8188   29.0454 F       1  UNL1       -0.1659
     25 F         -24.6883   -2.7429   28.7127 F       1  UNL1       -0.1659
     26 C         -30.5927   -2.9484   31.2555 C.ar    1  UNL1        0.1874
     27 C         -30.4700   -4.2643   31.0238 C.ar    1  UNL1        0.2300
     28 C         -31.2608   -5.1510   31.4187 C.ar    1  UNL1        0.0452
     29 C         -32.2819   -4.8603   32.4093 C.ar    1  UNL1        0.0035
     30 C         -32.3936   -3.5455   32.7309 C.ar    1  UNL1        0.0033
     31 C         -31.6120   -2.5285   32.1627 C.ar    1  UNL1        0.0409
     32 O         -29.4471   -4.6672   30.1455 O.3     1  UNL1       -0.2833
@<TRIPOS>BOND
     1     2     7    1
     2     7     8    1
     3     9    10    1
     4    12    13    1
     5    12    17    1
     6    17    18   ar
     7    17    19   ar
     8     5    20    1
     9    20    21    1
    10    20    22    2
    11    10    23    1
    12    10    24    1
    13    10    25    1
    14    21    26    1
    15    27    32    1
    16    12    11    1
    17    26    27   ar
    18    27    28   ar
    19    28    29   ar
    20    29    30   ar
    21    30    31   ar
    22    31    26   ar
    23     1     2   ar
    24     2     3   ar
    25     3     4   ar
    26     4     6   ar
    27     6     5   ar
    28     5     1   ar
    29     8     9   ar
    30     9    14   ar
    31    14    15   ar
    32    15    16   ar
    33    16    11   ar
    34    11     8   ar
