@<TRIPOS>MOLECULE
No_2466-gen_results/8p0m/2024-11-26-14-13-15/
 12 13 0 0 0
SMALL
GASTEIGER

@<TRIPOS>ATOM
      1 C         -28.0162   -0.8135   28.8779 C.ar    1  UNL1        0.0000
      2 C         -28.4690   -0.7850   29.8287 C.ar    1  UNL1        0.0000
      3 C         -27.1356    0.2359   28.5352 C.ar    1  UNL1        0.0000
      4 C         -26.3351    0.2900   27.2835 C.ar    1  UNL1        0.0000
      5 C         -28.3692    0.1957   30.9236 C.ar    1  UNL1        0.0000
      6 C         -27.5158    1.2655   30.6540 C.ar    1  UNL1        0.0000
      7 C         -26.8411    1.2942   29.4761 C.ar    1  UNL1        0.0000
      8 C         -25.3612    0.7750   26.9673 C.ar    1  UNL1        0.0000
      9 C         -24.6557    0.7452   25.7261 C.ar    1  UNL1        0.0000
     10 C         -25.3748    0.0010   24.6998 C.ar    1  UNL1        0.0000
     11 C         -26.5372   -0.5014   25.0059 C.ar    1  UNL1        0.0000
     12 C         -27.0691   -0.4260   26.2029 C.ar    1  UNL1        0.0000
@<TRIPOS>BOND
     1     3     4    1
     2     4     8   ar
     3     8     9   ar
     4     9    10   ar
     5    10    11   ar
     6    11    12   ar
     7    12     4   ar
     8     1     2   ar
     9     2     5   ar
    10     5     6   ar
    11     6     7   ar
    12     7     3   ar
    13     3     1   ar
