@<TRIPOS>MOLECULE
No_2467-gen_results/8p0m/2024-11-26-14-13-15/
 12 13 0 0 0
SMALL
GASTEIGER

@<TRIPOS>ATOM
      1 O         -28.1229   -1.3353   28.4874 O.2     1  UNL1       -0.2745
      2 C         -27.4806   -0.4044   28.7094 C.2     1  UNL1        0.2304
      3 C         -26.3804   -0.0867   27.9394 C.3     1  UNL1        0.1113
      4 N         -27.4232    0.1749   30.0549 N.am    1  UNL1       -0.2734
      5 C         -25.8482    1.0048   27.9942 C.ar    1  UNL1       -0.0154
      6 C         -24.7535    1.5238   27.1444 C.ar    1  UNL1       -0.0040
      7 C         -23.8637    2.5487   27.5414 C.ar    1  UNL1       -0.0003
      8 C         -26.6965    1.3093   30.2824 C.3     1  UNL1        0.1199
      9 C         -25.7549    1.8161   29.2767 C.ar    1  UNL1       -0.0058
     10 C         -24.1164    3.2268   28.6574 C.ar    1  UNL1       -0.0003
     11 C         -24.9553    2.8772   29.5571 C.ar    1  UNL1       -0.0029
     12 C         -28.4417   -0.3150   30.9748 C.3     1  UNL1        0.1152
@<TRIPOS>BOND
     1     1     2    2
     2     2     3    1
     3     2     4   am
     4     4     8    1
     5     4    12    1
     6     3     5    1
     7     9     8    1
     8     5     6   ar
     9     6     7   ar
    10     7    10   ar
    11    10    11   ar
    12    11     9   ar
    13     9     5   ar
