@<TRIPOS>MOLECULE
No_2468-gen_results/8p0m/2024-11-26-14-13-15/
 11 11 0 0 0
SMALL
GASTEIGER

@<TRIPOS>ATOM
      1 O         -28.1229   -1.3353   28.4874 O.2     1  UNL1       -0.2730
      2 C         -27.4806   -0.4044   28.7094 C.2     1  UNL1        0.2459
      3 C         -26.3804   -0.0867   27.9394 C.3     1  UNL1        0.1131
      4 N         -27.6664    0.4468   29.8988 N.am    1  UNL1       -0.2032
      5 C         -25.1773   -0.4388   28.3946 C.ar    1  UNL1       -0.0130
      6 C         -23.9281   -0.2469   27.6677 C.ar    1  UNL1       -0.0038
      7 C         -22.6980   -0.4046   28.4363 C.ar    1  UNL1       -0.0003
      8 C         -22.7797   -1.1458   29.6708 C.ar    1  UNL1       -0.0000
      9 C         -23.9693   -1.4630   30.2503 C.ar    1  UNL1       -0.0003
     10 C         -25.1522   -1.1248   29.6547 C.ar    1  UNL1       -0.0038
     11 C         -28.7600    0.1972   30.7703 C.3     1  UNL1        0.1385
@<TRIPOS>BOND
     1     1     2    2
     2     2     3    1
     3     2     4   am
     4     4    11    1
     5     3     5    1
     6     5     6   ar
     7     6     7   ar
     8     7     8   ar
     9     8     9   ar
    10     9    10   ar
    11    10     5   ar
