@<TRIPOS>MOLECULE
No_2469-gen_results/8p0m/2024-11-26-14-13-15/
 14 14 0 0 0
SMALL
GASTEIGER

@<TRIPOS>ATOM
      1 C         -28.0162   -0.8135   28.8779 C.ar    1  UNL1        0.0098
      2 C         -28.4690   -0.7850   29.8287 C.ar    1  UNL1        0.0799
      3 C         -26.5455   -0.8762   28.8500 C.ar    1  UNL1        0.0353
      4 C         -25.8041   -1.0324   30.0571 C.ar    1  UNL1        0.0372
      5 C         -26.5373   -1.0386   31.2171 C.ar    1  UNL1        0.0070
      6 C         -27.8843   -0.9532   31.1862 C.ar    1  UNL1        0.0071
      7 BR        -23.9630   -1.1368   30.0387 Br      1  UNL1       -0.0489
      8 C         -30.0682   -0.6350   29.7407 C.2     1  UNL1        0.3878
      9 O         -30.6138    0.3003   30.4017 O.co2   1  UNL1       -0.2406
     10 O         -30.6672   -1.4548   29.0837 O.co2   1  UNL1       -0.2406
     11 P         -25.5008   -0.7741   27.3338 P.3     1  UNL1        0.1400
     12 O         -24.2514   -0.3578   27.8235 O.3     1  UNL1       -0.3542
     13 O         -26.1799    0.4189   26.6672 O.2     1  UNL1       -0.4557
     14 O         -25.5749   -1.9392   26.6073 O.3     1  UNL1       -0.3542
@<TRIPOS>BOND
     1     4     7    1
     2     2     8    1
     3     8     9   ar
     4     8    10   ar
     5     3    11    1
     6    11    12    1
     7    11    13    2
     8    11    14    1
     9     1     2   ar
    10     2     6   ar
    11     6     5   ar
    12     5     4   ar
    13     4     3   ar
    14     3     1   ar
