@<TRIPOS>MOLECULE
No_2470-gen_results/8p0m/2024-11-26-14-13-15/
 15 15 0 0 0
SMALL
GASTEIGER

@<TRIPOS>ATOM
      1 C         -28.0162   -0.8135   28.8779 C.3     1  UNL1        0.1386
      2 C         -27.0636   -0.1190   28.6079 C.ar    1  UNL1       -0.0007
      3 C         -26.9287    1.1713   29.0083 C.ar    1  UNL1       -0.0026
      4 C         -25.7702    2.0341   28.6884 C.ar    1  UNL1        0.0036
      5 C         -24.7141    1.4431   27.9188 C.ar    1  UNL1        0.0714
      6 C         -24.8590    0.0783   27.5836 C.ar    1  UNL1        0.0036
      7 C         -25.9647   -0.6606   27.9164 C.ar    1  UNL1       -0.0026
      8 N         -29.1701   -0.2984   28.9471 N.pl3   1  UNL1       -0.2319
      9 C         -30.1841   -0.8920   29.7048 C.2     1  UNL1        0.0759
     10 C         -23.5181    2.1583   27.5785 C.3     1  UNL1        0.4186
     11 F         -22.6012    1.6046   27.3545 F       1  UNL1       -0.1659
     12 F         -23.8885    2.9431   26.4072 F       1  UNL1       -0.1659
     13 F         -23.2615    3.1474   28.5298 F       1  UNL1       -0.1659
     14 C         -30.2079   -0.9923   30.9033 C.2     1  UNL1       -0.0084
     15 C         -31.1566   -1.7812   31.7100 C.3     1  UNL1        0.0321
@<TRIPOS>BOND
     1     1     2    1
     2     1     8    1
     3     8     9    1
     4     5    10    1
     5    10    11    1
     6    10    12    1
     7    10    13    1
     8     9    14    2
     9    14    15    1
    10     2     3   ar
    11     3     4   ar
    12     4     5   ar
    13     5     6   ar
    14     6     7   ar
    15     7     2   ar
