@<TRIPOS>MOLECULE
No_2471-gen_results/8p0m/2024-11-26-14-13-15/
 13 14 0 0 0
SMALL
GASTEIGER

@<TRIPOS>ATOM
      1 C         -28.0162   -0.8135   28.8779 C.ar    1  UNL1       -0.0000
      2 C         -28.4690   -0.7850   29.8287 C.ar    1  UNL1        0.0000
      3 C         -26.5455   -0.8762   28.8500 C.ar    1  UNL1       -0.0000
      4 C         -25.6825   -0.7773   27.6829 C.ar    1  UNL1       -0.0000
      5 C         -27.9181   -1.0034   31.1877 C.ar    1  UNL1        0.0000
      6 C         -26.5308   -1.0794   31.2463 C.ar    1  UNL1        0.0000
      7 C         -25.7798   -1.0462   30.0905 C.ar    1  UNL1       -0.0000
      8 C         -25.8976    0.2387   26.7449 C.ar    1  UNL1       -0.0003
      9 C         -24.9256    0.7629   26.0322 C.ar    1  UNL1       -0.0043
     10 C         -23.6887    0.9127   26.4602 C.ar    1  UNL1       -0.0218
     11 C         -22.7183    1.8257   25.8214 C.3     1  UNL1        0.0310
     12 C         -23.2638    0.4780   27.7656 C.ar    1  UNL1       -0.0043
     13 C         -24.2311   -0.2451   28.5286 C.ar    1  UNL1       -0.0003
@<TRIPOS>BOND
     1     3     4    1
     2    10    11    1
     3     4     8   ar
     4     8     9   ar
     5     9    10   ar
     6    10    12   ar
     7    12    13   ar
     8    13     4   ar
     9     1     2   ar
    10     2     5   ar
    11     5     6   ar
    12     6     7   ar
    13     7     3   ar
    14     3     1   ar
