@<TRIPOS>MOLECULE
No_2472-gen_results/8p0m/2024-11-26-14-13-15/
 17 18 0 0 0
SMALL
GASTEIGER

@<TRIPOS>ATOM
      1 C         -28.0162   -0.8135   28.8779 C.3     1  UNL1        0.0310
      2 C         -27.0636   -0.1189   28.6079 C.ar    1  UNL1       -0.0218
      3 C         -26.9716    0.7139   27.5060 C.ar    1  UNL1       -0.0040
      4 C         -25.8205    1.4909   27.1160 C.ar    1  UNL1        0.0063
      5 C         -24.8579    1.3421   27.6008 C.ar    1  UNL1        0.0798
      6 C         -24.6224    0.5295   28.8144 C.ar    1  UNL1        0.0063
      7 C         -25.7344   -0.1811   29.1908 C.ar    1  UNL1       -0.0040
      8 C         -28.6269   -0.4745   30.2487 C.3     1  UNL1        0.0310
      9 C         -28.3882    0.5550   30.7585 C.ar    1  UNL1       -0.0218
     10 C         -29.0378    0.9141   32.0954 C.ar    1  UNL1       -0.0043
     11 C         -23.5174    2.1235   27.2622 C.2     1  UNL1        0.3878
     12 O         -23.4100    2.5448   26.0590 O.co2   1  UNL1       -0.2406
     13 O         -22.4782    2.2180   28.0530 O.co2   1  UNL1       -0.2406
     14 C         -28.7801    2.1642   32.7596 C.ar    1  UNL1       -0.0003
     15 C         -27.8380    3.0569   32.1364 C.ar    1  UNL1       -0.0000
     16 C         -27.1833    2.6866   30.9547 C.ar    1  UNL1       -0.0003
     17 C         -27.4371    1.5164   30.3622 C.ar    1  UNL1       -0.0043
@<TRIPOS>BOND
     1     1     8    1
     2     5    11    1
     3    11    12   ar
     4    11    13   ar
     5     8     9    1
     6     1     2    1
     7     2     3   ar
     8     3     4   ar
     9     4     5   ar
    10     5     6   ar
    11     6     7   ar
    12     7     2   ar
    13     9    10   ar
    14    10    14   ar
    15    14    15   ar
    16    15    16   ar
    17    16    17   ar
    18    17     9   ar
