@<TRIPOS>MOLECULE
No_2473-gen_results/8p0m/2024-11-26-14-13-15/
 9 9 0 0 0
SMALL
GASTEIGER

@<TRIPOS>ATOM
      1 C         -28.0162   -0.8135   28.8779 C.ar    1  UNL1       -0.0000
      2 C         -27.0636   -0.1189   28.6079 C.ar    1  UNL1       -0.0003
      3 C         -27.0010    0.6913   27.4910 C.2     1  UNL1       -0.0046
      4 C         -25.7770    1.0214   26.9135 C.2     1  UNL1       -0.0258
      5 C         -25.5749    1.7787   25.7418 C.3     1  UNL1        0.0307
      6 C         -27.9716   -1.6248   30.1092 C.ar    1  UNL1       -0.0000
      7 C         -26.7490   -1.8207   30.7693 C.ar    1  UNL1       -0.0000
      8 C         -25.6191   -1.1859   30.3383 C.ar    1  UNL1       -0.0000
      9 C         -25.7359   -0.3338   29.1756 C.ar    1  UNL1       -0.0000
@<TRIPOS>BOND
     1     2     3    1
     2     3     4    2
     3     4     5    1
     4     1     2   ar
     5     2     9   ar
     6     9     8   ar
     7     8     7   ar
     8     7     6   ar
     9     6     1   ar
