@<TRIPOS>MOLECULE
No_2475-gen_results/8p0m/2024-11-26-14-13-15/
 8 8 0 0 0
SMALL
GASTEIGER

@<TRIPOS>ATOM
      1 C         -28.0162   -0.8135   28.8779 C.ar    1  UNL1        0.0369
      2 C         -28.4690   -0.7850   29.8287 C.ar    1  UNL1        0.1387
      3 C         -26.5455   -0.8762   28.8500 C.ar    1  UNL1        0.0031
      4 C         -25.8041   -1.0324   30.0571 C.ar    1  UNL1        0.0002
      5 C         -27.9437   -0.9869   31.2075 C.ar    1  UNL1        0.0369
      6 C         -26.5825   -1.0386   31.2231 C.ar    1  UNL1        0.0031
      7 O         -29.9267   -0.7257   29.8772 O.3     1  UNL1       -0.4714
      8 C         -30.7101   -1.5564   30.3394 C.3     1  UNL1        0.2525
@<TRIPOS>BOND
     1     2     7    1
     2     7     8    1
     3     1     2   ar
     4     2     5   ar
     5     5     6   ar
     6     6     4   ar
     7     4     3   ar
     8     3     1   ar
