@<TRIPOS>MOLECULE
No_2476-gen_results/8p0m/2024-11-26-14-13-15/
 11 11 0 0 0
SMALL
GASTEIGER

@<TRIPOS>ATOM
      1 C         -28.0162   -0.8135   28.8779 C.ar    1  UNL1       -0.0000
      2 C         -27.0636   -0.1189   28.6079 C.ar    1  UNL1       -0.0000
      3 C         -25.7647   -0.3897   29.0360 C.ar    1  UNL1       -0.0006
      4 C         -25.5296   -1.5302   29.9014 C.ar    1  UNL1       -0.0000
      5 C         -26.6577   -2.2915   30.2035 C.ar    1  UNL1       -0.0000
      6 C         -27.8548   -1.9555   29.7630 C.ar    1  UNL1       -0.0000
      7 C         -24.5441    0.4126   28.7379 C.2     1  UNL1       -0.0071
      8 C         -24.4731    1.2065   27.7114 C.2     1  UNL1       -0.0250
      9 C         -25.5225    1.5146   26.8271 C.3     1  UNL1        0.0279
     10 C         -23.1407    1.8483   27.3980 C.3     1  UNL1        0.1314
     11 N         -22.1893    1.7211   28.2886 N.3     1  UNL1       -0.1266
@<TRIPOS>BOND
     1     3     7    1
     2     7     8    2
     3     8     9    1
     4     8    10    1
     5    10    11    1
     6     1     2   ar
     7     2     3   ar
     8     3     4   ar
     9     4     5   ar
    10     5     6   ar
    11     6     1   ar
