@<TRIPOS>MOLECULE
No_2477-gen_results/8p0m/2024-11-26-14-13-15/
 29 32 0 0 0
SMALL
GASTEIGER

@<TRIPOS>ATOM
      1 C         -28.0162   -0.8135   28.8779 C.ar    1  UNL1       -0.0040
      2 C         -28.4690   -0.7850   29.8287 C.ar    1  UNL1       -0.0003
      3 C         -27.1356    0.2359   28.5352 C.ar    1  UNL1       -0.0182
      4 C         -26.8745    1.2825   29.3982 C.ar    1  UNL1       -0.0040
      5 C         -28.3613    0.1987   30.9244 C.ar    1  UNL1       -0.0000
      6 C         -27.5277    1.2234   30.6356 C.ar    1  UNL1       -0.0003
      7 C         -26.3987    0.2949   27.2279 C.3     1  UNL1        0.0519
      8 C         -25.0392    0.2356   27.3538 C.3     1  UNL1        0.0798
      9 C         -27.0287    0.3958   26.0087 C.ar    1  UNL1        0.0009
     10 C         -28.3713    0.5360   25.8782 C.ar    1  UNL1       -0.0009
     11 C         -28.8860    0.5071   24.5687 C.ar    1  UNL1        0.0189
     12 C         -30.2841    0.5712   24.3900 C.ar    1  UNL1        0.0015
     13 C         -30.8318    0.4669   23.2694 C.ar    1  UNL1        0.0000
     14 C         -32.2913    0.4809   23.1623 C.ar    1  UNL1        0.0000
     15 C         -33.0791    0.7124   24.2845 C.ar    1  UNL1        0.0000
     16 C         -31.2093    0.7980   25.5598 C.ar    1  UNL1        0.0000
     17 C         -32.4961    0.8631   25.4489 C.ar    1  UNL1        0.0000
     18 C         -26.2284    0.2996   24.8558 C.ar    1  UNL1        0.0949
     19 C         -24.3180    1.0789   28.2565 C.3     1  UNL1        0.2832
     20 C         -22.9584    1.1049   28.1290 C.ar    1  UNL1        0.0378
     21 C         -22.3294    2.2117   27.3630 C.ar    1  UNL1        0.0009
     22 C         -22.1096    0.1273   28.7374 C.ar    1  UNL1        0.0009
     23 C         -28.0800    0.3889   23.4762 C.ar    1  UNL1        0.0988
     24 N         -26.7054    0.2959   23.6724 N.ar    1  UNL1       -0.2426
     25 F         -24.5701    1.1583   29.3179 F       1  UNL1       -0.1996
     26 C         -20.6877    0.1559   28.5893 C.ar    1  UNL1       -0.0002
     27 C         -20.8527    2.0982   27.2861 C.ar    1  UNL1       -0.0002
     28 C         -20.1503    1.1674   27.9764 C.ar    1  UNL1       -0.0000
     29 F         -24.7774    2.4655   27.8543 F       1  UNL1       -0.1996
@<TRIPOS>BOND
     1     3     7    1
     2     7     8    1
     3     7     9    1
     4    11    12    1
     5     8    19    1
     6    19    20    1
     7    19    25    1
     8    19    29    1
     9    12    13   ar
    10    13    14   ar
    11    14    15   ar
    12    15    17   ar
    13    17    16   ar
    14    16    12   ar
    15     1     2   ar
    16     2     5   ar
    17     5     6   ar
    18     6     4   ar
    19     4     3   ar
    20     3     1   ar
    21     9    10   ar
    22    10    11   ar
    23    11    23   ar
    24    23    24   ar
    25    24    18   ar
    26    18     9   ar
    27    20    21   ar
    28    21    27   ar
    29    27    28   ar
    30    28    26   ar
    31    26    22   ar
    32    22    20   ar
