@<TRIPOS>MOLECULE
No_2478-gen_results/8p0m/2024-11-26-14-13-15/
 26 27 0 0 0
SMALL
GASTEIGER

@<TRIPOS>ATOM
      1 C         -28.0162   -0.8135   28.8779 C.ar    1  UNL1        0.0549
      2 C         -27.0636   -0.1189   28.6079 C.ar    1  UNL1        0.0006
      3 C         -27.0010    0.6913   27.4910 C.ar    1  UNL1       -0.0187
      4 C         -28.1373    0.7363   26.6350 C.ar    1  UNL1        0.0006
      5 C         -29.2360    0.0765   27.0690 C.ar    1  UNL1        0.0549
      6 C         -29.2177   -0.6429   28.1747 C.ar    1  UNL1        0.0091
      7 C         -27.7867   -1.6669   30.1199 C.2     1  UNL1        0.2653
      8 N         -28.7145   -2.0772   30.7562 N.am    1  UNL1       -0.1894
      9 O         -26.6172   -1.8743   30.5618 O.2     1  UNL1       -0.2684
     10 C         -28.6095   -3.1409   31.8283 C.3     1  UNL1        0.2288
     11 C         -30.4480    0.1660   26.2310 C.2     1  UNL1        0.2648
     12 O         -30.4959    0.1973   25.0308 O.2     1  UNL1       -0.2684
     13 N         -31.6592    0.0033   26.8749 N.am    1  UNL1       -0.1998
     14 C         -32.9024   -0.0345   26.1889 C.3     1  UNL1        0.1388
     15 C         -29.3154   -4.3064   31.2202 C.2     1  UNL1        0.3865
     16 O         -29.3346   -5.2543   31.9682 O.co2   1  UNL1       -0.2437
     17 O         -29.2379   -4.5134   29.9247 O.co2   1  UNL1       -0.2437
     18 C         -25.7291    1.3562   26.9970 C.3     1  UNL1        0.0377
     19 C         -24.6297    0.9626   27.6742 C.ar    1  UNL1       -0.0190
     20 C         -23.9296    1.7984   28.5903 C.ar    1  UNL1       -0.0040
     21 C         -22.6946    1.3858   29.1813 C.ar    1  UNL1       -0.0003
     22 C         -22.2025    0.0705   28.9406 C.ar    1  UNL1       -0.0000
     23 C         -23.0325   -0.7970   28.2223 C.ar    1  UNL1       -0.0003
     24 C         -24.1532   -0.3575   27.6468 C.ar    1  UNL1       -0.0040
     25 C         -25.5613    1.3558   25.4972 C.3     1  UNL1        0.0088
     26 C         -26.0458    2.9557   27.4087 C.3     1  UNL1        0.0088
@<TRIPOS>BOND
     1     1     7    1
     2     7     8   am
     3     7     9    2
     4     8    10    1
     5     5    11    1
     6    11    12    2
     7    11    13   am
     8    13    14    1
     9    10    15    1
    10    15    16   ar
    11    15    17   ar
    12     3    18    1
    13    18    19    1
    14    18    25    1
    15    18    26    1
    16     1     2   ar
    17     2     3   ar
    18     3     4   ar
    19     4     5   ar
    20     5     6   ar
    21     6     1   ar
    22    19    20   ar
    23    20    21   ar
    24    21    22   ar
    25    22    23   ar
    26    23    24   ar
    27    24    19   ar
