@<TRIPOS>MOLECULE
No_248-gen_results/8p0m/2024-11-26-14-13-15/
 25 28 0 0 0
SMALL
GASTEIGER

@<TRIPOS>ATOM
      1 C         -28.0162   -0.8135   28.8779 C.ar    1  UNL1        0.0589
      2 C         -27.0636   -0.1190   28.6079 C.ar    1  UNL1        0.0072
      3 C         -26.9716    0.7139   27.5060 C.ar    1  UNL1       -0.0196
      4 C         -28.1053    0.7744   26.6421 C.ar    1  UNL1        0.0138
      5 C         -29.2008    0.1044   27.0527 C.ar    1  UNL1        0.0818
      6 C         -29.2096   -0.6029   28.1853 C.ar    1  UNL1        0.0305
      7 N         -30.2055    0.3215   26.0588 N.ar    1  UNL1       -0.2438
      8 C         -30.0515    0.6517   24.8862 C.ar    1  UNL1        0.0988
      9 C         -28.8853    1.4329   24.5274 C.ar    1  UNL1        0.0207
     10 C         -27.8608    1.4746   25.4255 C.ar    1  UNL1        0.0028
     11 CL        -28.0702   -1.7667   30.3727 Cl      1  UNL1       -0.0822
     12 C         -25.6379    1.3381   27.1650 C.3     1  UNL1        0.0339
     13 C         -25.2649    2.5522   27.4620 C.3     1  UNL1        0.0981
     14 C         -25.7509    3.3122   28.5174 C.2     1  UNL1        0.2269
     15 N         -26.5726    4.1567   28.5908 N.am    1  UNL1       -0.2795
     16 C         -27.1732    4.6030   29.7058 C.3     1  UNL1        0.0934
     17 O         -25.4272    2.6774   29.6922 O.2     1  UNL1       -0.2748
     18 C         -26.9028    4.9170   27.3169 C.3     1  UNL1        0.0934
     19 C         -24.3190    3.2561   26.5958 C.3     1  UNL1        0.0981
     20 C         -28.0078    5.2991   29.8405 C.3     1  UNL1        0.0216
     21 C         -28.0717    5.8164   27.4380 C.3     1  UNL1        0.0216
     22 C         -28.5500    6.1389   28.7002 C.3     1  UNL1        0.0035
     23 N         -23.6068    2.4948   25.6948 N.3     1  UNL1       -0.2175
     24 C         -24.8258    0.5424   26.2813 C.3     1  UNL1        0.0237
     25 C         -23.8838    1.2124   25.5253 C.3     1  UNL1        0.0891
@<TRIPOS>BOND
     1     1    11    1
     2     3    12    1
     3    12    13    1
     4    13    14    1
     5    14    15   am
     6    15    16    1
     7    14    17    2
     8    15    18    1
     9    13    19    1
    10    20    22    1
    11    21    22    1
    12    19    23    1
    13    12    24    1
    14    23    25    1
    15    24    25    1
    16    16    20    1
    17    21    18    1
    18     5     7   ar
    19     7     8   ar
    20     8     9   ar
    21     9    10   ar
    22    10     4   ar
    23     1     2   ar
    24     2     3   ar
    25     3     4   ar
    26     4     5   ar
    27     5     6   ar
    28     6     1   ar
