@<TRIPOS>MOLECULE
No_2480-gen_results/8p0m/2024-11-26-14-13-15/
 14 15 0 0 0
SMALL
GASTEIGER

@<TRIPOS>ATOM
      1 C         -28.0162   -0.8135   28.8779 C.ar    1  UNL1        0.0187
      2 C         -27.0636   -0.1190   28.6079 C.ar    1  UNL1        0.0090
      3 C         -26.9716    0.7139   27.5060 C.3     1  UNL1        0.1836
      4 C         -25.8205    1.4909   27.1160 C.3     1  UNL1        0.0515
      5 C         -24.6562    1.4242   27.9180 C.3     1  UNL1        0.1108
      6 C         -24.6847    0.5901   29.0659 C.3     1  UNL1        0.0390
      7 C         -25.8099   -0.1266   29.3338 C.ar    1  UNL1       -0.0039
      8 C         -28.0540   -1.5468   30.1892 C.ar    1  UNL1        0.0986
      9 N         -26.8785   -1.7467   30.8493 N.ar    1  UNL1       -0.2427
     10 C         -25.8061   -0.9985   30.5502 C.ar    1  UNL1        0.0944
     11 C         -23.4516    2.2263   27.5883 C.2     1  UNL1        0.3647
     12 O         -22.5845    2.3138   28.4968 O.co2   1  UNL1       -0.2457
     13 O         -23.3265    2.7440   26.4505 O.co2   1  UNL1       -0.2457
     14 F         -27.9574    0.7495   26.6470 F       1  UNL1       -0.2324
@<TRIPOS>BOND
     1     2     3    1
     2     3     4    1
     3     4     5    1
     4     5     6    1
     5     6     7    1
     6     5    11    1
     7    11    12   ar
     8    11    13   ar
     9     3    14    1
    10     1     2   ar
    11     2     7   ar
    12     7    10   ar
    13    10     9   ar
    14     9     8   ar
    15     8     1   ar
