@<TRIPOS>MOLECULE
No_2482-gen_results/8p0m/2024-11-26-14-13-15/
 15 15 0 0 0
SMALL
GASTEIGER

@<TRIPOS>ATOM
      1 C         -28.0162   -0.8135   28.8779 C.3     1  UNL1        0.0535
      2 C         -27.0636   -0.1189   28.6079 C.ar    1  UNL1       -0.0202
      3 C         -27.0010    0.6913   27.4910 C.ar    1  UNL1       -0.0043
      4 C         -25.8548    1.4825   27.0830 C.ar    1  UNL1        0.0035
      5 C         -24.6901    1.4526   27.8807 C.ar    1  UNL1        0.0714
      6 C         -24.7379    0.6010   29.0416 C.ar    1  UNL1        0.0035
      7 C         -25.8234   -0.1688   29.3887 C.ar    1  UNL1       -0.0043
      8 C         -29.2252   -0.0469   29.2805 C.3     1  UNL1        0.1433
      9 N         -30.2874   -0.8198   29.6756 N.2     1  UNL1       -0.1926
     10 C         -23.5200    2.2054   27.5442 C.3     1  UNL1        0.4186
     11 F         -23.5972    2.9425   26.6256 F       1  UNL1       -0.1659
     12 F         -22.9826    2.9094   28.5746 F       1  UNL1       -0.1659
     13 F         -22.4269    1.3397   27.3016 F       1  UNL1       -0.1659
     14 C         -30.1322   -1.8889   30.4416 C.1     1  UNL1        0.2353
     15 O         -29.0215   -2.6041   30.3987 O.2     1  UNL1       -0.2102
@<TRIPOS>BOND
     1     1     2    1
     2     1     8    1
     3     8     9    1
     4     5    10    1
     5    10    11    1
     6    10    12    1
     7    10    13    1
     8     9    14    2
     9    14    15    2
    10     2     3   ar
    11     3     4   ar
    12     4     5   ar
    13     5     6   ar
    14     6     7   ar
    15     7     2   ar
