@<TRIPOS>MOLECULE
No_2484-gen_results/8p0m/2024-11-26-14-13-15/
 34 36 0 0 0
SMALL
GASTEIGER

@<TRIPOS>ATOM
      1 CL        -28.1493   -0.8198   28.9079 Cl      1  UNL1       -0.1054
      2 C         -26.9116   -0.0797   28.9452 C.3     1  UNL1        0.1239
      3 C         -26.0490   -0.0718   27.8591 C.ar    1  UNL1       -0.0034
      4 C         -26.5011    0.6020   26.7507 C.ar    1  UNL1       -0.0028
      5 C         -25.7098    0.5635   25.4964 C.ar    1  UNL1       -0.0003
      6 C         -24.3930    0.2711   25.6532 C.ar    1  UNL1       -0.0000
      7 C         -23.8820    0.0281   26.8869 C.ar    1  UNL1       -0.0003
      8 C         -24.6879   -0.2122   27.9888 C.ar    1  UNL1       -0.0028
      9 C         -26.3686    0.4854   30.2422 C.ar    1  UNL1       -0.0037
     10 C         -25.9360   -0.4755   31.1148 C.ar    1  UNL1       -0.0269
     11 C         -25.0216   -0.1417   31.9756 C.ar    1  UNL1       -0.0260
     12 C         -24.4257   -1.1092   32.9023 C.3     1  UNL1        0.0307
     13 C         -26.3479   -1.8166   31.0976 C.3     1  UNL1        0.0534
     14 C         -27.3673   -2.1613   30.2062 C.3     1  UNL1        0.1825
     15 C         -28.1566   -3.4105   30.1351 C.2     1  UNL1        0.3327
     16 CL        -27.2505   -1.9441   29.1730 Cl      1  UNL1       -0.1027
     17 O         -27.6314   -4.3856   30.5525 O.2     1  UNL1       -0.2487
     18 O         -29.4435   -3.4117   30.1097 O.3     1  UNL1       -0.4375
     19 C         -24.5308    1.2644   32.0217 C.ar    1  UNL1       -0.0046
     20 C         -30.0607   -4.6270   30.3110 C.3     1  UNL1        0.2926
     21 C         -31.0845   -4.9395   29.3578 C.2     1  UNL1        0.2703
     22 O         -31.2062   -4.2840   28.5001 O.2     1  UNL1       -0.2708
     23 N         -31.9472   -5.9576   29.5980 N.am    1  UNL1       -0.2765
     24 C         -31.9275   -6.8336   30.7823 C.3     1  UNL1        0.0935
     25 C         -32.2280   -7.9677   30.7882 C.3     1  UNL1        0.0216
     26 C         -32.7451   -8.5877   29.5928 C.3     1  UNL1        0.0035
     27 C         -32.7907   -7.8227   28.4045 C.3     1  UNL1        0.0216
     28 C         -32.2896   -6.6080   28.4420 C.3     1  UNL1        0.0935
     29 C         -24.8139    2.3021   31.1859 C.ar    1  UNL1        0.0032
     30 C         -25.8563    1.8946   30.2259 C.ar    1  UNL1        0.0686
     31 C         -26.3483    2.9287   29.3378 C.3     1  UNL1        0.4183
     32 F         -25.5664    3.1307   28.3879 F       1  UNL1       -0.1659
     33 F         -27.5600    2.5526   28.8735 F       1  UNL1       -0.1659
     34 F         -26.5742    3.9913   30.1470 F       1  UNL1       -0.1659
@<TRIPOS>BOND
     1     1     2    1
     2     2     3    1
     3     2     9    1
     4    11    12    1
     5    10    13    1
     6    13    14    1
     7    14    15    1
     8    14    16    1
     9    15    17    2
    10    15    18    1
    11    18    20    1
    12    20    21    1
    13    21    22    2
    14    21    23   am
    15    23    24    1
    16    25    26    1
    17    23    28    1
    18    27    28    1
    19    30    31    1
    20    31    32    1
    21    31    33    1
    22    31    34    1
    23    24    25    1
    24    26    27    1
    25     9    10   ar
    26    10    11   ar
    27    11    19   ar
    28    19    29   ar
    29    29    30   ar
    30    30     9   ar
    31     3     4   ar
    32     4     5   ar
    33     5     6   ar
    34     6     7   ar
    35     7     8   ar
    36     8     3   ar
