@<TRIPOS>MOLECULE
No_2485-gen_results/8p0m/2024-11-26-14-13-15/
 20 22 0 0 0
SMALL
GASTEIGER

@<TRIPOS>ATOM
      1 C         -28.0162   -0.8135   28.8779 C.ar    1  UNL1        0.0296
      2 C         -27.0636   -0.1189   28.6079 C.ar    1  UNL1        0.1401
      3 C         -26.9287    1.1713   29.0083 C.ar    1  UNL1        0.0296
      4 C         -27.9560    1.7411   29.7840 C.ar    1  UNL1        0.0023
      5 C         -29.0569   -0.3271   29.7466 C.ar    1  UNL1        0.0023
      6 C         -28.9828    0.9722   30.1516 C.ar    1  UNL1        0.0001
      7 F         -26.0345   -0.5985   27.8629 F       1  UNL1       -0.2042
      8 C         -30.0734    1.5046   31.0074 C.ar    1  UNL1        0.0002
      9 C         -31.1156    1.6651   30.9505 C.ar    1  UNL1        0.0031
     10 C         -32.0602    2.1619   31.5936 C.ar    1  UNL1        0.0375
     11 C         -31.6481    2.7227   32.8919 C.ar    1  UNL1        0.1453
     12 C         -30.3473    2.6246   33.2145 C.ar    1  UNL1        0.0375
     13 C         -29.4282    2.0658   32.3353 C.ar    1  UNL1        0.0031
     14 O         -32.5543    3.3000   33.7268 O.3     1  UNL1       -0.4535
     15 C         -32.1225    4.1808   34.5802 C.ar    1  UNL1        0.1453
     16 C         -31.2935    4.0416   35.3607 C.ar    1  UNL1        0.0375
     17 C         -31.1565    5.0100   36.5295 C.ar    1  UNL1        0.0031
     18 C         -32.9799    5.4325   34.6129 C.ar    1  UNL1        0.0375
     19 C         -32.8543    6.3206   35.6199 C.ar    1  UNL1        0.0031
     20 C         -31.8966    6.1166   36.5760 C.ar    1  UNL1        0.0002
@<TRIPOS>BOND
     1     2     7    1
     2     6     8    1
     3    11    14    1
     4    14    15    1
     5    15    16   ar
     6    16    17   ar
     7    17    20   ar
     8    20    19   ar
     9    19    18   ar
    10    18    15   ar
    11     1     2   ar
    12     2     3   ar
    13     3     4   ar
    14     4     6   ar
    15     6     5   ar
    16     5     1   ar
    17     8     9   ar
    18     9    10   ar
    19    10    11   ar
    20    11    12   ar
    21    12    13   ar
    22    13     8   ar
