@<TRIPOS>MOLECULE
No_2486-gen_results/8p0m/2024-11-26-14-13-15/
 19 20 0 0 0
SMALL
GASTEIGER

@<TRIPOS>ATOM
      1 N         -28.0544   -1.0498   28.7246 N.pl3   1  UNL1       -0.1928
      2 C         -28.6544   -0.5669   29.5076 C.2     1  UNL1        0.0873
      3 C         -26.7777   -0.5807   28.6030 C.ar    1  UNL1        0.1518
      4 C         -25.7560   -1.0215   27.7024 C.ar    1  UNL1        0.0361
      5 C         -24.4173   -0.3917   27.7102 C.ar    1  UNL1        0.0083
      6 C         -24.2098    0.4827   28.5399 C.ar    1  UNL1        0.0906
      7 N         -26.0700    0.4133   29.4006 N.ar    1  UNL1       -0.2274
      8 C         -25.0570    0.9570   29.4750 C.ar    1  UNL1        0.1042
      9 C         -29.7202   -0.3982   29.7582 C.2     1  UNL1        0.0179
     10 C         -30.6384   -0.7868   28.6613 C.ar    1  UNL1        0.0013
     11 C         -31.7783   -1.4054   28.9224 C.ar    1  UNL1        0.0000
     12 C         -32.5654   -1.6290   27.8617 C.ar    1  UNL1        0.0000
     13 C         -32.2458   -1.2516   26.5169 C.ar    1  UNL1        0.0000
     14 C         -31.0779   -0.5674   26.3376 C.ar    1  UNL1        0.0000
     15 C         -30.2457   -0.3307   27.4375 C.ar    1  UNL1        0.0000
     16 C         -22.7341    1.0237   28.4911 C.3     1  UNL1        0.4200
     17 F         -22.6059    1.9177   29.4260 F       1  UNL1       -0.1658
     18 F         -21.8213    0.0230   28.7166 F       1  UNL1       -0.1658
     19 F         -22.4780    1.6079   27.3259 F       1  UNL1       -0.1658
@<TRIPOS>BOND
     1     1     2    1
     2     2     9    2
     3     9    10    1
     4     6    16    1
     5    16    17    1
     6    16    18    1
     7    16    19    1
     8     1     3    1
     9     3     4   ar
    10     4     5   ar
    11     5     6   ar
    12     6     8   ar
    13     8     7   ar
    14     7     3   ar
    15    10    11   ar
    16    11    12   ar
    17    12    13   ar
    18    13    14   ar
    19    14    15   ar
    20    15    10   ar
