@<TRIPOS>MOLECULE
No_2487-gen_results/8p0m/2024-11-26-14-13-15/
 10 10 0 0 0
SMALL
GASTEIGER

@<TRIPOS>ATOM
      1 C         -28.0162   -0.8135   28.8779 C.ar    1  UNL1       -0.0023
      2 C         -28.4690   -0.7850   29.8287 C.ar    1  UNL1        0.0020
      3 C         -26.5455   -0.8762   28.8500 C.ar    1  UNL1       -0.0003
      4 C         -25.8041   -1.0324   30.0571 C.ar    1  UNL1       -0.0000
      5 C         -27.9437   -0.9869   31.2075 C.ar    1  UNL1       -0.0023
      6 C         -26.5825   -1.0386   31.2231 C.ar    1  UNL1       -0.0003
      7 C         -30.0279   -0.6588   29.6965 C.3     1  UNL1        0.1515
      8 N         -30.5919    0.4106   30.2160 N.2     1  UNL1       -0.2687
      9 C         -31.7445    0.7196   30.1550 C.2     1  UNL1        0.0675
     10 C         -32.2727    1.9961   30.6592 C.3     1  UNL1        0.0529
@<TRIPOS>BOND
     1     2     7    1
     2     7     8    1
     3     8     9    2
     4     9    10    1
     5     1     2   ar
     6     2     5   ar
     7     5     6   ar
     8     6     4   ar
     9     4     3   ar
    10     3     1   ar
