@<TRIPOS>MOLECULE
No_2489-gen_results/8p0m/2024-11-26-14-13-15/
 23 25 0 0 0
SMALL
GASTEIGER

@<TRIPOS>ATOM
      1 C         -28.0162   -0.8135   28.8779 C.ar    1  UNL1       -0.0000
      2 C         -27.0636   -0.1190   28.6079 C.ar    1  UNL1       -0.0003
      3 C         -25.7647   -0.3897   29.0360 C.ar    1  UNL1       -0.0043
      4 C         -25.5296   -1.5302   29.9014 C.ar    1  UNL1       -0.0222
      5 C         -24.2910   -1.8751   30.3797 C.3     1  UNL1        0.0264
      6 C         -27.9084   -1.9224   29.8277 C.ar    1  UNL1       -0.0003
      7 C         -26.6512   -2.2902   30.3071 C.ar    1  UNL1       -0.0043
      8 C         -23.6310   -0.8511   31.1806 C.3     1  UNL1        0.0050
      9 C         -26.9299    1.0761   27.6775 C.ar    1  UNL1       -0.0003
     10 C         -26.4788    1.9988   27.5434 C.ar    1  UNL1       -0.0043
     11 C         -25.4753    2.3341   28.7044 C.ar    1  UNL1       -0.0222
     12 C         -25.3002    3.2169   29.3813 C.3     1  UNL1        0.0271
     13 C         -26.4492    4.1485   29.4576 C.3     1  UNL1        0.0169
     14 C         -26.5294    5.0107   30.5158 C.3     1  UNL1        0.0874
     15 C         -27.0872    4.6075   31.5615 C.ar    1  UNL1       -0.0151
     16 C         -27.9089    3.5999   31.6065 C.ar    1  UNL1       -0.0039
     17 C         -28.4299    3.0117   32.7811 C.ar    1  UNL1       -0.0003
     18 C         -24.8540    0.9483   29.2022 C.ar    1  UNL1       -0.0046
     19 C         -28.0519    3.5943   33.9667 C.ar    1  UNL1       -0.0000
     20 C         -27.2183    4.6490   34.0974 C.ar    1  UNL1       -0.0003
     21 C         -26.6845    5.1564   32.9195 C.ar    1  UNL1       -0.0039
     22 C         -26.0474    6.4044   30.3427 C.2     1  UNL1        0.2113
     23 O         -25.0648    6.8243   30.9932 O.2     1  UNL1       -0.2880
@<TRIPOS>BOND
     1     4     5    1
     2     5     8    1
     3    12    13    1
     4    13    14    1
     5    14    15    1
     6    14    22    1
     7    22    23    2
     8    12    11    1
     9     3    18   ar
    10    18    11   ar
    11    11    10   ar
    12    10     9   ar
    13     9     2   ar
    14    15    16   ar
    15    16    17   ar
    16    17    19   ar
    17    19    20   ar
    18    20    21   ar
    19    21    15   ar
    20     1     2   ar
    21     2     3   ar
    22     3     4   ar
    23     4     7   ar
    24     7     6   ar
    25     6     1   ar
