@<TRIPOS>MOLECULE
No_2490-gen_results/8p0m/2024-11-26-14-13-15/
 8 8 0 0 0
SMALL
GASTEIGER

@<TRIPOS>ATOM
      1 C         -28.0162   -0.8135   28.8779 C.ar    1  UNL1        0.0592
      2 C         -28.4690   -0.7850   29.8287 C.ar    1  UNL1        0.1424
      3 C         -27.1356    0.2359   28.5352 C.ar    1  UNL1        0.1424
      4 C         -26.8050    1.0509   29.2763 C.ar    1  UNL1        0.0298
      5 C         -28.2372    0.1503   30.9300 C.ar    1  UNL1        0.0298
      6 C         -27.3522    1.1239   30.6071 C.ar    1  UNL1        0.0046
      7 F         -26.5569    0.1568   27.2643 F       1  UNL1       -0.2041
      8 F         -29.3671   -1.8387   30.2547 F       1  UNL1       -0.2041
@<TRIPOS>BOND
     1     3     7    1
     2     2     8    1
     3     1     2   ar
     4     2     5   ar
     5     5     6   ar
     6     6     4   ar
     7     4     3   ar
     8     3     1   ar
