@<TRIPOS>MOLECULE
No_2491-gen_results/8p0m/2024-11-26-14-13-15/
 14 14 0 0 0
SMALL
GASTEIGER

@<TRIPOS>ATOM
      1 C         -28.0162   -0.8135   28.8779 C.ar    1  UNL1        0.0889
      2 C         -28.4690   -0.7850   29.8287 C.3     1  UNL1        0.3447
      3 C         -28.1816    0.4277   28.1134 C.ar    1  UNL1        0.1520
      4 C         -27.4498    0.6435   26.8500 C.ar    1  UNL1        0.1019
      5 C         -26.1815    0.0357   26.7145 C.ar    1  UNL1        0.0720
      6 C         -25.7800   -0.9326   27.6938 C.ar    1  UNL1        0.0237
      7 C         -26.5568   -1.2134   28.7413 C.ar    1  UNL1        0.0628
      8 F         -29.6747   -0.4261   29.9581 F       1  UNL1       -0.1931
      9 F         -28.2540   -1.8206   30.7815 F       1  UNL1       -0.1931
     10 CL        -25.1413    0.3510   25.4294 Cl      1  UNL1       -0.0812
     11 CL        -25.8295   -2.5631   29.6208 Cl      1  UNL1       -0.0823
     12 CL        -27.8773    1.8322   25.7014 Cl      1  UNL1       -0.0782
     13 O         -29.2205    1.0733   28.2488 O.3     1  UNL1       -0.4707
     14 C         -29.5547    1.9342   27.3841 C.3     1  UNL1        0.2525
@<TRIPOS>BOND
     1     1     2    1
     2     2     8    1
     3     2     9    1
     4     5    10    1
     5     7    11    1
     6     4    12    1
     7     3    13    1
     8    13    14    1
     9     1     3   ar
    10     3     4   ar
    11     4     5   ar
    12     5     6   ar
    13     6     7   ar
    14     7     1   ar
