@<TRIPOS>MOLECULE
No_2492-gen_results/8p0m/2024-11-26-14-13-15/
 23 26 0 0 0
SMALL
GASTEIGER

@<TRIPOS>ATOM
      1 C         -28.0162   -0.8135   28.8779 C.ar    1  UNL1       -0.0045
      2 C         -28.4690   -0.7850   29.8287 C.ar    1  UNL1        0.0010
      3 C         -27.0871    0.2903   28.6377 C.ar    1  UNL1       -0.0235
      4 C         -26.2516    0.4114   27.4223 C.3     1  UNL1        0.0339
      5 C         -28.3913    0.1041   30.9805 C.ar    1  UNL1        0.0162
      6 C         -27.5332    1.1666   30.7866 C.ar    1  UNL1        0.0671
      7 C         -26.8281    1.2557   29.6454 C.ar    1  UNL1        0.0064
      8 C         -25.6445    1.6653   27.2216 C.3     1  UNL1        0.0701
      9 C         -25.4280    2.5904   28.2367 C.2     1  UNL1        0.1654
     10 C         -26.1083    2.4673   29.4212 C.3     1  UNL1        0.1793
     11 C         -25.8864    3.5250   30.4298 C.2     1  UNL1        0.3278
     12 O         -26.9043    3.7139   31.1609 O.3     1  UNL1       -0.4476
     13 O         -24.7748    3.9957   30.6635 O.2     1  UNL1       -0.2493
     14 O         -24.5720    3.6279   27.8937 O.2     1  UNL1       -0.2951
     15 C         -26.6946    4.6669   32.1780 C.3     1  UNL1        0.2132
     16 C         -27.0026    4.2671   33.4660 C.3     1  UNL1        0.0751
     17 C         -27.4077    3.0839   33.6114 C.ar    1  UNL1       -0.0032
     18 C         -27.2990    2.5309   34.9876 C.ar    1  UNL1       -0.0029
     19 C         -27.5812    1.1156   35.2127 C.ar    1  UNL1       -0.0002
     20 C         -27.6684    0.3699   34.1465 C.ar    1  UNL1        0.0013
     21 C         -27.5951    0.7833   32.8614 C.ar    1  UNL1        0.0162
     22 C         -27.2937    2.1665   32.7933 C.ar    1  UNL1        0.0666
     23 N         -27.2049    1.9604   31.8214 N.pl3   1  UNL1       -0.2131
@<TRIPOS>BOND
     1     3     4    1
     2     8     9    1
     3     7    10    1
     4     9    10    1
     5    10    11    1
     6    11    12    1
     7    11    13    2
     8     9    14    2
     9    12    15    1
    10    15    16    1
    11    16    17    1
    12     6    23    1
    13    22    23    1
    14     8     4    1
    15    17    18   ar
    16    18    19   ar
    17    19    20   ar
    18    20    21   ar
    19    21    22   ar
    20    22    17   ar
    21     1     2   ar
    22     2     5   ar
    23     5     6   ar
    24     6     7   ar
    25     7     3   ar
    26     3     1   ar
