@<TRIPOS>MOLECULE
No_2493-gen_results/8p0m/2024-11-26-14-13-15/
 30 32 0 0 0
SMALL
GASTEIGER

@<TRIPOS>ATOM
      1 C         -28.0162   -0.8135   28.8779 C.3     1  UNL1        0.2189
      2 C         -27.0636   -0.1189   28.6079 C.2     1  UNL1        0.2590
      3 N         -25.8176   -0.3427   29.0488 N.am    1  UNL1       -0.2585
      4 C         -25.5552   -1.4726   29.7295 C.3     1  UNL1        0.0827
      5 C         -27.8546   -1.9289   29.8134 C.3     1  UNL1        0.1535
      6 C         -24.1522   -1.6919   30.1404 C.3     1  UNL1        0.0250
      7 C         -26.5175   -2.3101   30.2316 C.3     1  UNL1        0.0528
      8 C         -24.5302    0.3324   28.6197 C.ar    1  UNL1        0.0498
      9 C         -24.5076    1.4018   27.8466 C.ar    1  UNL1        0.0146
     10 C         -23.2597   -0.1753   29.2282 C.ar    1  UNL1       -0.0084
     11 C         -23.0644   -1.0241   29.8128 C.3     1  UNL1        0.0293
     12 C         -23.3050    2.0035   27.4494 C.ar    1  UNL1        0.0013
     13 C         -22.0827    1.6713   27.9686 C.ar    1  UNL1       -0.0002
     14 C         -21.9655    0.6877   28.7428 C.ar    1  UNL1       -0.0030
     15 O         -27.1927    0.9362   27.7885 O.2     1  UNL1       -0.2718
     16 O         -29.2855   -0.4936   28.7423 O.3     1  UNL1       -0.3335
     17 C         -29.7348    0.4573   28.0179 C.3     1  UNL1        0.2569
     18 C         -31.0509    0.3730   27.5932 C.2     1  UNL1        0.3945
     19 O         -31.5108    0.9052   26.7334 O.co2   1  UNL1       -0.2428
     20 O         -31.8731   -0.4627   28.2941 O.co2   1  UNL1       -0.2428
     21 O         -28.8946   -2.6699   30.1965 O.3     1  UNL1       -0.3424
     22 C         -28.9099   -3.3176   31.4189 C.3     1  UNL1        0.2524
     23 C         -29.5245   -4.6044   31.2106 C.2     1  UNL1        0.3521
     24 O         -29.2263   -5.3957   32.1126 O.2     1  UNL1       -0.2469
     25 O         -30.1518   -4.9460   30.1769 O.3     1  UNL1       -0.4190
     26 C         -31.5060   -5.2059   30.2381 C.2     1  UNL1        0.1897
     27 C         -32.0432   -5.3532   29.0828 C.2     1  UNL1        0.1268
     28 C         -31.3650   -5.2445   27.8851 C.2     1  UNL1        0.3911
     29 O         -30.2694   -5.4307   27.8169 O.co2   1  UNL1       -0.2404
     30 O         -32.0050   -4.8412   26.7928 O.co2   1  UNL1       -0.2404
@<TRIPOS>BOND
     1     1     2    1
     2     2     3   am
     3     3     4    1
     4     4     6    1
     5     4     7    1
     6     5     7    1
     7     3     8    1
     8    10    11    1
     9     2    15    2
    10     1    16    1
    11    16    17    1
    12    17    18    1
    13    18    19   ar
    14    18    20   ar
    15     5    21    1
    16    21    22    1
    17    22    23    1
    18    23    24    2
    19    23    25    1
    20    25    26    1
    21    26    27    2
    22    27    28    1
    23    28    29   ar
    24    28    30   ar
    25     6    11    1
    26     1     5    1
    27     8     9   ar
    28     9    12   ar
    29    12    13   ar
    30    13    14   ar
    31    14    10   ar
    32    10     8   ar
