@<TRIPOS>MOLECULE
No_2494-gen_results/8p0m/2024-11-26-14-13-15/
 19 20 0 0 0
SMALL
GASTEIGER

@<TRIPOS>ATOM
      1 C         -28.0162   -0.8135   28.8779 C.ar    1  UNL1       -0.0041
      2 C         -28.4690   -0.7850   29.8287 C.ar    1  UNL1       -0.0003
      3 C         -28.1816    0.4277   28.1134 C.ar    1  UNL1       -0.0170
      4 C         -28.9841    1.4155   28.5154 C.ar    1  UNL1       -0.0041
      5 C         -29.3802    0.1384   30.4612 C.ar    1  UNL1       -0.0000
      6 C         -29.5415    1.2736   29.7242 C.ar    1  UNL1       -0.0003
      7 C         -27.4586    0.4934   26.7701 C.3     1  UNL1        0.0894
      8 C         -26.0264    0.3840   26.7617 C.3     1  UNL1        0.0144
      9 C         -25.2257    1.3507   27.3721 C.3     1  UNL1        0.0228
     10 C         -23.8545    1.0997   27.5822 C.ar    1  UNL1       -0.0225
     11 C         -22.9465    2.1788   27.6417 C.ar    1  UNL1       -0.0043
     12 C         -21.5776    1.7840   27.9126 C.ar    1  UNL1       -0.0003
     13 C         -21.2751    0.5058   28.3926 C.ar    1  UNL1       -0.0000
     14 C         -22.2809   -0.4526   28.5321 C.ar    1  UNL1       -0.0003
     15 C         -23.5597   -0.1401   28.2047 C.ar    1  UNL1       -0.0043
     16 C         -25.7316    2.7166   27.4860 C.3     1  UNL1        0.0047
     17 C         -28.1860    0.6607   25.6018 C.3     1  UNL1        0.3224
     18 F         -27.9430   -0.1732   24.7685 F       1  UNL1       -0.1981
     19 F         -27.9061    1.9690   25.1542 F       1  UNL1       -0.1981
@<TRIPOS>BOND
     1     3     7    1
     2     7     8    1
     3     8     9    1
     4     9    16    1
     5     7    17    1
     6    17    18    1
     7    17    19    1
     8     9    10    1
     9     1     2   ar
    10     2     5   ar
    11     5     6   ar
    12     6     4   ar
    13     4     3   ar
    14     3     1   ar
    15    10    11   ar
    16    11    12   ar
    17    12    13   ar
    18    13    14   ar
    19    14    15   ar
    20    15    10   ar
