@<TRIPOS>MOLECULE
No_2495-gen_results/8p0m/2024-11-26-14-13-15/
 11 11 0 0 0
SMALL
GASTEIGER

@<TRIPOS>ATOM
      1 C         -28.0162   -0.8135   28.8779 C.ar    1  UNL1        0.2063
      2 C         -27.0636   -0.1189   28.6079 C.ar    1  UNL1        0.0965
      3 C         -27.0010    0.6913   27.4910 C.ar    1  UNL1        0.0148
      4 C         -28.1373    0.7363   26.6350 C.ar    1  UNL1        0.0076
      5 C         -29.2360    0.0765   27.0690 C.ar    1  UNL1        0.0830
      6 C         -29.2177   -0.6429   28.1747 C.ar    1  UNL1        0.0495
      7 C         -30.4152    0.1590   26.1819 C.2     1  UNL1        0.3879
      8 O         -30.3887    0.0527   24.9904 O.co2   1  UNL1       -0.2406
      9 O         -31.5734    0.5495   26.7099 O.co2   1  UNL1       -0.2406
     10 CL        -25.5205   -0.2206   29.5585 Cl      1  UNL1       -0.0789
     11 O         -28.0374   -1.6133   30.0543 O.3     1  UNL1       -0.2857
@<TRIPOS>BOND
     1     5     7    1
     2     7     8   ar
     3     7     9   ar
     4     2    10    1
     5     1    11    1
     6     1     2   ar
     7     2     3   ar
     8     3     4   ar
     9     4     5   ar
    10     5     6   ar
    11     6     1   ar
