@<TRIPOS>MOLECULE
No_2496-gen_results/8p0m/2024-11-26-14-13-15/
 10 10 0 0 0
SMALL
GASTEIGER

@<TRIPOS>ATOM
      1 C         -28.0162   -0.8135   28.8779 C.3     1  UNL1        0.1403
      2 C         -27.0636   -0.1190   28.6079 C.ar    1  UNL1       -0.0006
      3 C         -27.0010    0.6913   27.4910 C.ar    1  UNL1       -0.0026
      4 C         -25.7770    1.0214   26.9135 C.ar    1  UNL1       -0.0003
      5 C         -24.5088    0.7364   27.5686 C.ar    1  UNL1       -0.0000
      6 C         -24.5930   -0.0361   28.7390 C.ar    1  UNL1       -0.0003
      7 C         -25.8114   -0.4771   29.1584 C.ar    1  UNL1       -0.0026
      8 N         -28.6573   -0.5181   30.0595 N.pl3   1  UNL1       -0.2116
      9 C         -29.6684   -0.3947   30.4461 C.2     1  UNL1        0.2046
     10 N         -29.9992   -0.1172   31.7609 N.2     1  UNL1       -0.1270
@<TRIPOS>BOND
     1     1     2    1
     2     1     8    1
     3     8     9    1
     4     9    10    2
     5     2     3   ar
     6     3     4   ar
     7     4     5   ar
     8     5     6   ar
     9     6     7   ar
    10     7     2   ar
