@<TRIPOS>MOLECULE
No_25-gen_results/8p0m/2024-11-26-14-13-15/
 25 27 0 0 0
SMALL
GASTEIGER

@<TRIPOS>ATOM
      1 C         -28.0162   -0.8135   28.8779 C.ar    1  UNL1        0.0066
      2 C         -28.4690   -0.7850   29.8287 C.ar    1  UNL1        0.0798
      3 C         -28.1960    0.3478   28.0550 C.ar    1  UNL1        0.0003
      4 C         -29.0191    1.3501   28.3782 C.ar    1  UNL1        0.0016
      5 C         -28.3170   -1.9812   30.8560 C.2     1  UNL1        0.3878
      6 C         -29.5950    1.2859   29.6049 C.ar    1  UNL1        0.0212
      7 C         -29.3465    0.2093   30.3749 C.ar    1  UNL1        0.0082
      8 O         -27.7056   -1.8008   31.7543 O.co2   1  UNL1       -0.2406
      9 O         -28.7816   -3.1501   30.4039 O.co2   1  UNL1       -0.2406
     10 C         -27.4537    0.3618   26.6861 C.2     1  UNL1        0.0000
     11 C         -26.4582    0.9155   26.5182 C.2     1  UNL1        0.0000
     12 C         -25.6776    1.6300   27.5427 C.ar    1  UNL1        0.0000
     13 C         -24.3857    2.1984   27.1895 C.ar    1  UNL1        0.0000
     14 C         -23.5464    2.8527   28.1287 C.ar    1  UNL1        0.0000
     15 C         -23.9472    2.6444   29.4781 C.ar    1  UNL1        0.0000
     16 C         -25.1134    2.0606   29.8583 C.ar    1  UNL1        0.0000
     17 C         -25.9512    1.5189   28.9019 C.ar    1  UNL1        0.0000
     18 C         -25.4619    1.9826   31.3225 C.ar    1  UNL1        0.0000
     19 C         -25.9660    2.9548   31.9665 C.ar    1  UNL1        0.0000
     20 C         -26.3965    2.8173   33.3204 C.ar    1  UNL1        0.0000
     21 C         -25.2683    0.6984   31.9464 C.ar    1  UNL1        0.0000
     22 C         -25.5826    0.5716   33.3299 C.ar    1  UNL1        0.0000
     23 C         -26.1887    1.6477   33.9828 C.ar    1  UNL1        0.0000
     24 C         -30.5684    2.2400   30.1818 C.2     1  UNL1        0.1221
     25 N         -31.0137    2.3687   31.1264 N.2     1  UNL1       -0.1464
@<TRIPOS>BOND
     1     2     5    1
     2     5     8   ar
     3     5     9   ar
     4     3    10    1
     5    10    11    2
     6    11    12    1
     7    16    18    1
     8     6    24    1
     9    24    25    2
    10    12    13   ar
    11    13    14   ar
    12    14    15   ar
    13    15    16   ar
    14    16    17   ar
    15    17    12   ar
    16    18    19   ar
    17    19    20   ar
    18    20    23   ar
    19    23    22   ar
    20    22    21   ar
    21    21    18   ar
    22     1     2   ar
    23     2     7   ar
    24     7     6   ar
    25     6     4   ar
    26     4     3   ar
    27     3     1   ar
