@<TRIPOS>MOLECULE
No_250-gen_results/8p0m/2024-11-26-14-13-15/
 15 16 0 0 0
SMALL
GASTEIGER

@<TRIPOS>ATOM
      1 CL        -28.1493   -0.8198   28.9079 Cl      1  UNL1       -0.0822
      2 C         -26.9116   -0.0797   28.9452 C.ar    1  UNL1        0.0576
      3 C         -25.9665   -0.2123   29.6235 C.ar    1  UNL1        0.0111
      4 C         -24.7040    0.5534   29.6218 C.ar    1  UNL1       -0.0034
      5 C         -24.6011    1.5437   28.6212 C.ar    1  UNL1       -0.0221
      6 C         -25.6671    1.7162   27.8026 C.ar    1  UNL1       -0.0034
      7 C         -26.7607    0.9618   27.8836 C.ar    1  UNL1        0.0103
      8 C         -23.3668    2.3130   28.5678 C.3     1  UNL1        0.0264
      9 C         -22.3918    1.6267   27.6201 C.3     1  UNL1        0.0050
     10 C         -27.8832    1.2083   26.9240 C.ar    1  UNL1        0.0008
     11 C         -29.0104    1.4850   27.2407 C.ar    1  UNL1        0.0000
     12 C         -30.0315    1.6241   26.2655 C.ar    1  UNL1        0.0000
     13 C         -29.6450    1.6054   24.8969 C.ar    1  UNL1        0.0000
     14 C         -27.5070    1.1481   25.5185 C.ar    1  UNL1        0.0000
     15 C         -28.3626    1.3534   24.5692 C.ar    1  UNL1        0.0000
@<TRIPOS>BOND
     1     1     2    1
     2     5     8    1
     3     8     9    1
     4     7    10    1
     5     2     3   ar
     6     3     4   ar
     7     4     5   ar
     8     5     6   ar
     9     6     7   ar
    10     7     2   ar
    11    10    11   ar
    12    11    12   ar
    13    12    13   ar
    14    13    15   ar
    15    15    14   ar
    16    14    10   ar
