@<TRIPOS>MOLECULE
No_2501-gen_results/8p0m/2024-11-26-14-13-15/
 18 19 0 0 0
SMALL
GASTEIGER

@<TRIPOS>ATOM
      1 O         -28.1229   -1.3353   28.4874 O.2     1  UNL1       -0.2733
      2 C         -27.4806   -0.4044   28.7094 C.2     1  UNL1        0.2423
      3 C         -27.1904    0.2460   29.5268 C.3     1  UNL1        0.0832
      4 N         -26.8157    0.1371   27.4262 N.am    1  UNL1       -0.1899
      5 C         -26.3550    1.4196   29.7643 C.3     1  UNL1        0.0238
      6 C         -26.0125    1.2307   27.4050 C.3     1  UNL1        0.1844
      7 C         -25.7456    1.9087   28.5801 C.3     1  UNL1        0.1392
      8 C         -27.7372   -0.2154   30.9909 C.3     1  UNL1        0.0355
      9 C         -28.9552    0.5485   31.3368 C.ar    1  UNL1       -0.0217
     10 C         -29.0388    1.6235   31.3107 C.ar    1  UNL1       -0.0043
     11 C         -30.2657    2.3863   31.8185 C.ar    1  UNL1       -0.0003
     12 C         -31.2762    1.5418   32.2720 C.ar    1  UNL1       -0.0000
     13 C         -29.9473   -0.4515   31.9569 C.ar    1  UNL1       -0.0043
     14 C         -31.1201    0.1872   32.3728 C.ar    1  UNL1       -0.0003
     15 CL        -25.2137    1.6671   25.9854 Cl      1  UNL1       -0.0905
     16 C         -24.8808    3.1057   28.6230 C.2     1  UNL1        0.3673
     17 O         -24.9883    3.8180   29.5533 O.co2   1  UNL1       -0.2456
     18 O         -24.1557    3.4355   27.5745 O.co2   1  UNL1       -0.2456
@<TRIPOS>BOND
     1     1     2    2
     2     2     3    1
     3     2     4   am
     4     4     6    1
     5     5     7    1
     6     3     8    1
     7     8     9    1
     8     6    15    1
     9     7    16    1
    10    16    17   ar
    11    16    18   ar
    12     3     5    1
    13     7     6    1
    14     9    10   ar
    15    10    11   ar
    16    11    12   ar
    17    12    14   ar
    18    14    13   ar
    19    13     9   ar
