@<TRIPOS>MOLECULE
No_2502-gen_results/8p0m/2024-11-26-14-13-15/
 19 22 0 0 0
SMALL
GASTEIGER

@<TRIPOS>ATOM
      1 C         -28.0162   -0.8135   28.8779 C.ar    1  UNL1        0.0668
      2 C         -28.4690   -0.7850   29.8287 C.ar    1  UNL1        0.1432
      3 C         -26.5455   -0.8762   28.8500 C.ar    1  UNL1        0.1438
      4 C         -25.8041   -1.0324   30.0571 C.ar    1  UNL1        0.0169
      5 C         -27.9437   -0.9869   31.2075 C.ar    1  UNL1        0.0295
      6 C         -26.5825   -1.0386   31.2231 C.ar    1  UNL1        0.0014
      7 F         -29.9086   -0.7397   29.8642 F       1  UNL1       -0.2041
      8 C         -24.3767   -1.0979   30.0689 C.3     1  UNL1        0.0558
      9 C         -23.5963   -0.5404   29.1043 C.ar    1  UNL1       -0.0147
     10 C         -22.1327   -0.5733   29.2662 C.ar    1  UNL1       -0.0038
     11 C         -24.1221    0.2265   28.0697 C.ar    1  UNL1        0.0309
     12 C         -23.2398    1.1151   27.3443 C.ar    1  UNL1        0.0026
     13 C         -21.3170    0.2337   28.4712 C.ar    1  UNL1       -0.0003
     14 C         -21.8443    1.0728   27.5500 C.ar    1  UNL1        0.0001
     15 C         -23.8010    2.0232   26.3278 C.ar    1  UNL1        0.0002
     16 C         -24.9378    1.6064   25.7140 C.ar    1  UNL1        0.0031
     17 C         -25.5527    0.4325   26.1546 C.ar    1  UNL1        0.0375
     18 C         -25.2091   -0.1408   27.3631 C.ar    1  UNL1        0.1449
     19 O         -26.1302   -0.8931   27.6292 O.3     1  UNL1       -0.4537
@<TRIPOS>BOND
     1     2     7    1
     2     4     8    1
     3     3    19    1
     4    18    19    1
     5     8     9    1
     6     9    10   ar
     7    10    13   ar
     8    13    14   ar
     9    14    12   ar
    10    11     9   ar
    11    11    12   ar
    12    12    15   ar
    13    15    16   ar
    14    16    17   ar
    15    17    18   ar
    16    18    11   ar
    17     1     2   ar
    18     2     5   ar
    19     5     6   ar
    20     6     4   ar
    21     4     3   ar
    22     3     1   ar
