@<TRIPOS>MOLECULE
No_2504-gen_results/8p0m/2024-11-26-14-13-15/
 27 29 0 0 0
SMALL
GASTEIGER

@<TRIPOS>ATOM
      1 BR        -28.1146   -0.6256   29.0813 Br      1  UNL1       -0.0489
      2 C         -27.4917    0.8142   29.3550 C.ar    1  UNL1        0.0390
      3 C         -27.5451    1.4114   30.5533 C.ar    1  UNL1        0.0068
      4 C         -26.8382    2.5333   30.8279 C.ar    1  UNL1        0.0005
      5 C         -26.0717    3.1997   29.7953 C.ar    1  UNL1        0.0003
      6 C         -25.9632    2.5550   28.5976 C.ar    1  UNL1        0.0093
      7 C         -26.6254    1.4128   28.4312 C.ar    1  UNL1        0.0617
      8 C         -25.1318    3.1782   27.5557 C.2     1  UNL1        0.0556
      9 C         -24.1925    2.6056   26.9058 C.2     1  UNL1        0.0059
     10 C         -23.6500    1.3570   27.2389 C.ar    1  UNL1        0.0155
     11 C         -22.3114    1.2315   27.7434 C.ar    1  UNL1        0.0013
     12 C         -21.8338    0.1097   28.4365 C.ar    1  UNL1        0.0001
     13 C         -22.7830   -0.9272   28.7434 C.ar    1  UNL1        0.0013
     14 C         -24.1173   -0.7333   28.3753 C.ar    1  UNL1        0.0166
     15 C         -24.5433    0.4327   27.7328 C.ar    1  UNL1        0.0736
     16 C         -26.5256    0.5959   27.0683 C.2     1  UNL1        0.2695
     17 N         -25.6881    0.3355   27.1552 N.am    1  UNL1       -0.1754
     18 C         -25.4513    4.6568   27.3342 C.2     1  UNL1        0.2690
     19 O         -27.4845    0.7870   26.3268 O.2     1  UNL1       -0.2680
     20 O         -24.7166    5.3316   26.7597 O.2     1  UNL1       -0.2680
     21 N         -26.7697    5.1256   27.5164 N.am    1  UNL1       -0.1741
     22 C         -27.1522    6.4385   27.2494 C.2     1  UNL1        0.0889
     23 C         -28.5581    6.5002   26.9718 C.2     1  UNL1        0.0179
     24 C         -29.1993    7.6954   26.9933 C.2     1  UNL1        0.0014
     25 C         -30.6110    7.8214   26.7869 C.2     1  UNL1        0.0000
     26 C         -31.3398    6.6467   26.6965 C.2     1  UNL1        0.0000
     27 C         -30.7186    5.4217   26.6885 C.2     1  UNL1        0.0000
@<TRIPOS>BOND
     1     1     2    1
     2     6     8    1
     3     8     9    2
     4     9    10    1
     5     7    16    1
     6    15    17    1
     7    16    17   am
     8     8    18    1
     9    16    19    2
    10    18    20    2
    11    18    21   am
    12    21    22    1
    13    22    23    2
    14    23    24    1
    15    24    25    2
    16    25    26    1
    17    26    27    2
    18     2     3   ar
    19     3     4   ar
    20     4     5   ar
    21     5     6   ar
    22     6     7   ar
    23     7     2   ar
    24    10    11   ar
    25    11    12   ar
    26    12    13   ar
    27    13    14   ar
    28    14    15   ar
    29    15    10   ar
