@<TRIPOS>MOLECULE
No_2505-gen_results/8p0m/2024-11-26-14-13-15/
 21 22 0 0 0
SMALL
GASTEIGER

@<TRIPOS>ATOM
      1 C         -28.0162   -0.8135   28.8779 C.ar    1  UNL1        0.0794
      2 C         -27.0636   -0.1189   28.6079 C.ar    1  UNL1        0.0026
      3 C         -27.0010    0.6913   27.4910 C.ar    1  UNL1       -0.0183
      4 C         -28.1373    0.7363   26.6350 C.ar    1  UNL1       -0.0001
      5 C         -29.2360    0.0765   27.0690 C.ar    1  UNL1        0.0713
      6 C         -29.2177   -0.6429   28.1747 C.ar    1  UNL1        0.0104
      7 C         -28.0030   -1.6604   30.1266 C.2     1  UNL1        0.3877
      8 O         -28.6910   -1.7921   30.8886 O.co2   1  UNL1       -0.2406
      9 O         -26.8652   -2.5159   30.0807 O.co2   1  UNL1       -0.2406
     10 C         -30.4292    0.1677   26.1966 C.3     1  UNL1        0.4186
     11 F         -30.3222    0.1602   25.0134 F       1  UNL1       -0.1659
     12 F         -31.1941    1.2018   26.6164 F       1  UNL1       -0.1659
     13 F         -31.2687   -0.9441   26.4560 F       1  UNL1       -0.1659
     14 C         -25.7495    1.4269   27.0680 C.3     1  UNL1        0.0446
     15 C         -24.6078    1.0068   27.5447 C.ar    1  UNL1       -0.0184
     16 C         -23.3446    1.6865   27.2683 C.ar    1  UNL1       -0.0040
     17 C         -22.1305    1.4408   27.9076 C.ar    1  UNL1       -0.0003
     18 C         -22.0889    0.3359   28.7752 C.ar    1  UNL1       -0.0000
     19 C         -23.2203   -0.4943   28.9662 C.ar    1  UNL1       -0.0003
     20 C         -24.3940   -0.1205   28.4269 C.ar    1  UNL1       -0.0040
     21 C         -25.7540    1.5939   25.5167 C.3     1  UNL1        0.0094
@<TRIPOS>BOND
     1     1     7    1
     2     7     8   ar
     3     7     9   ar
     4     5    10    1
     5    10    11    1
     6    10    12    1
     7    10    13    1
     8     3    14    1
     9    14    21    1
    10    14    15    1
    11    15    16   ar
    12    16    17   ar
    13    17    18   ar
    14    18    19   ar
    15    19    20   ar
    16    20    15   ar
    17     1     2   ar
    18     2     3   ar
    19     3     4   ar
    20     4     5   ar
    21     5     6   ar
    22     6     1   ar
