@<TRIPOS>MOLECULE
No_2506-gen_results/8p0m/2024-11-26-14-13-15/
 18 19 0 0 0
SMALL
GASTEIGER

@<TRIPOS>ATOM
      1 C         -28.0162   -0.8135   28.8779 C.2     1  UNL1        0.0719
      2 C         -27.0636   -0.1189   28.6079 C.2     1  UNL1       -0.0281
      3 C         -26.8756    1.1325   28.9134 C.3     1  UNL1        0.0238
      4 C         -25.6883    1.9515   28.5672 C.3     1  UNL1        0.0136
      5 C         -24.6394    1.2834   27.8753 C.3     1  UNL1        0.0805
      6 C         -24.8068   -0.0513   27.6040 C.3     1  UNL1        0.0136
      7 C         -25.9019   -0.7670   27.9511 C.3     1  UNL1        0.0238
      8 N         -27.9893   -1.5850   30.1056 N.pl3   1  UNL1       -0.2322
      9 C         -23.4455    1.9844   27.4704 C.2     1  UNL1        0.2603
     10 N         -22.2640    2.2621   27.8566 N.am    1  UNL1       -0.0878
     11 O         -23.6549    2.5772   26.1897 O.2     1  UNL1       -0.2717
     12 C         -29.0199   -2.3772   30.5820 C.3     1  UNL1        0.1385
     13 C         -29.4853   -3.3034   30.1275 C.ar    1  UNL1       -0.0007
     14 C         -30.6062   -4.1211   30.7012 C.ar    1  UNL1       -0.0026
     15 C         -31.1568   -5.2166   30.0751 C.ar    1  UNL1       -0.0003
     16 C         -30.5835   -5.6059   28.8188 C.ar    1  UNL1       -0.0000
     17 C         -29.4223   -5.0207   28.4171 C.ar    1  UNL1       -0.0003
     18 C         -28.8376   -3.9864   29.0977 C.ar    1  UNL1       -0.0026
@<TRIPOS>BOND
     1     1     2    2
     2     2     3    1
     3     3     4    1
     4     4     5    1
     5     5     6    1
     6     2     7    1
     7     6     7    1
     8     1     8    1
     9     5     9    1
    10     9    10   am
    11     9    11    2
    12     8    12    1
    13    12    13    1
    14    13    14   ar
    15    14    15   ar
    16    15    16   ar
    17    16    17   ar
    18    17    18   ar
    19    18    13   ar
