@<TRIPOS>MOLECULE
No_2507-gen_results/8p0m/2024-11-26-14-13-15/
 21 24 0 0 0
SMALL
GASTEIGER

@<TRIPOS>ATOM
      1 C         -28.0162   -0.8135   28.8779 C.ar    1  UNL1        0.0180
      2 C         -28.4690   -0.7850   29.8287 C.ar    1  UNL1        0.0021
      3 C         -28.1816    0.4277   28.1134 C.ar    1  UNL1       -0.0151
      4 C         -28.9841    1.4155   28.5154 C.ar    1  UNL1       -0.0040
      5 C         -29.3802    0.1384   30.4612 C.ar    1  UNL1       -0.0001
      6 C         -29.5415    1.2736   29.7242 C.ar    1  UNL1       -0.0003
      7 C         -27.4586    0.4934   26.7701 C.3     1  UNL1        0.0912
      8 C         -26.0263    0.3840   26.7617 C.3     1  UNL1        0.0383
      9 C         -25.3148    0.0488   27.8701 C.ar    1  UNL1       -0.0217
     10 C         -23.9145    0.1729   27.8973 C.ar    1  UNL1       -0.0044
     11 C         -23.1341   -0.2623   29.0442 C.ar    1  UNL1       -0.0003
     12 C         -23.7601   -1.0634   29.9981 C.ar    1  UNL1       -0.0002
     13 C         -25.0969   -1.2802   29.9399 C.ar    1  UNL1       -0.0008
     14 C         -25.8364   -0.7938   28.9286 C.ar    1  UNL1        0.0175
     15 C         -27.0941   -1.0622   29.0619 C.3     1  UNL1        0.2094
     16 O         -26.9706   -2.4744   29.3450 O.2     1  UNL1       -0.4746
     17 C         -28.6506   -2.1253   30.6800 C.2     1  UNL1        0.0322
     18 C         -27.7568   -2.9794   30.3125 C.2     1  UNL1        0.1172
     19 C         -28.1561   -4.4323   29.9560 C.3     1  UNL1        0.0719
     20 C         -28.2385    0.6526   25.6150 C.2     1  UNL1        0.2116
     21 O         -27.7510    0.7446   24.5785 O.2     1  UNL1       -0.2879
@<TRIPOS>BOND
     1     3     7    1
     2     7     8    1
     3     8     9    1
     4     1    15    1
     5    14    15    1
     6    15    16    1
     7     2    17    1
     8    16    18    1
     9    17    18    2
    10    18    19    1
    11     7    20    1
    12    20    21    2
    13     9    10   ar
    14    10    11   ar
    15    11    12   ar
    16    12    13   ar
    17    13    14   ar
    18    14     9   ar
    19     1     2   ar
    20     2     5   ar
    21     5     6   ar
    22     6     4   ar
    23     4     3   ar
    24     3     1   ar
