@<TRIPOS>MOLECULE
No_2508-gen_results/8p0m/2024-11-26-14-13-15/
 24 26 0 0 0
SMALL
GASTEIGER

@<TRIPOS>ATOM
      1 C         -28.0162   -0.8135   28.8779 C.ar    1  UNL1        0.0002
      2 C         -27.0636   -0.1189   28.6079 C.ar    1  UNL1        0.0000
      3 C         -26.9716    0.7139   27.5060 C.ar    1  UNL1        0.0002
      4 C         -28.1053    0.7744   26.6421 C.ar    1  UNL1        0.0066
      5 C         -29.2008    0.1044   27.0527 C.ar    1  UNL1        0.0798
      6 C         -29.2096   -0.6029   28.1853 C.ar    1  UNL1        0.0066
      7 C         -30.3702    0.2264   26.1604 C.2     1  UNL1        0.3878
      8 O         -30.9870    1.1892   26.1601 O.co2   1  UNL1       -0.2406
      9 O         -30.8551   -0.9345   25.7613 O.co2   1  UNL1       -0.2406
     10 C         -25.6964   -0.2125   29.4271 C.ar    1  UNL1        0.0002
     11 C         -24.5388    0.0898   28.9222 C.ar    1  UNL1        0.0048
     12 C         -23.3128   -0.0090   29.6340 C.ar    1  UNL1        0.0579
     13 C         -23.3717   -0.6317   30.8905 C.ar    1  UNL1        0.0048
     14 C         -24.5938   -0.9756   31.4709 C.ar    1  UNL1        0.0002
     15 C         -25.7832   -0.8477   30.7266 C.ar    1  UNL1        0.0000
     16 C         -22.0793    0.3914   29.0462 C.2     1  UNL1        0.2791
     17 N         -22.0063    1.3208   28.1335 N.2     1  UNL1       -0.2079
     18 O         -21.0026   -0.3357   29.1990 O.2     1  UNL1       -0.2652
     19 C         -22.9920    2.2785   27.7870 C.ar    1  UNL1        0.0846
     20 C         -23.6791    2.1106   26.6055 C.ar    1  UNL1        0.0192
     21 C         -24.5724    3.1105   26.1548 C.ar    1  UNL1        0.0015
     22 C         -24.8576    4.2286   27.0307 C.ar    1  UNL1        0.0001
     23 C         -24.4931    4.1813   28.3259 C.ar    1  UNL1        0.0015
     24 C         -23.4664    3.2515   28.7246 C.ar    1  UNL1        0.0192
@<TRIPOS>BOND
     1     5     7    1
     2     7     8   ar
     3     7     9   ar
     4     2    10    1
     5    12    16    1
     6    16    17    2
     7    16    18    1
     8    17    19    1
     9     1     2   ar
    10     2     3   ar
    11     3     4   ar
    12     4     5   ar
    13     5     6   ar
    14     6     1   ar
    15    10    11   ar
    16    11    12   ar
    17    12    13   ar
    18    13    14   ar
    19    14    15   ar
    20    15    10   ar
    21    19    20   ar
    22    20    21   ar
    23    21    22   ar
    24    22    23   ar
    25    23    24   ar
    26    24    19   ar
