@<TRIPOS>MOLECULE
No_2509-gen_results/8p0m/2024-11-26-14-13-15/
 21 23 0 0 0
SMALL
GASTEIGER

@<TRIPOS>ATOM
      1 C         -28.0162   -0.8135   28.8779 C.ar    1  UNL1       -0.0040
      2 C         -27.0636   -0.1189   28.6079 C.ar    1  UNL1       -0.0219
      3 C         -26.9716    0.7139   27.5060 C.ar    1  UNL1       -0.0040
      4 C         -28.1053    0.7744   26.6421 C.ar    1  UNL1        0.0063
      5 C         -29.2008    0.1044   27.0527 C.ar    1  UNL1        0.0798
      6 C         -29.2096   -0.6029   28.1853 C.ar    1  UNL1        0.0063
      7 C         -30.2850    0.2735   26.0122 C.2     1  UNL1        0.3878
      8 O         -30.2004    0.4222   24.8730 O.co2   1  UNL1       -0.2406
      9 O         -31.4556   -0.3905   26.4832 O.co2   1  UNL1       -0.2406
     10 C         -25.7078   -0.2062   29.4460 C.3     1  UNL1        0.0304
     11 C         -25.1994    1.0069   30.0366 C.3     1  UNL1        0.0479
     12 C         -25.4827    1.3472   30.9934 C.ar    1  UNL1       -0.0181
     13 C         -25.9284    0.6986   32.0603 C.ar    1  UNL1       -0.0039
     14 C         -26.2859    1.2428   33.3928 C.ar    1  UNL1       -0.0003
     15 C         -26.1574    2.5940   33.5753 C.ar    1  UNL1       -0.0000
     16 C         -25.3650    2.9084   31.4035 C.ar    1  UNL1       -0.0039
     17 C         -25.6889    3.4209   32.5957 C.ar    1  UNL1       -0.0003
     18 C         -23.6533    0.9537   29.7193 C.2     1  UNL1       -0.0263
     19 C         -23.0256   -0.1168   29.2314 C.2     1  UNL1       -0.0300
     20 C         -24.5879   -1.0017   28.6485 C.3     1  UNL1        0.0304
     21 C         -25.9317   -1.0499   30.7411 C.3     1  UNL1        0.0054
@<TRIPOS>BOND
     1     5     7    1
     2     7     8   ar
     3     7     9   ar
     4     2    10    1
     5    10    11    1
     6    11    12    1
     7    11    18    1
     8    18    19    2
     9    10    20    1
    10    19    20    1
    11    10    21    1
    12    12    13   ar
    13    13    14   ar
    14    14    15   ar
    15    15    17   ar
    16    17    16   ar
    17    16    12   ar
    18     1     2   ar
    19     2     3   ar
    20     3     4   ar
    21     4     5   ar
    22     5     6   ar
    23     6     1   ar
