@<TRIPOS>MOLECULE
No_251-gen_results/8p0m/2024-11-26-14-13-15/
 14 14 0 0 0
SMALL
GASTEIGER

@<TRIPOS>ATOM
      1 C         -28.0162   -0.8135   28.8779 C.3     1  UNL1        0.4186
      2 C         -27.0636   -0.1189   28.6079 C.ar    1  UNL1        0.0714
      3 C         -27.0010    0.6913   27.4910 C.ar    1  UNL1        0.0038
      4 C         -25.8548    1.4825   27.0830 C.ar    1  UNL1        0.0038
      5 C         -24.6901    1.4526   27.8807 C.ar    1  UNL1        0.0714
      6 C         -24.7379    0.6010   29.0416 C.ar    1  UNL1        0.0038
      7 C         -25.8234   -0.1688   29.3887 C.ar    1  UNL1        0.0038
      8 F         -27.7845   -2.0034   29.3006 F       1  UNL1       -0.1659
      9 F         -28.8847   -0.9854   27.8614 F       1  UNL1       -0.1659
     10 F         -28.7444   -0.2178   29.9085 F       1  UNL1       -0.1659
     11 C         -23.5337    2.2463   27.5997 C.3     1  UNL1        0.4186
     12 F         -23.7370    3.3740   27.1799 F       1  UNL1       -0.1659
     13 F         -22.6452    1.6215   26.7055 F       1  UNL1       -0.1659
     14 F         -22.7748    2.4186   28.7273 F       1  UNL1       -0.1659
@<TRIPOS>BOND
     1     1     2    1
     2     1     8    1
     3     1     9    1
     4     1    10    1
     5     5    11    1
     6    11    12    1
     7    11    13    1
     8    11    14    1
     9     2     3   ar
    10     3     4   ar
    11     4     5   ar
    12     5     6   ar
    13     6     7   ar
    14     7     2   ar
