@<TRIPOS>MOLECULE
No_2511-gen_results/8p0m/2024-11-26-14-13-15/
 35 39 0 0 0
SMALL
GASTEIGER

@<TRIPOS>ATOM
      1 C         -28.0162   -0.8135   28.8779 C.3     1  UNL1        0.1177
      2 C         -27.0636   -0.1190   28.6079 C.ar    1  UNL1       -0.0024
      3 C         -25.7923   -0.4302   29.0761 C.ar    1  UNL1       -0.0022
      4 C         -24.5456    0.3494   28.8225 C.ar    1  UNL1        0.0036
      5 C         -24.6586    1.4196   27.8878 C.ar    1  UNL1        0.0475
      6 C         -25.9471    1.6811   27.3792 C.ar    1  UNL1        0.0036
      7 C         -27.0439    0.9739   27.6871 C.ar    1  UNL1       -0.0022
      8 N         -28.6567   -0.5529   30.0960 N.pl3   1  UNL1       -0.3038
      9 C         -28.5841    0.2509   30.7384 C.3     1  UNL1        0.0914
     10 C         -29.3702    0.2374   32.0976 C.3     1  UNL1        0.0261
     11 C         -29.4781   -1.8037   30.6035 C.ar    1  UNL1        0.0440
     12 C         -29.5573   -2.8656   29.8623 C.ar    1  UNL1        0.0142
     13 C         -30.0319   -1.7084   31.8358 C.ar    1  UNL1       -0.0088
     14 C         -29.9842   -0.6256   32.5747 C.3     1  UNL1        0.0294
     15 C         -29.8539   -4.0972   30.6375 C.ar    1  UNL1        0.0012
     16 C         -30.4738   -4.0828   31.7675 C.ar    1  UNL1       -0.0002
     17 C         -30.5030   -2.9674   32.4449 C.ar    1  UNL1       -0.0030
     18 C         -23.4466    2.1359   27.5379 C.2     1  UNL1        0.2416
     19 N         -22.4959    1.8581   27.2807 N.2     1  UNL1       -0.1156
     20 F         -23.7618    3.4738   27.3407 F       1  UNL1       -0.1815
     21 C         -25.4855   -1.4966   30.0646 C.2     1  UNL1       -0.0003
     22 C         -24.3787   -2.2421   29.9698 C.2     1  UNL1       -0.0000
     23 C         -28.2952    1.4037   27.0330 C.ar    1  UNL1       -0.0006
     24 C         -29.0034    2.1454   27.5804 C.ar    1  UNL1       -0.0039
     25 C         -30.0147    2.7130   27.4484 C.ar    1  UNL1       -0.0178
     26 C         -28.5973    0.8526   25.7704 C.ar    1  UNL1       -0.0000
     27 C         -29.8153    1.2951   25.1987 C.ar    1  UNL1       -0.0003
     28 C         -30.8768    3.5340   28.2299 C.3     1  UNL1        0.0526
     29 C         -30.5953    2.2702   26.0733 C.ar    1  UNL1       -0.0039
     30 C         -30.3604    4.5502   28.8253 C.ar    1  UNL1       -0.0178
     31 C         -29.0772    4.9738   28.5842 C.ar    1  UNL1       -0.0039
     32 C         -28.5056    6.1335   29.2982 C.ar    1  UNL1       -0.0003
     33 C         -29.2949    6.7079   30.2244 C.ar    1  UNL1       -0.0000
     34 C         -30.5282    6.3349   30.5316 C.ar    1  UNL1       -0.0003
     35 C         -30.8802    5.3088   29.8977 C.ar    1  UNL1       -0.0039
@<TRIPOS>BOND
     1     1     2    1
     2     1     8    1
     3     8     9    1
     4     8    11    1
     5    10    14    1
     6    13    14    1
     7     5    18    1
     8    18    19    2
     9    18    20    1
    10     3    21    1
    11    21    22    2
    12     7    23    1
    13    25    28    1
    14    28    30    1
    15     9    10    1
    16    11    12   ar
    17    12    15   ar
    18    15    16   ar
    19    16    17   ar
    20    17    13   ar
    21    13    11   ar
    22    23    24   ar
    23    24    25   ar
    24    25    29   ar
    25    29    27   ar
    26    27    26   ar
    27    26    23   ar
    28    30    31   ar
    29    31    32   ar
    30    32    33   ar
    31    33    34   ar
    32    34    35   ar
    33    35    30   ar
    34     2     3   ar
    35     3     4   ar
    36     4     5   ar
    37     5     6   ar
    38     6     7   ar
    39     7     2   ar
