@<TRIPOS>MOLECULE
No_2513-gen_results/8p0m/2024-11-26-14-13-15/
 15 15 0 0 0
SMALL
GASTEIGER

@<TRIPOS>ATOM
      1 C         -28.0162   -0.8135   28.8779 C.ar    1  UNL1        0.1922
      2 C         -27.0636   -0.1189   28.6079 C.ar    1  UNL1        0.0211
      3 C         -26.9716    0.7139   27.5060 C.ar    1  UNL1       -0.0006
      4 C         -28.1053    0.7744   26.6421 C.ar    1  UNL1        0.0045
      5 C         -29.2008    0.1044   27.0527 C.ar    1  UNL1        0.0582
      6 C         -29.2096   -0.6029   28.1853 C.ar    1  UNL1        0.0463
      7 C         -30.3702    0.2264   26.1604 C.2     1  UNL1        0.2649
      8 N         -31.3165   -0.4572   26.3805 N.am    1  UNL1       -0.1998
      9 O         -30.3263    0.9695   25.1228 O.2     1  UNL1       -0.2684
     10 C         -32.5164   -0.5120   25.4585 C.3     1  UNL1        0.1388
     11 O         -28.0480   -1.5845   30.0463 O.3     1  UNL1       -0.2869
     12 C         -25.7154   -0.2073   29.4564 C.3     1  UNL1        0.0552
     13 C         -25.0021   -1.2790   29.4710 C.2     1  UNL1       -0.0259
     14 C         -24.1191   -1.5131   28.8921 C.2     1  UNL1       -0.0300
     15 C         -23.2065   -2.7562   29.0769 C.3     1  UNL1        0.0304
@<TRIPOS>BOND
     1     5     7    1
     2     7     8   am
     3     7     9    2
     4     8    10    1
     5     1    11    1
     6     2    12    1
     7    12    13    1
     8    13    14    2
     9    14    15    1
    10     1     2   ar
    11     2     3   ar
    12     3     4   ar
    13     4     5   ar
    14     5     6   ar
    15     6     1   ar
