@<TRIPOS>MOLECULE
No_2514-gen_results/8p0m/2024-11-26-14-13-15/
 16 18 0 0 0
SMALL
GASTEIGER

@<TRIPOS>ATOM
      1 C         -28.0162   -0.8135   28.8779 C.ar    1  UNL1        0.0490
      2 C         -28.4690   -0.7850   29.8287 C.ar    1  UNL1        0.0607
      3 C         -26.5455   -0.8762   28.8500 C.ar    1  UNL1        0.1495
      4 C         -25.8041   -1.0324   30.0571 C.ar    1  UNL1        0.0349
      5 C         -26.5373   -1.0386   31.2171 C.ar    1  UNL1        0.0039
      6 C         -27.8843   -0.9532   31.1862 C.ar    1  UNL1        0.0116
      7 C         -24.3655   -1.1134   30.0483 C.ar    1  UNL1        0.0092
      8 C         -23.7447   -1.3690   30.8125 C.ar    1  UNL1        0.0003
      9 C         -22.2072   -1.2504   30.8577 C.ar    1  UNL1        0.0000
     10 C         -21.6856   -0.8191   29.6527 C.ar    1  UNL1        0.0002
     11 C         -23.7345   -0.6112   28.7797 C.ar    1  UNL1        0.0761
     12 C         -22.4343   -0.4609   28.6549 C.ar    1  UNL1        0.0065
     13 CL        -30.2838   -0.6490   29.9069 Cl      1  UNL1       -0.0821
     14 O         -25.7387   -0.8883   27.7771 O.2     1  UNL1       -0.4210
     15 C         -24.6810   -0.4907   27.6828 C.ar    1  UNL1        0.3457
     16 O         -24.2597    0.1464   26.6061 O.2     1  UNL1       -0.2445
@<TRIPOS>BOND
     1     4     7   ar
     2     2    13    1
     3     3    14   ar
     4    11    15   ar
     5    14    15   ar
     6    15    16    2
     7     7     8   ar
     8     8     9   ar
     9     9    10   ar
    10    10    12   ar
    11    12    11   ar
    12    11     7   ar
    13     1     2   ar
    14     2     6   ar
    15     6     5   ar
    16     5     4   ar
    17     4     3   ar
    18     3     1   ar
