@<TRIPOS>MOLECULE
No_2516-gen_results/8p0m/2024-11-26-14-13-15/
 22 24 0 0 0
SMALL
GASTEIGER

@<TRIPOS>ATOM
      1 C         -28.0162   -0.8135   28.8779 C.ar    1  UNL1        0.0375
      2 C         -27.0636   -0.1189   28.6079 C.ar    1  UNL1        0.0031
      3 C         -25.7647   -0.3897   29.0360 C.ar    1  UNL1        0.0002
      4 C         -25.5296   -1.5302   29.9014 C.ar    1  UNL1        0.0031
      5 C         -26.6888   -2.2893   30.1810 C.ar    1  UNL1        0.0375
      6 C         -27.8727   -1.9508   29.7373 C.ar    1  UNL1        0.1453
      7 O         -28.9304   -2.7298   30.1154 O.3     1  UNL1       -0.4533
      8 C         -24.5394    0.4211   28.7421 C.ar    1  UNL1        0.0000
      9 C         -24.5259    1.2743   27.7265 C.ar    1  UNL1        0.0000
     10 C         -23.3174    1.9856   27.4033 C.ar    1  UNL1        0.0000
     11 C         -22.1311    1.7374   28.0503 C.ar    1  UNL1        0.0000
     12 C         -23.2983    0.1369   29.3770 C.ar    1  UNL1        0.0000
     13 C         -22.1005    0.8185   29.0410 C.ar    1  UNL1        0.0000
     14 C         -29.3101   -2.7539   31.4531 C.ar    1  UNL1        0.1516
     15 C         -29.7956   -4.0479   31.8129 C.ar    1  UNL1        0.1142
     16 C         -30.0403   -4.2275   33.1303 C.ar    1  UNL1        0.0097
     17 C         -29.9430   -3.1491   34.0615 C.ar    1  UNL1        0.0004
     18 C         -29.4237   -1.9487   33.6511 C.ar    1  UNL1        0.0031
     19 C         -29.0562   -1.7504   32.3291 C.ar    1  UNL1        0.0377
     20 C         -29.8897   -5.1399   30.8932 C.2     1  UNL1        0.3907
     21 O         -30.9169   -5.3654   30.5383 O.co2   1  UNL1       -0.2404
     22 O         -28.7709   -5.6447   30.4371 O.co2   1  UNL1       -0.2404
@<TRIPOS>BOND
     1     6     7    1
     2     3     8    1
     3     7    14    1
     4    15    20    1
     5    20    21   ar
     6    20    22   ar
     7     1     2   ar
     8     2     3   ar
     9     3     4   ar
    10     4     5   ar
    11     5     6   ar
    12     6     1   ar
    13    14    15   ar
    14    15    16   ar
    15    16    17   ar
    16    17    18   ar
    17    18    19   ar
    18    19    14   ar
    19     8     9   ar
    20     9    10   ar
    21    10    11   ar
    22    11    13   ar
    23    13    12   ar
    24    12     8   ar
