@<TRIPOS>MOLECULE
No_2517-gen_results/8p0m/2024-11-26-14-13-15/
 31 34 0 0 0
SMALL
GASTEIGER

@<TRIPOS>ATOM
      1 C         -28.0162   -0.8135   28.8779 C.ar    1  UNL1        0.0494
      2 C         -28.4690   -0.7850   29.8287 C.2     1  UNL1        0.2488
      3 C         -28.1816    0.4277   28.1134 C.ar    1  UNL1       -0.0001
      4 C         -27.4498    0.6435   26.8500 C.ar    1  UNL1       -0.0221
      5 C         -26.1815    0.0357   26.7145 C.ar    1  UNL1       -0.0046
      6 C         -25.7800   -0.9326   27.6938 C.ar    1  UNL1       -0.0044
      7 C         -26.5568   -1.2134   28.7413 C.ar    1  UNL1       -0.0161
      8 N         -28.3021   -1.9782   30.6613 N.am    1  UNL1       -0.2740
      9 O         -29.1868    0.0184   30.4724 O.2     1  UNL1       -0.2699
     10 C         -27.5726   -3.0608   30.2213 C.3     1  UNL1        0.0985
     11 C         -26.3426   -2.6639   29.5050 C.3     1  UNL1        0.0483
     12 C         -29.2541   -2.4106   31.7945 C.3     1  UNL1        0.1152
     13 C         -25.0915   -3.2811   29.4049 C.3     1  UNL1        0.0533
     14 C         -23.9303   -2.7107   29.9157 C.3     1  UNL1        0.0327
     15 C         -25.1300   -4.6120   28.9204 C.2     1  UNL1        0.0960
     16 C         -27.7555    1.6766   25.9165 C.3     1  UNL1        0.0267
     17 C         -27.1839    2.8744   26.2380 C.3     1  UNL1        0.0050
     18 C         -28.6255    1.4541   24.8621 C.3     1  UNL1        0.0307
     19 C         -29.9553    1.3318   25.1502 C.ar    1  UNL1       -0.0219
     20 C         -30.8245    0.8546   24.1921 C.ar    1  UNL1       -0.0043
     21 C         -32.1731    0.6287   24.4610 C.ar    1  UNL1       -0.0003
     22 C         -32.6726    0.8333   25.7434 C.ar    1  UNL1       -0.0000
     23 C         -31.8047    1.2328   26.7631 C.ar    1  UNL1       -0.0003
     24 C         -30.5064    1.4525   26.4908 C.ar    1  UNL1       -0.0043
     25 N         -23.8535   -5.1088   28.7574 N.2     1  UNL1       -0.1514
     26 C         -23.8853   -1.3573   30.4430 C.ar    1  UNL1       -0.0218
     27 C         -24.0231   -1.1776   31.7941 C.ar    1  UNL1       -0.0043
     28 C         -24.1011    0.1771   32.3176 C.ar    1  UNL1       -0.0003
     29 C         -24.1056    1.2915   31.3923 C.ar    1  UNL1       -0.0000
     30 C         -23.8045   -0.2400   29.6069 C.ar    1  UNL1       -0.0043
     31 C         -23.8429    1.0547   30.0886 C.ar    1  UNL1       -0.0003
@<TRIPOS>BOND
     1     1     2    1
     2     2     8   am
     3     2     9    2
     4     8    10    1
     5     7    11    1
     6    10    11    1
     7     8    12    1
     8    11    13    1
     9    13    14    1
    10    13    15    1
    11     4    16    1
    12    16    17    1
    13    16    18    1
    14    18    19    1
    15    15    25    2
    16    14    26    1
    17    26    27   ar
    18    27    28   ar
    19    28    29   ar
    20    29    31   ar
    21    31    30   ar
    22    30    26   ar
    23    19    20   ar
    24    20    21   ar
    25    21    22   ar
    26    22    23   ar
    27    23    24   ar
    28    24    19   ar
    29     1     3   ar
    30     3     4   ar
    31     4     5   ar
    32     5     6   ar
    33     6     7   ar
    34     7     1   ar
