@<TRIPOS>MOLECULE
No_2518-gen_results/8p0m/2024-11-26-14-13-15/
 17 18 0 0 0
SMALL
GASTEIGER

@<TRIPOS>ATOM
      1 C         -28.0162   -0.8135   28.8779 C.ar    1  UNL1       -0.0035
      2 C         -27.0636   -0.1189   28.6079 C.ar    1  UNL1       -0.0097
      3 C         -25.7923   -0.4302   29.0761 C.ar    1  UNL1       -0.0035
      4 C         -25.5756   -1.5654   29.9363 C.ar    1  UNL1       -0.0003
      5 C         -26.7354   -2.3004   30.2173 C.ar    1  UNL1       -0.0000
      6 C         -27.9184   -1.9537   29.7629 C.ar    1  UNL1       -0.0003
      7 C         -27.1057    1.1023   27.7593 C.3     1  UNL1        0.1226
      8 C         -26.7157    2.2350   27.9945 C.ar    1  UNL1       -0.0097
      9 C         -26.3325    3.1723   27.6009 C.ar    1  UNL1       -0.0035
     10 C         -25.8040    4.4611   28.2005 C.ar    1  UNL1       -0.0003
     11 C         -25.7023    4.4054   29.5581 C.ar    1  UNL1       -0.0000
     12 C         -26.0201    3.2628   30.2528 C.ar    1  UNL1       -0.0003
     13 C         -26.4650    2.1882   29.5699 C.ar    1  UNL1       -0.0035
     14 C         -27.6189    0.8893   26.3952 C.2     1  UNL1        0.2492
     15 O         -28.6527    1.2757   26.0481 O.2     1  UNL1       -0.2726
     16 N         -26.8223    0.1609   25.5559 N.am    1  UNL1       -0.2030
     17 C         -25.5070   -0.3027   25.8580 C.3     1  UNL1        0.1385
@<TRIPOS>BOND
     1     2     7    1
     2     7    14    1
     3    14    15    2
     4    14    16   am
     5    16    17    1
     6     7     8    1
     7     1     2   ar
     8     2     3   ar
     9     3     4   ar
    10     4     5   ar
    11     5     6   ar
    12     6     1   ar
    13     8     9   ar
    14     9    10   ar
    15    10    11   ar
    16    11    12   ar
    17    12    13   ar
    18    13     8   ar
