@<TRIPOS>MOLECULE
No_2519-gen_results/8p0m/2024-11-26-14-13-15/
 7 6 0 0 0
SMALL
GASTEIGER

@<TRIPOS>ATOM
      1 C         -28.0162   -0.8135   28.8779 C.3     1  UNL1        0.0260
      2 C         -27.0636   -0.1189   28.6079 C.2     1  UNL1       -0.0261
      3 C         -27.0010    0.6913   27.4910 C.2     1  UNL1       -0.0046
      4 C         -28.1373    0.7363   26.6350 C.2     1  UNL1       -0.0003
      5 C         -28.1438    1.4322   25.4880 C.2     1  UNL1       -0.0000
      6 C         -29.2620   -0.5963   28.2256 C.3     1  UNL1        0.0047
      7 C         -30.3982   -1.2755   28.6398 C.3     1  UNL1        0.0004
@<TRIPOS>BOND
     1     1     2    1
     2     2     3    2
     3     3     4    1
     4     4     5    2
     5     1     6    1
     6     6     7    1
