@<TRIPOS>MOLECULE
No_2521-gen_results/8p0m/2024-11-26-14-13-15/
 35 38 0 0 0
SMALL
GASTEIGER

@<TRIPOS>ATOM
      1 O         -28.1229   -1.3353   28.4874 O.2     1  UNL1       -0.2680
      2 C         -28.5208   -0.4363   29.0779 C.2     1  UNL1        0.2690
      3 C         -27.6655    0.1129   30.0346 C.ar    1  UNL1        0.0554
      4 N         -29.7419    0.1102   28.8873 N.am    1  UNL1       -0.1749
      5 C         -27.8398    1.2287   30.6424 C.ar    1  UNL1        0.0046
      6 C         -30.6057   -0.3352   28.0357 C.ar    1  UNL1        0.0800
      7 C         -26.6824   -0.8305   30.6107 C.ar    1  UNL1        0.0046
      8 C         -25.7002   -0.3354   31.5831 C.ar    1  UNL1        0.0001
      9 C         -26.8590    1.7362   31.6598 C.ar    1  UNL1       -0.0002
     10 C         -25.8690    0.9489   32.1232 C.ar    1  UNL1       -0.0000
     11 C         -30.6573   -0.0755   26.9227 C.ar    1  UNL1        0.0499
     12 C         -31.5835   -0.6547   25.8917 C.ar    1  UNL1        0.0082
     13 C         -32.5059   -1.6020   26.3778 C.ar    1  UNL1        0.0072
     14 C         -32.4424   -1.9211   27.7639 C.ar    1  UNL1        0.0811
     15 C         -31.5439   -1.3199   28.6157 C.ar    1  UNL1        0.0237
     16 C         -33.5471   -2.8523   28.0774 C.2     1  UNL1        0.3878
     17 O         -33.7792   -3.3263   29.1397 O.co2   1  UNL1       -0.2406
     18 O         -34.4344   -3.0577   27.1779 O.co2   1  UNL1       -0.2406
     19 BR        -29.4368    1.1897   26.1008 Br      1  UNL1       -0.0476
     20 C         -27.0229    3.1367   32.1886 C.ar    1  UNL1       -0.0039
     21 C         -27.7959    3.3989   32.9529 C.ar    1  UNL1       -0.0003
     22 C         -26.0181    4.0484   31.6067 C.ar    1  UNL1       -0.0214
     23 C         -25.3328    3.9613   30.6006 C.3     1  UNL1        0.0399
     24 C         -26.2632    5.4259   32.1629 C.ar    1  UNL1       -0.0040
     25 C         -25.4773    6.5228   31.6895 C.2     1  UNL1       -0.0006
     26 C         -24.9081    7.2879   32.5165 C.2     1  UNL1       -0.0000
     27 C         -28.0171    4.6937   33.5940 C.ar    1  UNL1       -0.0000
     28 C         -27.1455    5.7042   33.2189 C.ar    1  UNL1       -0.0003
     29 C         -25.3124    6.6673   30.3017 C.2     1  UNL1       -0.0041
     30 C         -25.6572    5.8324   29.3945 C.2     1  UNL1       -0.0170
     31 C         -25.4175    4.4863   29.3746 C.3     1  UNL1        0.1044
     32 C         -25.2841    3.7135   28.1837 C.2     1  UNL1        0.2454
     33 O         -24.5972    2.7388   28.1625 O.2     1  UNL1       -0.2730
     34 N         -25.8575    4.0936   27.0274 N.am    1  UNL1       -0.2033
     35 C         -25.7046    3.3636   25.7991 C.3     1  UNL1        0.1385
@<TRIPOS>BOND
     1     1     2    2
     2     2     3    1
     3     2     4   am
     4     4     6    1
     5    14    16    1
     6    16    17   ar
     7    16    18   ar
     8    11    19    1
     9     9    20    1
    10    22    23    1
    11    24    25    1
    12    25    26    2
    13    25    29    1
    14    29    30    2
    15    23    31    1
    16    30    31    1
    17    31    32    1
    18    32    33    2
    19    32    34   am
    20    34    35    1
    21     6    11   ar
    22    11    12   ar
    23    12    13   ar
    24    13    14   ar
    25    14    15   ar
    26    15     6   ar
    27    20    21   ar
    28    21    27   ar
    29    27    28   ar
    30    28    24   ar
    31    24    22   ar
    32    22    20   ar
    33     3     5   ar
    34     5     9   ar
    35     9    10   ar
    36    10     8   ar
    37     8     7   ar
    38     7     3   ar
