@<TRIPOS>MOLECULE
No_2522-gen_results/8p0m/2024-11-26-14-13-15/
 8 8 0 0 0
SMALL
GASTEIGER

@<TRIPOS>ATOM
      1 C         -28.0162   -0.8135   28.8779 C.ar    1  UNL1        0.0000
      2 C         -27.0636   -0.1190   28.6079 C.ar    1  UNL1        0.0006
      3 C         -27.0010    0.6913   27.4910 C.ar    1  UNL1        0.0083
      4 C         -28.1373    0.7363   26.6350 C.ar    1  UNL1        0.0426
      5 C         -28.1438    1.4323   25.4881 C.1     1  UNL1       -0.0512
      6 C         -29.2800   -0.5524   28.2479 C.ar    1  UNL1        0.0006
      7 C         -29.2552    0.0950   27.0446 C.ar    1  UNL1        0.0083
      8 C         -28.2044    1.4987   24.4412 C.1     1  UNL1       -0.0092
@<TRIPOS>BOND
     1     4     5    1
     2     5     8    3
     3     1     2   ar
     4     2     3   ar
     5     3     4   ar
     6     4     7   ar
     7     7     6   ar
     8     6     1   ar
