@<TRIPOS>MOLECULE
No_2524-gen_results/8p0m/2024-11-26-14-13-15/
 10 10 0 0 0
SMALL
GASTEIGER

@<TRIPOS>ATOM
      1 C         -28.0162   -0.8135   28.8779 C.ar    1  UNL1        0.0025
      2 C         -27.0636   -0.1189   28.6079 C.ar    1  UNL1        0.0296
      3 C         -26.9716    0.7139   27.5060 C.ar    1  UNL1        0.1404
      4 C         -28.1053    0.7744   26.6421 C.ar    1  UNL1        0.0362
      5 C         -29.2041    0.1179   27.0477 C.ar    1  UNL1        0.0820
      6 C         -29.2127   -0.6088   28.1281 C.ar    1  UNL1        0.0067
      7 F         -25.8738    1.4073   27.1728 F       1  UNL1       -0.2042
      8 C         -30.3669    0.2295   26.1371 C.2     1  UNL1        0.3878
      9 O         -31.3710   -0.2376   26.4196 O.co2   1  UNL1       -0.2406
     10 O         -30.3347    1.0925   25.1674 O.co2   1  UNL1       -0.2406
@<TRIPOS>BOND
     1     3     7    1
     2     5     8    1
     3     8     9   ar
     4     8    10   ar
     5     1     2   ar
     6     2     3   ar
     7     3     4   ar
     8     4     5   ar
     9     5     6   ar
    10     6     1   ar
