@<TRIPOS>MOLECULE
No_2526-gen_results/8p0m/2024-11-26-14-13-15/
 19 20 0 0 0
SMALL
GASTEIGER

@<TRIPOS>ATOM
      1 O         -28.1229   -1.3353   28.4874 O.2     1  UNL1       -0.2680
      2 C         -27.4806   -0.4044   28.7094 C.2     1  UNL1        0.2690
      3 C         -26.3804   -0.0867   27.9394 C.ar    1  UNL1        0.0553
      4 N         -27.4232    0.1749   30.0549 N.am    1  UNL1       -0.1754
      5 C         -26.1558    0.1159   26.9677 C.ar    1  UNL1        0.0046
      6 C         -24.8999    0.6041   26.2249 C.ar    1  UNL1        0.0001
      7 C         -23.8294    0.8007   27.0443 C.ar    1  UNL1        0.0039
      8 C         -23.9618    0.5852   28.4109 C.ar    1  UNL1        0.0716
      9 C         -25.0820    0.2407   28.9595 C.ar    1  UNL1        0.0084
     10 C         -28.5139    0.2146   30.7579 C.ar    1  UNL1        0.0737
     11 C         -29.1932    1.1892   30.8032 C.ar    1  UNL1        0.0166
     12 C         -30.4420    1.3034   31.6214 C.ar    1  UNL1        0.0013
     13 C         -30.7745    0.1776   32.3940 C.ar    1  UNL1        0.0001
     14 C         -29.9826   -0.9530   32.3531 C.ar    1  UNL1        0.0013
     15 C         -28.8087   -0.9863   31.5768 C.ar    1  UNL1        0.0166
     16 C         -22.7808    0.9295   29.2731 C.3     1  UNL1        0.4186
     17 F         -23.1918    1.4936   30.3372 F       1  UNL1       -0.1659
     18 F         -21.9252    1.6886   28.6965 F       1  UNL1       -0.1659
     19 F         -22.2221   -0.2632   29.5642 F       1  UNL1       -0.1659
@<TRIPOS>BOND
     1     1     2    2
     2     2     3    1
     3     2     4   am
     4     4    10    1
     5     8    16    1
     6    16    17    1
     7    16    18    1
     8    16    19    1
     9     3     5   ar
    10     5     6   ar
    11     6     7   ar
    12     7     8   ar
    13     8     9   ar
    14     9     3   ar
    15    10    11   ar
    16    11    12   ar
    17    12    13   ar
    18    13    14   ar
    19    14    15   ar
    20    15    10   ar
