@<TRIPOS>MOLECULE
No_2528-gen_results/8p0m/2024-11-26-14-13-15/
 12 12 0 0 0
SMALL
GASTEIGER

@<TRIPOS>ATOM
      1 C         -28.0162   -0.8135   28.8779 C.1     1  UNL1       -0.0597
      2 C         -28.4690   -0.7850   29.8287 C.1     1  UNL1       -0.0591
      3 C         -27.2166   -0.0832   27.9639 C.ar    1  UNL1        0.0420
      4 C         -26.5094   -0.3500   26.9456 C.ar    1  UNL1        0.0082
      5 C         -25.5425    0.3811   26.5228 C.ar    1  UNL1        0.0006
      6 C         -25.1854    1.6624   26.9424 C.ar    1  UNL1        0.0000
      7 C         -25.9212    2.0637   28.0484 C.ar    1  UNL1        0.0006
      8 C         -26.8361    1.2142   28.5896 C.ar    1  UNL1        0.0082
      9 C         -29.2909   -1.6732   30.5589 C.2     1  UNL1        0.0496
     10 C         -30.4114   -1.4639   31.1443 C.2     1  UNL1        0.0089
     11 C         -30.5715   -0.1043   31.6693 C.2     1  UNL1        0.0006
     12 C         -29.7344    0.8601   31.2252 C.2     1  UNL1        0.0000
@<TRIPOS>BOND
     1     1     2    3
     2     1     3    1
     3     2     9    1
     4     9    10    2
     5    10    11    1
     6    11    12    2
     7     3     4   ar
     8     4     5   ar
     9     5     6   ar
    10     6     7   ar
    11     7     8   ar
    12     8     3   ar
