@<TRIPOS>MOLECULE
No_2529-gen_results/8p0m/2024-11-26-14-13-15/
 12 13 0 0 0
SMALL
GASTEIGER

@<TRIPOS>ATOM
      1 C         -28.0162   -0.8135   28.8779 C.ar    1  UNL1        0.0000
      2 C         -28.4690   -0.7850   29.8287 C.ar    1  UNL1        0.0000
      3 C         -26.5455   -0.8762   28.8500 C.ar    1  UNL1        0.0000
      4 C         -25.8041   -1.0324   30.0571 C.ar    1  UNL1        0.0015
      5 C         -26.5373   -1.0386   31.2171 C.ar    1  UNL1        0.0000
      6 C         -27.8843   -0.9532   31.1862 C.ar    1  UNL1        0.0000
      7 C         -24.3555   -1.1121   30.0346 C.ar    1  UNL1        0.0192
      8 C         -23.6129   -1.1081   29.0414 C.ar    1  UNL1        0.0031
      9 C         -22.1516   -0.9907   29.0790 C.ar    1  UNL1        0.0207
     10 C         -23.5978   -0.1195   30.9277 C.ar    1  UNL1        0.0988
     11 N         -23.0771    0.7307   30.7287 N.ar    1  UNL1       -0.2423
     12 C         -22.0006    0.5025   29.6154 C.ar    1  UNL1        0.0989
@<TRIPOS>BOND
     1     4     7    1
     2     1     2   ar
     3     2     6   ar
     4     6     5   ar
     5     5     4   ar
     6     4     3   ar
     7     3     1   ar
     8     7     8   ar
     9     8     9   ar
    10     9    12   ar
    11    12    11   ar
    12    11    10   ar
    13    10     7   ar
