@<TRIPOS>MOLECULE
No_253-gen_results/8p0m/2024-11-26-14-13-15/
 35 38 0 0 0
SMALL
GASTEIGER

@<TRIPOS>ATOM
      1 O         -28.1229   -1.3353   28.4874 O.2     1  UNL1       -0.2541
      2 C         -27.4806   -0.4044   28.7094 C.2     1  UNL1        0.3334
      3 C         -27.1904    0.2460   29.5268 C.ar    1  UNL1        0.0680
      4 F         -26.7282   -0.1238   27.4073 F       1  UNL1       -0.1586
      5 C         -27.6905    0.2967   30.8292 C.ar    1  UNL1        0.0055
      6 C         -28.8636   -0.2805   31.0365 C.ar    1  UNL1        0.0048
      7 C         -29.6683    0.0126   31.9927 C.ar    1  UNL1        0.0555
      8 C         -29.0696    0.8070   33.1094 C.ar    1  UNL1        0.0046
      9 C         -27.8270    1.4187   32.9757 C.ar    1  UNL1        0.0002
     10 C         -27.1579    1.2680   31.8195 C.ar    1  UNL1        0.0004
     11 C         -25.8791    1.8685   31.6279 C.ar    1  UNL1        0.0056
     12 C         -25.0563    1.6886   30.4738 C.ar    1  UNL1        0.0680
     13 C         -23.8023    2.2732   30.2277 C.2     1  UNL1        0.3334
     14 C         -25.6743    0.9257   29.4872 C.ar    1  UNL1        0.0111
     15 O         -23.2859    2.9026   30.9056 O.2     1  UNL1       -0.2541
     16 F         -23.3561    2.2011   28.9555 F       1  UNL1       -0.1586
     17 C         -30.9026   -0.6967   32.3189 C.2     1  UNL1        0.2716
     18 O         -31.4910   -1.3364   31.6135 O.2     1  UNL1       -0.2679
     19 N         -31.3054   -0.6530   33.6337 N.am    1  UNL1       -0.1371
     20 C         -32.5479   -1.2937   34.0533 C.2     1  UNL1        0.2716
     21 C         -32.7969   -1.3061   35.2241 C.ar    1  UNL1        0.0555
     22 C         -32.0122   -0.6970   36.1571 C.ar    1  UNL1        0.0046
     23 C         -32.2771   -0.6889   37.6234 C.ar    1  UNL1        0.0001
     24 C         -33.4195   -1.3709   37.9877 C.ar    1  UNL1        0.0000
     25 C         -34.2405   -1.9789   37.1296 C.ar    1  UNL1        0.0004
     26 C         -33.9275   -1.9546   35.7634 C.ar    1  UNL1        0.0046
     27 C         -33.7493   -1.3743   39.4681 C.ar    1  UNL1        0.0002
     28 C         -34.5621   -1.9505   39.9703 C.ar    1  UNL1        0.0064
     29 C         -35.4530   -2.8064   39.2459 C.ar    1  UNL1        0.0756
     30 C         -35.2984   -2.7743   37.7934 C.ar    1  UNL1        0.0064
     31 C         -36.5805   -3.5663   39.7129 C.2     1  UNL1        0.3413
     32 O         -36.9549   -3.6995   40.8098 O.2     1  UNL1       -0.2449
     33 O         -37.1142   -4.3847   38.7375 O.3     1  UNL1       -0.4413
     34 O         -33.2295   -1.7498   33.1480 O.2     1  UNL1       -0.2679
     35 C         -38.1300   -5.0820   39.0825 C.3     1  UNL1        0.2560
@<TRIPOS>BOND
     1     1     2    2
     2     2     3    1
     3     2     4    1
     4    12    13    1
     5    13    15    2
     6    13    16    1
     7     7    17    1
     8    17    18    2
     9    17    19   am
    10    19    20   am
    11    20    21    1
    12    29    31    1
    13    31    32    2
    14    31    33    1
    15    20    34    2
    16    33    35    1
    17     3     5   ar
    18    10    11   ar
    19    11    12   ar
    20    12    14   ar
    21    14     3   ar
    22     5     6   ar
    23     6     7   ar
    24     7     8   ar
    25     8     9   ar
    26     9    10   ar
    27    10     5   ar
    28    25    30   ar
    29    30    29   ar
    30    29    28   ar
    31    28    27   ar
    32    27    24   ar
    33    21    22   ar
    34    22    23   ar
    35    23    24   ar
    36    24    25   ar
    37    25    26   ar
    38    26    21   ar
