@<TRIPOS>MOLECULE
No_2530-gen_results/8p0m/2024-11-26-14-13-15/
 9 9 0 0 0
SMALL
GASTEIGER

@<TRIPOS>ATOM
      1 O         -28.1229   -1.3353   28.4874 O.2     1  UNL1       -0.2492
      2 C         -27.4806   -0.4044   28.7094 C.2     1  UNL1        0.3399
      3 N         -26.4599   -0.1104   28.0051 N.am    1  UNL1       -0.1825
      4 C         -25.4297    0.8788   28.3572 C.3     1  UNL1        0.1439
      5 C         -25.6985    1.5873   29.3706 C.2     1  UNL1        0.0411
      6 N         -27.7527    0.2412   29.9527 N.am    1  UNL1       -0.1825
      7 C         -24.7652    2.6450   29.9108 C.2     1  UNL1        0.2291
      8 C         -26.8441    1.2896   30.3633 C.3     1  UNL1        0.1439
      9 O         -25.1115    3.2885   30.8007 O.2     1  UNL1       -0.2837
@<TRIPOS>BOND
     1     1     2    2
     2     2     3   am
     3     3     4    1
     4     4     5    1
     5     2     6   am
     6     5     7    2
     7     5     8    1
     8     6     8    1
     9     7     9    1
