@<TRIPOS>MOLECULE
No_2531-gen_results/8p0m/2024-11-26-14-13-15/
 10 10 0 0 0
SMALL
GASTEIGER

@<TRIPOS>ATOM
      1 C         -28.0162   -0.8135   28.8779 C.ar    1  UNL1       -0.0039
      2 C         -27.0636   -0.1189   28.6079 C.ar    1  UNL1       -0.0178
      3 C         -25.7923   -0.4302   29.0761 C.3     1  UNL1        0.0520
      4 C         -24.5456    0.3494   28.8225 C.2     1  UNL1       -0.0260
      5 C         -23.2409    0.0217   29.3323 C.2     1  UNL1       -0.0300
      6 C         -29.3456   -0.3422   28.7604 C.ar    1  UNL1       -0.0003
      7 C         -29.4865    0.8193   27.9917 C.ar    1  UNL1       -0.0000
      8 C         -28.4221    1.5291   27.5342 C.ar    1  UNL1       -0.0003
      9 C         -27.1279    1.0912   27.8679 C.ar    1  UNL1       -0.0039
     10 C         -23.1263   -1.2744   29.8744 C.3     1  UNL1        0.0304
@<TRIPOS>BOND
     1     3     4    1
     2     4     5    2
     3     5    10    1
     4     3     2    1
     5     1     2   ar
     6     2     9   ar
     7     9     8   ar
     8     8     7   ar
     9     7     6   ar
    10     6     1   ar
