@<TRIPOS>MOLECULE
No_2532-gen_results/8p0m/2024-11-26-14-13-15/
 12 12 0 0 0
SMALL
GASTEIGER

@<TRIPOS>ATOM
      1 C         -28.0162   -0.8135   28.8779 C.ar    1  UNL1        0.0046
      2 C         -28.4690   -0.7850   29.8287 C.ar    1  UNL1        0.0010
      3 C         -28.1960    0.3478   28.0550 C.ar    1  UNL1        0.0544
      4 C         -29.0191    1.3501   28.3782 C.ar    1  UNL1        0.0159
      5 C         -29.4107    0.1803   30.3782 C.ar    1  UNL1        0.0114
      6 C         -29.6059    1.2495   29.6193 C.ar    1  UNL1        0.0578
      7 C         -27.4478    0.3799   26.7122 C.2     1  UNL1        0.2491
      8 N         -27.8661    0.6718   25.7147 N.am    1  UNL1       -0.2726
      9 O         -26.0898    0.3930   26.8421 O.2     1  UNL1       -0.2699
     10 C         -29.2833    0.7879   25.4300 C.3     1  UNL1        0.1152
     11 C         -27.0368    0.7278   24.4728 C.3     1  UNL1        0.1152
     12 CL        -30.6775    2.5122   30.0793 Cl      1  UNL1       -0.0822
@<TRIPOS>BOND
     1     3     7    1
     2     7     8   am
     3     7     9    2
     4     8    10    1
     5     8    11    1
     6     6    12    1
     7     1     2   ar
     8     2     5   ar
     9     5     6   ar
    10     6     4   ar
    11     4     3   ar
    12     3     1   ar
