@<TRIPOS>MOLECULE
No_2533-gen_results/8p0m/2024-11-26-14-13-15/
 16 18 0 0 0
SMALL
GASTEIGER

@<TRIPOS>ATOM
      1 C         -28.0162   -0.8135   28.8779 C.ar    1  UNL1        0.0062
      2 C         -27.0636   -0.1189   28.6079 C.ar    1  UNL1        0.0355
      3 C         -26.9716    0.7139   27.5060 C.ar    1  UNL1       -0.0115
      4 C         -28.1053    0.7744   26.6421 C.ar    1  UNL1        0.0382
      5 C         -29.2041    0.1179   27.0477 C.ar    1  UNL1        0.1954
      6 C         -29.2127   -0.6088   28.1281 C.ar    1  UNL1        0.0421
      7 O         -30.2936    0.2344   26.2281 O.3     1  UNL1       -0.2866
      8 C         -25.6944    1.4446   27.1335 C.3     1  UNL1        0.0529
      9 C         -24.5160    0.8711   27.6474 C.ar    1  UNL1       -0.0147
     10 C         -23.2694    1.6041   27.5113 C.ar    1  UNL1       -0.0038
     11 C         -22.1322    1.2186   28.2783 C.ar    1  UNL1       -0.0003
     12 C         -22.1365    0.0553   28.9971 C.ar    1  UNL1        0.0001
     13 C         -23.3176   -0.7291   29.0723 C.ar    1  UNL1        0.0029
     14 C         -24.4854   -0.2759   28.4646 C.ar    1  UNL1        0.0353
     15 C         -25.6818   -0.6041   29.1766 C.2     1  UNL1        0.1950
     16 O         -25.7113   -1.5075   30.0470 O.2     1  UNL1       -0.2866
@<TRIPOS>BOND
     1     5     7    1
     2     3     8    1
     3     2    15    1
     4    14    15    1
     5    15    16    2
     6     8     9    1
     7     1     2   ar
     8     2     3   ar
     9     3     4   ar
    10     4     5   ar
    11     5     6   ar
    12     6     1   ar
    13     9    10   ar
    14    10    11   ar
    15    11    12   ar
    16    12    13   ar
    17    13    14   ar
    18    14     9   ar
