@<TRIPOS>MOLECULE
No_2534-gen_results/8p0m/2024-11-26-14-13-15/
 18 19 0 0 0
SMALL
GASTEIGER

@<TRIPOS>ATOM
      1 C         -28.0162   -0.8135   28.8779 C.ar    1  UNL1        0.0000
      2 C         -27.0636   -0.1189   28.6079 C.ar    1  UNL1        0.0001
      3 C         -26.8756    1.1325   28.9134 C.ar    1  UNL1        0.0047
      4 C         -25.6883    1.9515   28.5672 C.ar    1  UNL1        0.0628
      5 C         -24.6394    1.2834   27.8753 C.ar    1  UNL1        0.0596
      6 C         -24.8068   -0.0513   27.6040 C.ar    1  UNL1        0.0047
      7 C         -25.9020   -0.7670   27.9511 C.ar    1  UNL1        0.0002
      8 C         -28.6392   -0.5118   30.2403 C.ar    1  UNL1        0.0000
      9 C         -28.8731    0.8215   30.4840 C.ar    1  UNL1        0.0000
     10 C         -27.6873    1.6637   30.0653 C.ar    1  UNL1        0.0001
     11 C         -23.4738    1.9736   27.3661 C.2     1  UNL1        0.2650
     12 O         -23.4098    2.7652   26.5300 O.2     1  UNL1       -0.2684
     13 N         -22.2309    1.6970   28.1139 N.am    1  UNL1       -0.1998
     14 C         -22.0538    0.8045   29.1162 C.3     1  UNL1        0.1388
     15 C         -25.5275    3.3917   28.8970 C.2     1  UNL1        0.3066
     16 N         -25.2044    3.8385   30.0486 N.am    1  UNL1        0.0432
     17 O         -25.8945    4.2056   27.9918 O.2     1  UNL1       -0.2648
     18 O         -24.9092    3.0178   31.1199 O.2     1  UNL1       -0.1528
@<TRIPOS>BOND
     1     5    11    1
     2    11    12    2
     3    11    13   am
     4    13    14    1
     5     4    15    1
     6    15    16    1
     7    15    17    2
     8    16    18    2
     9     3     4   ar
    10     4     5   ar
    11     5     6   ar
    12     6     7   ar
    13     7     2   ar
    14     1     2   ar
    15     2     3   ar
    16     3    10   ar
    17    10     9   ar
    18     9     8   ar
    19     8     1   ar
