@<TRIPOS>MOLECULE
No_2535-gen_results/8p0m/2024-11-26-14-13-15/
 11 11 0 0 0
SMALL
GASTEIGER

@<TRIPOS>ATOM
      1 C         -28.0162   -0.8135   28.8779 C.ar    1  UNL1       -0.0003
      2 C         -28.4690   -0.7850   29.8287 C.ar    1  UNL1       -0.0000
      3 C         -26.5455   -0.8762   28.8500 C.ar    1  UNL1       -0.0039
      4 C         -25.8041   -1.0324   30.0571 C.ar    1  UNL1       -0.0178
      5 C         -26.5373   -1.0386   31.2171 C.ar    1  UNL1       -0.0039
      6 C         -27.8843   -0.9532   31.1862 C.ar    1  UNL1       -0.0003
      7 C         -24.3655   -1.1134   30.0483 C.3     1  UNL1        0.0520
      8 C         -23.6925    0.1188   29.9185 C.2     1  UNL1       -0.0260
      9 C         -23.1776    0.5817   28.7884 C.2     1  UNL1       -0.0304
     10 C         -22.7285    1.8795   28.5450 C.3     1  UNL1        0.0257
     11 C         -22.3364    2.0293   27.1673 C.3     1  UNL1        0.0050
@<TRIPOS>BOND
     1     4     7    1
     2     7     8    1
     3     8     9    2
     4     9    10    1
     5    10    11    1
     6     1     2   ar
     7     2     6   ar
     8     6     5   ar
     9     5     4   ar
    10     4     3   ar
    11     3     1   ar
