@<TRIPOS>MOLECULE
No_2536-gen_results/8p0m/2024-11-26-14-13-15/
 20 22 0 0 0
SMALL
GASTEIGER

@<TRIPOS>ATOM
      1 C         -28.0162   -0.8135   28.8779 C.ar    1  UNL1        0.0106
      2 C         -28.4690   -0.7850   29.8287 C.ar    1  UNL1        0.0475
      3 C         -26.5042   -0.7777   28.8766 C.ar    1  UNL1       -0.0166
      4 C         -25.6540   -0.6597   27.7191 C.3     1  UNL1        0.0527
      5 C         -27.9180   -0.9374   31.1824 C.ar    1  UNL1        0.0145
      6 C         -26.5423   -0.9399   31.2606 C.ar    1  UNL1        0.0010
      7 C         -25.7832   -0.8935   30.1201 C.ar    1  UNL1       -0.0039
      8 C         -25.9259    0.2819   26.7445 C.ar    1  UNL1       -0.0178
      9 C         -25.0234    0.4476   25.6774 C.ar    1  UNL1       -0.0039
     10 C         -27.0932    1.0563   26.7733 C.ar    1  UNL1       -0.0039
     11 C         -27.3811    1.8575   25.6360 C.ar    1  UNL1       -0.0003
     12 C         -26.5115    1.9089   24.5887 C.ar    1  UNL1       -0.0000
     13 C         -25.3711    1.2186   24.5769 C.ar    1  UNL1       -0.0003
     14 N         -29.9522   -0.7810   29.8428 N.pl3   1  UNL1       -0.3073
     15 C         -30.5957   -0.0663   28.9845 C.3     1  UNL1        0.0936
     16 C         -32.0064   -0.3017   28.8236 C.3     1  UNL1        0.0567
     17 C         -30.7401   -1.6387   30.6661 C.3     1  UNL1        0.0936
     18 C         -32.0539   -1.8147   30.5033 C.3     1  UNL1        0.0567
     19 C         -32.7017   -1.0753   29.6180 C.3     1  UNL1        0.1644
     20 F         -34.0003   -1.2209   29.4603 F       1  UNL1       -0.2372
@<TRIPOS>BOND
     1     3     4    1
     2     2    14    1
     3    14    15    1
     4    14    17    1
     5    16    19    1
     6    18    19    1
     7    19    20    1
     8     4     8    1
     9    15    16    1
    10    18    17    1
    11     1     2   ar
    12     2     5   ar
    13     5     6   ar
    14     6     7   ar
    15     7     3   ar
    16     3     1   ar
    17     8     9   ar
    18     9    13   ar
    19    13    12   ar
    20    12    11   ar
    21    11    10   ar
    22    10     8   ar
