@<TRIPOS>MOLECULE
No_2537-gen_results/8p0m/2024-11-26-14-13-15/
 19 20 0 0 0
SMALL
GASTEIGER

@<TRIPOS>ATOM
      1 C         -28.0162   -0.8135   28.8779 C.2     1  UNL1        0.2690
      2 C         -27.0636   -0.1189   28.6079 C.ar    1  UNL1        0.0554
      3 C         -25.7923   -0.4302   29.0761 C.ar    1  UNL1        0.0054
      4 C         -24.5456    0.3494   28.8225 C.ar    1  UNL1        0.0115
      5 C         -24.6586    1.4196   27.8878 C.ar    1  UNL1        0.0577
      6 C         -25.9471    1.6811   27.3792 C.ar    1  UNL1        0.0115
      7 C         -27.1796    1.0029   27.7610 C.ar    1  UNL1        0.0054
      8 N         -29.1898   -0.1813   29.1083 N.am    1  UNL1       -0.1754
      9 O         -27.9131   -1.9927   29.4402 O.2     1  UNL1       -0.2680
     10 C         -30.3752   -0.8058   29.5409 C.ar    1  UNL1        0.0738
     11 CL        -23.3051    2.3051   27.5188 Cl      1  UNL1       -0.0822
     12 C         -31.4718   -0.5437   28.7946 C.ar    1  UNL1        0.0182
     13 C         -32.4706   -0.2688   29.2339 C.ar    1  UNL1        0.0204
     14 C         -32.7752   -0.5895   30.6972 C.ar    1  UNL1        0.0811
     15 C         -31.6956   -0.8954   31.4768 C.ar    1  UNL1        0.0204
     16 C         -30.5204   -0.8928   30.9466 C.ar    1  UNL1        0.0182
     17 N         -34.0118   -0.5782   31.3212 N.2     1  UNL1       -0.2485
     18 C         -34.8416    0.3405   31.0483 C.2     1  UNL1        0.0728
     19 C         -36.1624    0.2108   31.7470 C.3     1  UNL1        0.0534
@<TRIPOS>BOND
     1     1     2    1
     2     1     8   am
     3     1     9    2
     4     8    10    1
     5     5    11    1
     6    14    17    1
     7    17    18    2
     8    18    19    1
     9     2     3   ar
    10     3     4   ar
    11     4     5   ar
    12     5     6   ar
    13     6     7   ar
    14     7     2   ar
    15    10    12   ar
    16    12    13   ar
    17    13    14   ar
    18    14    15   ar
    19    15    16   ar
    20    16    10   ar
