@<TRIPOS>MOLECULE
No_2538-gen_results/8p0m/2024-11-26-14-13-15/
 16 17 0 0 0
SMALL
GASTEIGER

@<TRIPOS>ATOM
      1 C         -28.0162   -0.8135   28.8779 C.ar    1  UNL1        0.0111
      2 C         -27.0636   -0.1190   28.6079 C.ar    1  UNL1       -0.0030
      3 C         -25.7923   -0.4302   29.0761 C.ar    1  UNL1       -0.0154
      4 C         -24.5456    0.3494   28.8225 C.3     1  UNL1        0.0823
      5 C         -23.2409    0.0217   29.3323 C.3     1  UNL1        0.0119
      6 C         -27.8820   -1.8995   29.8633 C.ar    1  UNL1        0.0577
      7 C         -26.6526   -2.3142   30.3138 C.ar    1  UNL1        0.0111
      8 C         -25.5153   -1.5607   29.9787 C.ar    1  UNL1       -0.0030
      9 C         -22.1645    0.7936   28.9524 C.3     1  UNL1        0.0037
     10 C         -22.1241    1.7484   27.9889 C.3     1  UNL1        0.0372
     11 C         -24.5235    1.3782   27.7946 C.2     1  UNL1        0.1810
     12 C         -23.3387    2.0417   27.4305 C.3     1  UNL1        0.1724
     13 CL        -29.2399   -2.8440   30.3455 Cl      1  UNL1       -0.0822
     14 O         -23.4491    2.9949   26.4703 O.3     1  UNL1       -0.3462
     15 C         -24.6555    2.8093   25.7161 C.3     1  UNL1        0.1746
     16 O         -25.6274    1.5855   27.2419 O.2     1  UNL1       -0.2932
@<TRIPOS>BOND
     1     3     4    1
     2     5     9    1
     3     4    11    1
     4    10    12    1
     5    11    12    1
     6     6    13    1
     7    12    14    1
     8    14    15    1
     9    11    16    2
    10     4     5    1
    11     9    10    1
    12     1     2   ar
    13     2     3   ar
    14     3     8   ar
    15     8     7   ar
    16     7     6   ar
    17     6     1   ar
