@<TRIPOS>MOLECULE
No_2539-gen_results/8p0m/2024-11-26-14-13-15/
 8 8 0 0 0
SMALL
GASTEIGER

@<TRIPOS>ATOM
      1 C         -28.0162   -0.8135   28.8779 C.ar    1  UNL1        0.0083
      2 C         -28.4690   -0.7850   29.8287 C.ar    1  UNL1        0.0006
      3 C         -28.1960    0.3478   28.0550 C.ar    1  UNL1        0.0426
      4 C         -29.0191    1.3501   28.3782 C.ar    1  UNL1        0.0083
      5 C         -29.4107    0.1803   30.3782 C.ar    1  UNL1        0.0000
      6 C         -29.6059    1.2495   29.6193 C.ar    1  UNL1        0.0006
      7 C         -27.4478    0.3799   26.7122 C.1     1  UNL1       -0.0512
      8 C         -25.9806    0.2548   26.7837 C.1     1  UNL1       -0.0092
@<TRIPOS>BOND
     1     3     7    1
     2     7     8    3
     3     1     2   ar
     4     2     5   ar
     5     5     6   ar
     6     6     4   ar
     7     4     3   ar
     8     3     1   ar
