@<TRIPOS>MOLECULE
No_254-gen_results/8p0m/2024-11-26-14-13-15/
 23 25 0 0 0
SMALL
GASTEIGER

@<TRIPOS>ATOM
      1 C         -28.0162   -0.8135   28.8779 C.ar    1  UNL1        0.0257
      2 C         -28.4690   -0.7850   29.8287 C.ar    1  UNL1        0.1398
      3 C         -26.5042   -0.7777   28.8766 C.ar    1  UNL1       -0.0155
      4 C         -25.9150   -0.6580   29.9230 C.ar    1  UNL1       -0.0005
      5 C         -27.9691   -0.7243   31.2047 C.ar    1  UNL1        0.0296
      6 C         -26.5847   -0.6393   31.2062 C.ar    1  UNL1        0.0021
      7 F         -29.9234   -0.8692   29.8565 F       1  UNL1       -0.2042
      8 C         -24.3899   -0.5855   30.0029 C.ar    1  UNL1        0.0379
      9 C         -23.8328    0.8142   30.1811 C.ar    1  UNL1        0.0620
     10 C         -22.5686    1.0239   29.6103 C.ar    1  UNL1        0.0412
     11 C         -21.8194    0.0593   28.9892 C.ar    1  UNL1        0.1432
     12 C         -22.3761   -1.2645   28.8550 C.ar    1  UNL1        0.0593
     13 C         -23.6573   -1.5311   29.2968 C.ar    1  UNL1        0.1431
     14 F         -24.1287   -2.6688   29.0655 F       1  UNL1       -0.2041
     15 CL        -24.6472    2.0189   31.0321 Cl      1  UNL1       -0.0821
     16 F         -20.6629    0.3231   28.6239 F       1  UNL1       -0.2041
     17 C         -25.7949   -0.6824   27.5250 C.3     1  UNL1        0.0527
     18 C         -26.2820    0.2911   26.6095 C.ar    1  UNL1       -0.0178
     19 C         -25.7281    0.3810   25.3550 C.ar    1  UNL1       -0.0039
     20 C         -27.2137    1.2616   26.9382 C.ar    1  UNL1       -0.0039
     21 C         -27.5818    2.2478   26.0216 C.ar    1  UNL1       -0.0003
     22 C         -27.1043    2.1556   24.7619 C.ar    1  UNL1       -0.0000
     23 C         -26.0998    1.2150   24.3977 C.ar    1  UNL1       -0.0003
@<TRIPOS>BOND
     1     2     7    1
     2     4     8    1
     3    13    14    1
     4     9    15    1
     5    11    16    1
     6     3    17    1
     7    17    18    1
     8    18    19   ar
     9    19    23   ar
    10    23    22   ar
    11    22    21   ar
    12    21    20   ar
    13    20    18   ar
    14     8     9   ar
    15     9    10   ar
    16    10    11   ar
    17    11    12   ar
    18    12    13   ar
    19    13     8   ar
    20     1     2   ar
    21     2     5   ar
    22     5     6   ar
    23     6     4   ar
    24     4     3   ar
    25     3     1   ar
