@<TRIPOS>MOLECULE
No_2540-gen_results/8p0m/2024-11-26-14-13-15/
 27 28 0 0 0
SMALL
GASTEIGER

@<TRIPOS>ATOM
      1 C         -28.0162   -0.8135   28.8779 C.ar    1  UNL1        0.0178
      2 C         -28.4690   -0.7850   29.8287 C.ar    1  UNL1        0.0354
      3 C         -26.5042   -0.7777   28.8766 C.ar    1  UNL1        0.0542
      4 C         -25.8103   -0.8531   30.1028 C.ar    1  UNL1       -0.0106
      5 C         -27.9906   -0.8916   31.2257 C.ar    1  UNL1        0.0064
      6 C         -26.6042   -0.8676   31.2652 C.ar    1  UNL1       -0.0029
      7 BR        -30.4622   -0.8398   29.8385 Br      1  UNL1       -0.0490
      8 C         -24.3620   -0.8196   30.1394 C.3     1  UNL1        0.0445
      9 C         -23.7947    0.5260   30.0811 C.3     1  UNL1        0.1488
     10 C         -24.1653    1.5488   30.5542 C.2     1  UNL1        0.0837
     11 N         -25.2157    1.6060   31.3954 N.2     1  UNL1       -0.2479
     12 C         -25.6152    2.8750   31.9586 C.ar    1  UNL1        0.0812
     13 C         -25.2554    3.9159   31.3190 C.ar    1  UNL1        0.0267
     14 C         -25.7476    5.2066   31.9107 C.ar    1  UNL1        0.0922
     15 C         -26.4044    2.9122   33.1767 C.ar    1  UNL1        0.0191
     16 C         -26.8232    4.0995   33.7058 C.ar    1  UNL1        0.0018
     17 C         -26.4431    5.3070   33.0574 C.ar    1  UNL1        0.0078
     18 C         -22.4889    0.4716   29.2327 C.2     1  UNL1        0.3703
     19 O         -21.6552   -0.3420   29.3860 O.co2   1  UNL1       -0.2452
     20 O         -22.2601    1.5161   28.4349 O.co2   1  UNL1       -0.2452
     21 CL        -25.6047   -0.6493   27.4250 Cl      1  UNL1       -0.0826
     22 C         -25.2782    6.4906   31.1902 C.2     1  UNL1        0.4154
     23 N         -24.5143    7.3239   31.7468 N.pl3   1  UNL1        0.2163
     24 N         -25.5968    6.6121   29.9410 N.2     1  UNL1       -0.0291
     25 C         -26.2917    5.8756   29.1343 C.2     1  UNL1        0.2314
     26 C         -27.3154    5.6355   29.1114 C.2     1  UNL1        0.0246
     27 C         -28.0180    4.7267   28.1689 C.3     1  UNL1        0.0348
@<TRIPOS>BOND
     1     2     7    1
     2     4     8    1
     3     8     9    1
     4     9    10    1
     5    10    11    2
     6    11    12    1
     7     9    18    1
     8    18    19   ar
     9    18    20   ar
    10     3    21    1
    11    14    22    1
    12    22    23    1
    13    22    24    2
    14    24    25    1
    15    25    26    2
    16    26    27    1
    17    12    13   ar
    18    13    14   ar
    19    14    17   ar
    20    17    16   ar
    21    16    15   ar
    22    15    12   ar
    23     1     2   ar
    24     2     5   ar
    25     5     6   ar
    26     6     4   ar
    27     4     3   ar
    28     3     1   ar
