@<TRIPOS>MOLECULE
No_2541-gen_results/8p0m/2024-11-26-14-13-15/
 21 22 0 0 0
SMALL
GASTEIGER

@<TRIPOS>ATOM
      1 C         -28.0162   -0.8135   28.8779 C.ar    1  UNL1        0.0369
      2 C         -27.0636   -0.1189   28.6079 C.ar    1  UNL1        0.0028
      3 C         -25.7647   -0.3897   29.0360 C.ar    1  UNL1       -0.0038
      4 C         -25.5296   -1.5302   29.9014 C.ar    1  UNL1       -0.0192
      5 C         -26.6577   -2.2915   30.2035 C.ar    1  UNL1        0.0327
      6 C         -27.8548   -1.9555   29.7630 C.ar    1  UNL1        0.1390
      7 C         -24.5349    0.4128   28.7431 C.ar    1  UNL1       -0.0003
      8 C         -23.3062    0.0366   29.0393 C.ar    1  UNL1       -0.0000
      9 C         -22.2007    0.7002   28.8095 C.ar    1  UNL1       -0.0000
     10 C         -22.1909    1.7325   27.8255 C.ar    1  UNL1       -0.0000
     11 C         -24.6273    1.5385   27.8324 C.ar    1  UNL1       -0.0000
     12 C         -23.4144    2.1802   27.4387 C.ar    1  UNL1       -0.0000
     13 O         -28.9203   -2.7284   30.1417 O.3     1  UNL1       -0.4656
     14 C         -28.7727   -4.0160   30.6306 C.3     1  UNL1        0.2896
     15 C         -29.9408   -4.8063   30.4376 C.2     1  UNL1        0.2703
     16 O         -30.5320   -4.8500   29.4140 O.2     1  UNL1       -0.2708
     17 N         -29.9925   -6.0035   31.2746 N.am    1  UNL1       -0.2730
     18 C         -29.3107   -6.0543   32.5420 C.3     1  UNL1        0.1150
     19 C         -31.0749   -6.9176   31.0478 C.3     1  UNL1        0.1150
     20 C         -24.2230   -1.8920   30.4069 C.3     1  UNL1        0.0265
     21 C         -23.1676   -1.1531   30.0379 C.3     1  UNL1        0.0050
@<TRIPOS>BOND
     1     3     7    1
     2     6    13    1
     3    13    14    1
     4    14    15    1
     5    15    16    2
     6    15    17   am
     7    17    18    1
     8    17    19    1
     9     4    20    1
    10    20    21    1
    11     7     8   ar
    12     8     9   ar
    13     9    10   ar
    14    10    12   ar
    15    12    11   ar
    16    11     7   ar
    17     1     2   ar
    18     2     3   ar
    19     3     4   ar
    20     4     5   ar
    21     5     6   ar
    22     6     1   ar
