@<TRIPOS>MOLECULE
No_2542-gen_results/8p0m/2024-11-26-14-13-15/
 26 29 0 0 0
SMALL
GASTEIGER

@<TRIPOS>ATOM
      1 C         -28.0162   -0.8135   28.8779 C.ar    1  UNL1        0.0000
      2 C         -27.0636   -0.1190   28.6079 C.ar    1  UNL1        0.0000
      3 C         -25.7647   -0.3897   29.0360 C.ar    1  UNL1        0.0001
      4 C         -24.5516    0.4058   28.7646 C.ar    1  UNL1        0.0029
      5 C         -23.2300    0.1178   29.2575 C.ar    1  UNL1        0.0001
      6 C         -23.0942   -1.1309   29.8730 C.ar    1  UNL1        0.0000
      7 C         -27.7981   -1.9341   29.8560 C.ar    1  UNL1        0.0000
      8 C         -26.5420   -2.3269   30.2580 C.ar    1  UNL1        0.0000
      9 C         -25.4514   -1.5516   29.9079 C.ar    1  UNL1        0.0000
     10 C         -24.1562   -1.9097   30.2809 C.ar    1  UNL1        0.0000
     11 C         -24.6450    1.6582   27.9464 C.ar    1  UNL1        0.0346
     12 C         -24.8958    2.7559   28.5615 C.ar    1  UNL1        0.1455
     13 C         -25.1728    3.9344   27.8440 C.ar    1  UNL1        0.0375
     14 C         -24.4838    1.5571   26.5889 C.ar    1  UNL1        0.0030
     15 C         -24.6321    2.6940   25.7850 C.ar    1  UNL1        0.0002
     16 C         -24.8902    3.9231   26.4317 C.ar    1  UNL1        0.0031
     17 O         -25.0758    2.9107   29.9068 O.3     1  UNL1       -0.4469
     18 C         -26.2306    3.1354   30.6083 C.ar    1  UNL1        0.2257
     19 C         -26.3258    2.3912   31.7784 C.ar    1  UNL1        0.2333
     20 C         -26.9077    2.9844   32.7793 C.ar    1  UNL1        0.0487
     21 C         -27.7712    3.9277   32.5462 C.ar    1  UNL1        0.0489
     22 C         -27.6247    4.8033   31.4431 C.ar    1  UNL1        0.2376
     23 C         -26.3881    4.6398   30.7939 C.ar    1  UNL1        0.2715
     24 O         -25.0077    1.9147   32.1999 O.3     1  UNL1       -0.2832
     25 O         -25.3505    5.1932   31.5807 O.3     1  UNL1       -0.2797
     26 O         -27.7967    6.2119   31.6972 O.3     1  UNL1       -0.2830
@<TRIPOS>BOND
     1     4    11    1
     2    12    17    1
     3    17    18    1
     4    19    24    1
     5    23    25    1
     6    22    26    1
     7    18    19   ar
     8    19    20   ar
     9    20    21   ar
    10    21    22   ar
    11    22    23   ar
    12    23    18   ar
    13     1     2   ar
    14     2     3   ar
    15     9     8   ar
    16     8     7   ar
    17     7     1   ar
    18    11    12   ar
    19    12    13   ar
    20    13    16   ar
    21    16    15   ar
    22    15    14   ar
    23    14    11   ar
    24     3     4   ar
    25     4     5   ar
    26     5     6   ar
    27     6    10   ar
    28    10     9   ar
    29     9     3   ar
