@<TRIPOS>MOLECULE
No_2543-gen_results/8p0m/2024-11-26-14-13-15/
 28 29 0 0 0
SMALL
GASTEIGER

@<TRIPOS>ATOM
      1 C         -28.0162   -0.8135   28.8779 C.2     1  UNL1       -0.0049
      2 C         -27.0636   -0.1190   28.6079 C.2     1  UNL1       -0.0339
      3 C         -26.9716    0.7139   27.5060 C.3     1  UNL1        0.1178
      4 C         -25.8205    1.4909   27.1160 C.3     1  UNL1        0.0244
      5 C         -24.6562    1.4242   27.9180 C.3     1  UNL1        0.0810
      6 C         -24.6847    0.5901   29.0659 C.3     1  UNL1        0.0136
      7 C         -25.8099   -0.1265   29.3338 C.3     1  UNL1        0.0230
      8 C         -28.7093   -0.4588   30.1754 C.ar    1  UNL1        0.0356
      9 C         -29.8413   -0.5172   30.3363 C.ar    1  UNL1        0.1394
     10 C         -30.5204   -0.1428   31.5516 C.ar    1  UNL1        0.0392
     11 C         -29.7176    0.2591   32.6363 C.ar    1  UNL1        0.0327
     12 C         -28.3548    0.2570   32.5160 C.ar    1  UNL1        0.1403
     13 C         -27.8102   -0.0950   31.3504 C.ar    1  UNL1        0.0326
     14 C         -23.4418    2.1441   27.5590 C.2     1  UNL1        0.2603
     15 N         -23.3675    3.0115   26.6845 N.am    1  UNL1       -0.0878
     16 O         -22.3640    2.0232   28.3097 O.2     1  UNL1       -0.2717
     17 C         -28.1426    0.9015   26.6142 C.2     1  UNL1        0.3203
     18 O         -29.1072    1.4576   26.9425 O.2     1  UNL1       -0.2498
     19 O         -28.1573    0.0927   25.5099 O.3     1  UNL1       -0.4483
     20 O         -30.7700   -0.8277   29.3705 O.3     1  UNL1       -0.4637
     21 C         -31.6419   -0.1123   28.9179 C.3     1  UNL1        0.3186
     22 C         -32.9104   -0.7007   28.8180 C.2     1  UNL1        0.4084
     23 O         -33.1239   -1.8208   28.9544 O.co2   1  UNL1       -0.2415
     24 O         -33.9779    0.0604   28.5175 O.co2   1  UNL1       -0.2415
     25 F         -27.5974    0.5825   33.5076 F       1  UNL1       -0.2042
     26 C         -28.8755    0.5338   24.4623 C.3     1  UNL1        0.2084
     27 C         -28.9761    1.8491   24.2858 C.3     1  UNL1        0.0474
     28 C         -29.8071    2.6114   25.0755 C.3     1  UNL1        0.0040
@<TRIPOS>BOND
     1     1     2    2
     2     2     3    1
     3     3     4    1
     4     4     5    1
     5     5     6    1
     6     2     7    1
     7     6     7    1
     8     1     8    1
     9     5    14    1
    10    14    15   am
    11    14    16    2
    12     3    17    1
    13    17    18    2
    14    17    19    1
    15     9    20    1
    16    20    21    1
    17    21    22    1
    18    22    23   ar
    19    22    24   ar
    20    12    25    1
    21    19    26    1
    22    26    27    1
    23    27    28    1
    24     8     9   ar
    25     9    10   ar
    26    10    11   ar
    27    11    12   ar
    28    12    13   ar
    29    13     8   ar
