@<TRIPOS>MOLECULE
No_2545-gen_results/8p0m/2024-11-26-14-13-15/
 27 29 0 0 0
SMALL
GASTEIGER

@<TRIPOS>ATOM
      1 C         -28.0162   -0.8135   28.8779 C.3     1  UNL1        0.0997
      2 C         -27.0636   -0.1190   28.6079 C.ar    1  UNL1        0.0011
      3 C         -27.0010    0.6913   27.4910 C.ar    1  UNL1       -0.0021
      4 C         -25.8548    1.4825   27.0830 C.ar    1  UNL1        0.0063
      5 C         -24.6901    1.4526   27.8807 C.ar    1  UNL1        0.0803
      6 C         -24.7379    0.6010   29.0416 C.ar    1  UNL1        0.0141
      7 C         -25.8234   -0.1688   29.3887 C.ar    1  UNL1        0.0357
      8 N         -29.2075   -0.1514   29.0660 N.3     1  UNL1       -0.2686
      9 C         -30.2318   -0.7607   29.6957 C.3     1  UNL1        0.0767
     10 C         -23.5223    2.2141   27.5499 C.2     1  UNL1        0.3878
     11 O         -23.4475    2.8032   26.4394 O.co2   1  UNL1       -0.2406
     12 O         -22.3742    1.9957   28.1596 O.co2   1  UNL1       -0.2406
     13 C         -30.4361   -0.7168   30.9457 C.3     1  UNL1        0.0384
     14 C         -29.9276    0.3749   31.5706 C.3     1  UNL1        0.0072
     15 C         -29.6899    1.4658   30.9326 C.3     1  UNL1        0.0177
     16 C         -29.2876    1.2499   29.3028 C.3     1  UNL1        0.0724
     17 C         -25.7332   -0.9555   30.5859 C.1     1  UNL1       -0.0500
     18 C         -31.0820   -1.8070   31.6969 C.ar    1  UNL1       -0.0209
     19 C         -30.7523   -2.9990   31.5728 C.ar    1  UNL1       -0.0010
     20 C         -31.4068   -3.9860   32.1103 C.ar    1  UNL1        0.0417
     21 C         -32.5600   -1.7110   31.6484 C.ar    1  UNL1       -0.0010
     22 C         -33.3342   -2.6401   32.3482 C.ar    1  UNL1        0.0417
     23 C         -32.7830   -3.9465   32.2747 C.ar    1  UNL1        0.1957
     24 O         -33.4448   -4.7602   31.6178 O.3     1  UNL1       -0.2866
     25 P         -25.8960   -1.4382   31.5077 P.3     1  UNL1        0.3168
     26 O         -27.0205   -2.2827   31.5951 O.3     1  UNL1       -0.1610
     27 O         -26.3568   -0.2818   32.7219 O.3     1  UNL1       -0.1610
@<TRIPOS>BOND
     1     1     2    1
     2     1     8    1
     3     8     9    1
     4     5    10    1
     5    10    11   ar
     6    10    12   ar
     7     9    13    1
     8    13    14    1
     9     8    16    1
    10    15    16    1
    11     7    17    1
    12    13    18    1
    13    23    24    1
    14    17    25    3
    15    25    26    1
    16    25    27    1
    17    14    15    1
    18     2     3   ar
    19     3     4   ar
    20     4     5   ar
    21     5     6   ar
    22     6     7   ar
    23     7     2   ar
    24    18    19   ar
    25    19    20   ar
    26    20    23   ar
    27    23    22   ar
    28    22    21   ar
    29    21    18   ar
