@<TRIPOS>MOLECULE
No_2546-gen_results/8p0m/2024-11-26-14-13-15/
 11 11 0 0 0
SMALL
GASTEIGER

@<TRIPOS>ATOM
      1 C         -28.0162   -0.8135   28.8779 C.ar    1  UNL1        0.0046
      2 C         -28.4690   -0.7850   29.8287 C.ar    1  UNL1        0.0001
      3 C         -27.1356    0.2359   28.5352 C.ar    1  UNL1        0.0550
      4 C         -26.8745    1.2825   29.3982 C.ar    1  UNL1        0.0046
      5 C         -28.3613    0.1987   30.9244 C.ar    1  UNL1        0.0000
      6 C         -27.5277    1.2234   30.6356 C.ar    1  UNL1        0.0001
      7 C         -26.3987    0.2949   27.2279 C.2     1  UNL1        0.2648
      8 N         -26.0303    1.4479   26.7584 N.am    1  UNL1       -0.2017
      9 O         -26.1891   -0.7238   26.5721 O.2     1  UNL1       -0.2684
     10 C         -25.2103    1.5894   25.5493 C.3     1  UNL1        0.1155
     11 C         -24.5548    0.7063   25.2847 C.3     1  UNL1        0.0253
@<TRIPOS>BOND
     1     3     7    1
     2     7     8   am
     3     7     9    2
     4     8    10    1
     5    10    11    1
     6     1     2   ar
     7     2     5   ar
     8     5     6   ar
     9     6     4   ar
    10     4     3   ar
    11     3     1   ar
