@<TRIPOS>MOLECULE
No_2547-gen_results/8p0m/2024-11-26-14-13-15/
 17 18 0 0 0
SMALL
GASTEIGER

@<TRIPOS>ATOM
      1 C         -28.0162   -0.8135   28.8779 C.ar    1  UNL1        0.0045
      2 C         -28.4690   -0.7850   29.8287 C.ar    1  UNL1        0.0001
      3 C         -28.1816    0.4277   28.1134 C.ar    1  UNL1        0.0536
      4 C         -28.9841    1.4155   28.5154 C.ar    1  UNL1        0.0045
      5 C         -29.3802    0.1384   30.4612 C.ar    1  UNL1        0.0000
      6 C         -29.5415    1.2736   29.7242 C.ar    1  UNL1        0.0001
      7 C         -27.4586    0.4934   26.7701 C.2     1  UNL1        0.2493
      8 N         -27.8805    0.6637   25.7783 N.am    1  UNL1       -0.2702
      9 O         -26.0966    0.2849   26.8556 O.2     1  UNL1       -0.2699
     10 C         -29.3111    0.9020   25.5345 C.3     1  UNL1        0.1205
     11 C         -27.0967    0.6766   24.5127 C.3     1  UNL1        0.1155
     12 C         -29.9446   -0.1266   24.6838 C.ar    1  UNL1       -0.0023
     13 C         -29.8240   -1.3827   25.0911 C.ar    1  UNL1       -0.0026
     14 C         -30.5913   -2.3740   24.2150 C.ar    1  UNL1       -0.0003
     15 C         -31.4828   -1.6264   23.3245 C.ar    1  UNL1       -0.0000
     16 C         -30.9418    0.2116   23.8059 C.ar    1  UNL1       -0.0026
     17 C         -31.7066   -0.3469   23.0723 C.ar    1  UNL1       -0.0003
@<TRIPOS>BOND
     1     3     7    1
     2     7     8   am
     3     7     9    2
     4     8    10    1
     5     8    11    1
     6    10    12    1
     7    12    13   ar
     8    13    14   ar
     9    14    15   ar
    10    15    17   ar
    11    17    16   ar
    12    16    12   ar
    13     1     2   ar
    14     2     5   ar
    15     5     6   ar
    16     6     4   ar
    17     4     3   ar
    18     3     1   ar
