@<TRIPOS>MOLECULE
No_2549-gen_results/8p0m/2024-11-26-14-13-15/
 10 11 0 0 0
SMALL
GASTEIGER

@<TRIPOS>ATOM
      1 C         -28.0162   -0.8135   28.8779 C.ar    1  UNL1        0.0000
      2 C         -28.4690   -0.7850   29.8287 C.ar    1  UNL1        0.0000
      3 C         -27.0871    0.2903   28.6377 C.ar    1  UNL1        0.0000
      4 C         -26.2516    0.4114   27.4223 C.ar    1  UNL1        0.0000
      5 C         -28.3913    0.1041   30.9805 C.ar    1  UNL1        0.0000
      6 C         -27.5332    1.1666   30.7866 C.ar    1  UNL1        0.0000
      7 C         -26.8281    1.2557   29.6454 C.ar    1  UNL1        0.0000
      8 C         -25.6444    1.6653   27.2216 C.ar    1  UNL1        0.0000
      9 C         -25.3909    2.5603   28.2290 C.ar    1  UNL1        0.0000
     10 C         -26.0983    2.4436   29.4094 C.ar    1  UNL1        0.0000
@<TRIPOS>BOND
     1     1     2   ar
     2     2     5   ar
     3     5     6   ar
     4     6     7   ar
     5     3     1   ar
     6     3     4   ar
     7     4     8   ar
     8     8     9   ar
     9     9    10   ar
    10    10     7   ar
    11     7     3   ar
