@<TRIPOS>MOLECULE
No_255-gen_results/8p0m/2024-11-26-14-13-15/
 12 12 0 0 0
SMALL
GASTEIGER

@<TRIPOS>ATOM
      1 C         -28.0162   -0.8135   28.8779 C.ar    1  UNL1        0.0799
      2 C         -27.0636   -0.1189   28.6079 C.ar    1  UNL1        0.0066
      3 C         -27.0010    0.6913   27.4910 C.ar    1  UNL1        0.0004
      4 C         -28.1373    0.7363   26.6350 C.ar    1  UNL1        0.0056
      5 C         -29.2360    0.0765   27.0690 C.ar    1  UNL1        0.0680
      6 C         -29.2177   -0.6429   28.1747 C.ar    1  UNL1        0.0121
      7 C         -28.2275   -1.6261   30.1018 C.2     1  UNL1        0.3878
      8 O         -27.2436   -2.2421   30.4709 O.co2   1  UNL1       -0.2406
      9 O         -29.3121   -1.7912   30.6855 O.co2   1  UNL1       -0.2406
     10 C         -30.4138    0.1703   26.1657 C.2     1  UNL1        0.3334
     11 O         -30.4547    0.2814   24.9794 O.2     1  UNL1       -0.2541
     12 F         -31.5656   -0.1421   26.7557 F       1  UNL1       -0.1586
@<TRIPOS>BOND
     1     1     7    1
     2     7     8   ar
     3     7     9   ar
     4     5    10    1
     5    10    11    2
     6    10    12    1
     7     1     2   ar
     8     2     3   ar
     9     3     4   ar
    10     4     5   ar
    11     5     6   ar
    12     6     1   ar
