@<TRIPOS>MOLECULE
No_2550-gen_results/8p0m/2024-11-26-14-13-15/
 35 38 0 0 0
SMALL
GASTEIGER

@<TRIPOS>ATOM
      1 C         -28.0162   -0.8135   28.8779 C.ar    1  UNL1        0.0011
      2 C         -27.0636   -0.1190   28.6079 C.ar    1  UNL1        0.0032
      3 C         -27.0010    0.6913   27.4910 C.ar    1  UNL1        0.0384
      4 C         -28.1373    0.7363   26.6350 C.ar    1  UNL1        0.1557
      5 C         -29.2360    0.0765   27.0690 C.ar    1  UNL1        0.0921
      6 C         -29.2177   -0.6429   28.1747 C.ar    1  UNL1        0.0145
      7 CL        -30.6116    0.1653   26.0711 Cl      1  UNL1       -0.0791
      8 C         -25.7122   -0.2157   29.4104 C.ar    1  UNL1        0.0045
      9 C         -25.0698    1.0084   29.7579 C.ar    1  UNL1        0.0001
     10 C         -24.4710    1.1666   30.8038 C.ar    1  UNL1        0.0000
     11 C         -24.0070    0.0014   31.5713 C.ar    1  UNL1        0.0001
     12 C         -24.5465   -1.2446   31.1808 C.ar    1  UNL1        0.0046
     13 C         -25.4541   -1.3736   30.1421 C.ar    1  UNL1        0.0550
     14 C         -25.9257   -2.6595   29.8342 C.2     1  UNL1        0.2648
     15 O         -26.9148   -3.2254   30.2941 O.2     1  UNL1       -0.2684
     16 N         -25.2753   -3.2899   28.7069 N.am    1  UNL1       -0.1998
     17 C         -23.9896   -2.8066   28.3015 C.3     1  UNL1        0.1388
     18 O         -28.2548    1.5274   25.5659 O.3     1  UNL1       -0.4527
     19 C         -28.1371    2.8453   25.4882 C.ar    1  UNL1        0.1450
     20 C         -29.2796    3.5912   25.1323 C.ar    1  UNL1        0.0375
     21 C         -29.3797    4.9296   25.6137 C.ar    1  UNL1        0.0028
     22 C         -28.3207    5.5514   26.2738 C.ar    1  UNL1       -0.0038
     23 C         -27.1974    4.7893   26.6181 C.ar    1  UNL1       -0.0154
     24 C         -27.1550    3.4684   26.3323 C.ar    1  UNL1        0.0335
     25 C         -26.1144    5.3960   27.3986 C.3     1  UNL1        0.0441
     26 C         -26.1834    6.3216   28.2444 C.2     1  UNL1       -0.0263
     27 C         -24.7368    4.8072   27.1532 C.3     1  UNL1        0.0094
     28 C         -25.5097    6.9602   28.9503 C.2     1  UNL1       -0.0257
     29 C         -25.0636    7.6824   29.8527 C.3     1  UNL1        0.0520
     30 C         -25.5118    7.6127   31.1947 C.ar    1  UNL1       -0.0178
     31 C         -26.4025    6.6813   31.5780 C.ar    1  UNL1       -0.0039
     32 C         -26.7732    6.5464   32.9774 C.ar    1  UNL1       -0.0003
     33 C         -26.1372    7.4108   33.8875 C.ar    1  UNL1       -0.0000
     34 C         -25.1996    8.3322   33.5582 C.ar    1  UNL1       -0.0003
     35 C         -24.8311    8.4130   32.2325 C.ar    1  UNL1       -0.0039
@<TRIPOS>BOND
     1     5     7    1
     2     2     8    1
     3    13    14    1
     4    14    15    2
     5    14    16   am
     6    16    17    1
     7     4    18    1
     8    18    19    1
     9    23    25    1
    10    25    26    1
    11    25    27    1
    12    26    28    2
    13    28    29    1
    14    29    30    1
    15     1     2   ar
    16     2     3   ar
    17     3     4   ar
    18     4     5   ar
    19     5     6   ar
    20     6     1   ar
    21    30    31   ar
    22    31    32   ar
    23    32    33   ar
    24    33    34   ar
    25    34    35   ar
    26    35    30   ar
    27     8     9   ar
    28     9    10   ar
    29    10    11   ar
    30    11    12   ar
    31    12    13   ar
    32    13     8   ar
    33    19    20   ar
    34    20    21   ar
    35    21    22   ar
    36    22    23   ar
    37    23    24   ar
    38    24    19   ar
