@<TRIPOS>MOLECULE
No_2552-gen_results/8p0m/2024-11-26-14-13-15/
 35 35 0 0 0
SMALL
GASTEIGER

@<TRIPOS>ATOM
      1 C         -28.0162   -0.8135   28.8779 C.ar    1  UNL1        0.0438
      2 C         -27.0636   -0.1190   28.6079 C.ar    1  UNL1        0.0581
      3 C         -26.9716    0.7139   27.5060 C.ar    1  UNL1        0.0109
      4 C         -28.1053    0.7744   26.6421 C.ar    1  UNL1        0.1020
      5 C         -29.2008    0.1044   27.0527 C.ar    1  UNL1        0.1777
      6 C         -29.2096   -0.6029   28.1853 C.ar    1  UNL1        0.1665
      7 F         -30.2828    0.2138   26.2960 F       1  UNL1       -0.2010
      8 C         -25.7134   -0.2153   29.4104 C.2     1  UNL1        0.2649
      9 N         -25.5027   -0.5527   30.4185 N.am    1  UNL1       -0.2014
     10 O         -24.5742   -0.1493   28.6426 O.2     1  UNL1       -0.2684
     11 C         -24.2834   -0.6777   31.1773 C.3     1  UNL1        0.1243
     12 C         -23.4668    0.4181   31.1381 C.3     1  UNL1        0.1267
     13 C         -24.1338    1.7115   31.2620 C.3     1  UNL1        0.3995
     14 F         -24.3281    1.9981   32.4558 F       1  UNL1       -0.1700
     15 F         -25.3122    1.7940   30.5590 F       1  UNL1       -0.1700
     16 F         -23.2826    2.6963   30.7100 F       1  UNL1       -0.1700
     17 C         -28.0123    1.6350   25.4588 C.3     1  UNL1        0.4208
     18 F         -27.1603    1.2140   24.5753 F       1  UNL1       -0.1658
     19 F         -27.6696    2.9059   25.7146 F       1  UNL1       -0.1658
     20 F         -29.2189    1.6920   24.8083 F       1  UNL1       -0.1658
     21 O         -30.2979   -1.2922   28.5342 O.3     1  UNL1       -0.4662
     22 C         -31.4734   -0.6971   28.7893 C.3     1  UNL1        0.2572
     23 C         -32.0340   -1.3300   29.8963 C.2     1  UNL1        0.1315
     24 BR        -33.2037   -1.1031   30.5083 Br      1  UNL1       -0.0294
     25 N         -31.1886   -2.3434   30.4304 N.2     1  UNL1       -0.2640
     26 C         -31.6020   -3.1300   31.5666 C.3     1  UNL1        0.1305
     27 C         -31.1723   -4.3493   31.3493 C.3     1  UNL1        0.0523
     28 C         -29.9823   -4.6197   30.6686 C.2     1  UNL1       -0.0241
     29 C         -28.7804   -4.4275   31.2882 C.2     1  UNL1       -0.0045
     30 C         -27.5521   -4.4676   30.4582 C.2     1  UNL1       -0.0004
     31 C         -27.1968   -3.4022   29.6715 C.2     1  UNL1       -0.0007
     32 C         -25.9165   -3.5007   29.0438 C.2     1  UNL1       -0.0085
     33 C         -25.1179   -4.3853   29.3022 C.2     1  UNL1       -0.0436
     34 C         -23.8086   -4.3709   28.6016 C.3     1  UNL1        0.0264
     35 C         -25.5449   -5.6328   29.8946 C.3     1  UNL1        0.0264
@<TRIPOS>BOND
     1     5     7    1
     2     2     8    1
     3     8     9   am
     4     8    10    2
     5     9    11    1
     6    11    12    1
     7    12    13    1
     8    13    14    1
     9    13    15    1
    10    13    16    1
    11     4    17    1
    12    17    18    1
    13    17    19    1
    14    17    20    1
    15     6    21    1
    16    21    22    1
    17    22    23    1
    18    23    24    1
    19    23    25    2
    20    25    26    1
    21    26    27    1
    22    27    28    1
    23    28    29    2
    24    29    30    1
    25    30    31    2
    26    31    32    1
    27    32    33    2
    28    33    34    1
    29    33    35    1
    30     1     2   ar
    31     2     3   ar
    32     3     4   ar
    33     4     5   ar
    34     5     6   ar
    35     6     1   ar
