@<TRIPOS>MOLECULE
No_2553-gen_results/8p0m/2024-11-26-14-13-15/
 13 14 0 0 0
SMALL
GASTEIGER

@<TRIPOS>ATOM
      1 C         -28.0162   -0.8135   28.8779 C.ar    1  UNL1        0.0114
      2 C         -27.0636   -0.1189   28.6079 C.ar    1  UNL1        0.0577
      3 C         -26.9716    0.7139   27.5060 C.ar    1  UNL1        0.0114
      4 C         -28.1053    0.7744   26.6421 C.ar    1  UNL1        0.0024
      5 C         -29.2008    0.1044   27.0527 C.ar    1  UNL1        0.0177
      6 C         -29.2096   -0.6029   28.1853 C.ar    1  UNL1        0.0024
      7 C         -30.3702    0.2264   26.1604 C.ar    1  UNL1        0.0813
      8 N         -30.2991    0.2342   24.9383 N.ar    1  UNL1       -0.2438
      9 C         -31.6954    0.1229   26.7715 C.ar    1  UNL1        0.0191
     10 CL        -25.5068   -0.2507   29.5460 Cl      1  UNL1       -0.0822
     11 C         -32.7573   -0.0065   25.9406 C.ar    1  UNL1        0.0031
     12 C         -31.3361    0.1825   24.0532 C.ar    1  UNL1        0.0988
     13 C         -32.5958    0.0841   24.5899 C.ar    1  UNL1        0.0207
@<TRIPOS>BOND
     1     5     7    1
     2     2    10    1
     3     1     2   ar
     4     2     3   ar
     5     3     4   ar
     6     4     5   ar
     7     5     6   ar
     8     6     1   ar
     9     7     8   ar
    10     8    12   ar
    11    12    13   ar
    12    13    11   ar
    13    11     9   ar
    14     9     7   ar
