@<TRIPOS>MOLECULE
No_2554-gen_results/8p0m/2024-11-26-14-13-15/
 19 20 0 0 0
SMALL
GASTEIGER

@<TRIPOS>ATOM
      1 C         -28.0162   -0.8135   28.8779 C.3     1  UNL1        0.4186
      2 C         -27.0636   -0.1189   28.6079 C.ar    1  UNL1        0.0714
      3 C         -25.7923   -0.4302   29.0761 C.ar    1  UNL1        0.0040
      4 C         -24.5456    0.3494   28.8225 C.ar    1  UNL1        0.0091
      5 C         -24.6586    1.4196   27.8878 C.ar    1  UNL1        0.0459
      6 C         -25.9471    1.6811   27.3792 C.ar    1  UNL1        0.0037
      7 C         -27.0439    0.9739   27.6871 C.ar    1  UNL1        0.0040
      8 F         -27.9229   -2.0316   29.0996 F       1  UNL1       -0.1659
      9 F         -29.0495   -0.8160   27.8781 F       1  UNL1       -0.1659
     10 F         -28.6339   -0.2562   30.0064 F       1  UNL1       -0.1659
     11 C         -23.4725    2.1786   27.6322 C.ar    1  UNL1        0.2222
     12 N         -22.2567    1.7526   28.0394 N.ar    1  UNL1       -0.2165
     13 F         -23.5964    3.2238   26.9585 F       1  UNL1       -0.1832
     14 C         -22.0144    0.8025   28.8766 C.ar    1  UNL1        0.1051
     15 C         -23.1784   -0.0844   29.2329 C.ar    1  UNL1        0.0907
     16 C         -22.9466   -1.2471   30.0540 C.3     1  UNL1        0.4200
     17 F         -23.8612   -1.3845   30.7487 F       1  UNL1       -0.1658
     18 F         -21.8885   -0.9486   30.8688 F       1  UNL1       -0.1658
     19 F         -22.5885   -2.2038   29.2034 F       1  UNL1       -0.1658
@<TRIPOS>BOND
     1     1     2    1
     2     1     8    1
     3     1     9    1
     4     1    10    1
     5    11    13    1
     6    15    16    1
     7    16    17    1
     8    16    18    1
     9    16    19    1
    10     5    11   ar
    11    11    12   ar
    12    12    14   ar
    13    14    15   ar
    14    15     4   ar
    15     2     3   ar
    16     3     4   ar
    17     4     5   ar
    18     5     6   ar
    19     6     7   ar
    20     7     2   ar
