@<TRIPOS>MOLECULE
No_2555-gen_results/8p0m/2024-11-26-14-13-15/
 25 28 0 0 0
SMALL
GASTEIGER

@<TRIPOS>ATOM
      1 C         -28.0162   -0.8135   28.8779 C.ar    1  UNL1        0.0489
      2 C         -27.0636   -0.1190   28.6079 C.ar    1  UNL1        0.0615
      3 C         -25.7923   -0.4302   29.0761 C.ar    1  UNL1        0.0230
      4 C         -25.5681   -1.2411   29.7572 C.ar    1  UNL1        0.0615
      5 C         -26.6114   -2.1840   30.2439 C.ar    1  UNL1        0.0489
      6 C         -27.8191   -1.9189   29.8034 C.ar    1  UNL1        0.1470
      7 O         -28.8468   -2.7292   30.2056 O.3     1  UNL1       -0.4538
      8 C         -29.1821   -2.8431   31.5233 C.ar    1  UNL1        0.1416
      9 C         -29.7799   -4.1164   31.7991 C.ar    1  UNL1        0.0182
     10 C         -30.1197   -4.3520   33.1683 C.ar    1  UNL1        0.0172
     11 C         -29.9721   -3.3333   34.1363 C.ar    1  UNL1        0.0092
     12 C         -29.4064   -2.1276   33.7160 C.ar    1  UNL1        0.0034
     13 C         -28.9973   -1.8609   32.4409 C.ar    1  UNL1        0.0372
     14 CL        -27.3160    1.2316   27.4966 Cl      1  UNL1       -0.0821
     15 CL        -23.9154   -1.6787   30.3406 Cl      1  UNL1       -0.0821
     16 C         -30.7306   -5.6560   33.5438 C.ar    1  UNL1        0.0808
     17 N         -30.6522   -6.2495   34.3696 N.ar    1  UNL1       -0.2436
     18 C         -31.5212   -6.2380   32.3659 C.2     1  UNL1        0.0149
     19 C         -31.9030   -5.6340   31.3058 C.2     1  UNL1       -0.0198
     20 C         -30.7868   -4.6097   30.8375 C.3     1  UNL1        0.0555
     21 C         -30.1987   -5.6481   35.5569 C.ar    1  UNL1        0.1054
     22 C         -29.7927   -4.2396   35.5388 C.ar    1  UNL1        0.0989
     23 C         -29.3429   -3.3829   36.6400 C.2     1  UNL1        0.3893
     24 O         -29.9560   -2.4847   37.0231 O.co2   1  UNL1       -0.2405
     25 O         -28.1179   -3.8439   37.1065 O.co2   1  UNL1       -0.2405
@<TRIPOS>BOND
     1     1     2   ar
     2     2     3   ar
     3     3     4   ar
     4     4     5   ar
     5     1     6   ar
     6     5     6   ar
     7     6     7    1
     8     7     8    1
     9     8     9   ar
    10     9    10   ar
    11    10    11   ar
    12    11    12   ar
    13     8    13   ar
    14    12    13   ar
    15     2    14    1
    16     4    15    1
    17    10    16   ar
    18    16    17   ar
    19    16    18    1
    20    18    19    2
    21     9    20    1
    22    19    20    1
    23    17    21   ar
    24    11    22   ar
    25    21    22   ar
    26    22    23    1
    27    23    24   ar
    28    23    25   ar
