@<TRIPOS>MOLECULE
No_2556-gen_results/8p0m/2024-11-26-14-13-15/
 15 16 0 0 0
SMALL
GASTEIGER

@<TRIPOS>ATOM
      1 C         -28.0162   -0.8135   28.8779 C.ar    1  UNL1       -0.0057
      2 C         -28.4690   -0.7850   29.8287 C.ar    1  UNL1        0.0103
      3 C         -27.0871    0.2903   28.6377 C.ar    1  UNL1       -0.0180
      4 C         -26.9102    0.8486   27.4199 C.3     1  UNL1        0.0526
      5 C         -29.6069   -1.6266   30.1338 C.3     1  UNL1        0.2086
      6 C         -27.6424    1.1427   26.6727 C.ar    1  UNL1       -0.0178
      7 C         -29.0200    1.0856   26.9318 C.ar    1  UNL1       -0.0039
      8 C         -27.6042   -0.6046   31.0113 C.ar    1  UNL1       -0.0018
      9 C         -26.5540    0.2863   31.0077 C.ar    1  UNL1       -0.0006
     10 C         -26.2962    0.7625   29.7979 C.ar    1  UNL1       -0.0040
     11 C         -29.9967    1.4236   25.8734 C.ar    1  UNL1       -0.0003
     12 C         -29.4732    1.8199   24.6799 C.ar    1  UNL1       -0.0000
     13 C         -28.1724    1.9005   24.2997 C.ar    1  UNL1       -0.0003
     14 C         -27.2440    1.6270   25.2764 C.ar    1  UNL1       -0.0039
     15 O         -30.6900   -1.3015   29.6980 O.3     1  UNL1       -0.2152
@<TRIPOS>BOND
     1     3     4    1
     2     2     5    1
     3     5    15    1
     4     4     6    1
     5     1     2   ar
     6     2     8   ar
     7     8     9   ar
     8     9    10   ar
     9    10     3   ar
    10     3     1   ar
    11     6     7   ar
    12     7    11   ar
    13    11    12   ar
    14    12    13   ar
    15    13    14   ar
    16    14     6   ar
