@<TRIPOS>MOLECULE
No_2557-gen_results/8p0m/2024-11-26-14-13-15/
 10 9 0 0 0
SMALL
GASTEIGER

@<TRIPOS>ATOM
      1 F         -28.0727   -1.2542   28.5316 F       1  UNL1       -0.1969
      2 C         -27.3591   -0.3792   28.7224 C.3     1  UNL1        0.3376
      3 C         -26.3323   -0.6441   29.4520 C.3     1  UNL1        0.1466
      4 C         -28.0486    0.8353   29.2802 C.3     1  UNL1        0.3795
      5 CL        -26.2754   -1.7121   30.4206 Cl      1  UNL1       -0.1090
      6 F         -27.3600    1.6888   29.7289 F       1  UNL1       -0.1922
      7 F         -29.0806    1.2432   28.5572 F       1  UNL1       -0.1922
      8 F         -26.8962    0.0206   27.4852 F       1  UNL1       -0.1969
      9 C         -25.6080    0.4794   30.1456 C.3     1  UNL1        0.0220
     10 C         -24.1873    0.3245   30.7181 C.3     1  UNL1        0.0015
@<TRIPOS>BOND
     1     1     2    1
     2     2     3    1
     3     2     4    1
     4     3     5    1
     5     4     6    1
     6     4     7    1
     7     2     8    1
     8     3     9    1
     9     9    10    1
