@<TRIPOS>MOLECULE
No_2558-gen_results/8p0m/2024-11-26-14-13-15/
 30 32 0 0 0
SMALL
GASTEIGER

@<TRIPOS>ATOM
      1 C         -28.0162   -0.8135   28.8779 C.ar    1  UNL1        0.0140
      2 C         -28.4690   -0.7850   29.8287 C.ar    1  UNL1        0.0577
      3 C         -27.0871    0.2903   28.6377 C.ar    1  UNL1        0.0343
      4 C         -26.2516    0.4114   27.4223 C.2     1  UNL1        0.1750
      5 C         -28.3913    0.1041   30.9805 C.ar    1  UNL1        0.0112
      6 C         -27.5332    1.1666   30.7866 C.ar    1  UNL1       -0.0006
      7 C         -26.8281    1.2557   29.6454 C.ar    1  UNL1        0.0152
      8 C         -25.6445    1.6653   27.2216 C.3     1  UNL1        0.0954
      9 C         -25.3909    2.5603   28.2290 C.3     1  UNL1        0.1957
     10 C         -26.0984    2.4436   29.4094 C.3     1  UNL1        0.2138
     11 F         -25.9065    3.3577   30.3363 F       1  UNL1       -0.2297
     12 CL        -29.5878   -2.2261   30.2645 Cl      1  UNL1       -0.0822
     13 O         -24.5910    3.6557   27.9517 O.3     1  UNL1       -0.2194
     14 C         -24.8324    1.7084   25.9208 C.3     1  UNL1        0.0104
     15 C         -23.6217    1.3855   25.9224 C.3     1  UNL1        0.0009
     16 C         -22.6487    2.0652   26.7018 C.3     1  UNL1        0.0047
     17 C         -21.5721    1.3546   27.4357 C.3     1  UNL1        0.0280
     18 C         -21.9026    0.2945   28.2550 C.ar    1  UNL1       -0.0000
     19 C         -20.9219   -0.3580   28.9716 C.ar    1  UNL1        0.0948
     20 C         -23.2735   -0.0938   28.3670 C.ar    1  UNL1        0.0358
     21 C         -23.5177   -1.2361   29.2544 C.ar    1  UNL1        0.1573
     22 N         -21.2399   -1.4391   29.7362 N.ar    1  UNL1       -0.2395
     23 C         -22.4826   -1.8045   29.8856 C.ar    1  UNL1        0.1356
     24 O         -26.4089   -0.4518   26.5413 O.2     1  UNL1       -0.2913
     25 O         -24.8077   -1.6423   29.3328 O.3     1  UNL1       -0.4733
     26 C         -25.0129   -2.8908   29.9671 C.3     1  UNL1        0.2173
     27 C         -25.9961   -3.7188   29.1240 C.3     1  UNL1        0.1612
     28 C         -26.0093   -5.0975   29.6197 C.2     1  UNL1        0.3687
     29 O         -25.0928   -5.8471   29.2438 O.co2   1  UNL1       -0.2455
     30 O         -26.9994   -5.3714   30.3383 O.co2   1  UNL1       -0.2455
@<TRIPOS>BOND
     1     3     4    1
     2     4     8    1
     3     7    10    1
     4     9    10    1
     5    10    11    1
     6     2    12    1
     7     9    13    1
     8     8    14    1
     9    14    15    1
    10    15    16    1
    11    16    17    1
    12     4    24    2
    13    21    25    1
    14    25    26    1
    15    26    27    1
    16    27    28    1
    17    28    29   ar
    18    28    30   ar
    19    17    18    1
    20     9     8    1
    21    18    19   ar
    22    19    22   ar
    23    22    23   ar
    24    23    21   ar
    25    21    20   ar
    26    20    18   ar
    27     1     2   ar
    28     2     5   ar
    29     5     6   ar
    30     6     7   ar
    31     7     3   ar
    32     3     1   ar
