@<TRIPOS>MOLECULE
No_2559-gen_results/8p0m/2024-11-26-14-13-15/
 21 22 0 0 0
SMALL
GASTEIGER

@<TRIPOS>ATOM
      1 C         -28.0162   -0.8135   28.8779 C.ar    1  UNL1        0.1016
      2 C         -28.4690   -0.7850   29.8287 C.ar    1  UNL1        0.0581
      3 N         -26.6082   -0.9454   28.8569 N.ar    1  UNL1       -0.2477
      4 C         -25.9102   -0.3004   29.3281 C.ar    1  UNL1        0.0639
      5 C         -26.3299    0.1873   30.7599 C.ar    1  UNL1        0.0152
      6 C         -27.7846    0.0850   31.0018 C.ar    1  UNL1        0.0060
      7 C         -29.9812   -0.8886   30.2138 C.2     1  UNL1        0.1970
      8 C         -30.2802   -2.1104   30.7797 C.ar    1  UNL1        0.0390
      9 C         -29.4288   -2.8540   31.3569 C.ar    1  UNL1        0.0032
     10 C         -29.7227   -4.2706   31.7940 C.ar    1  UNL1        0.0001
     11 C         -30.9863   -4.7042   31.5908 C.ar    1  UNL1        0.0000
     12 C         -31.9333   -3.8912   30.9572 C.ar    1  UNL1        0.0001
     13 C         -31.5873   -2.6737   30.5549 C.ar    1  UNL1        0.0032
     14 O         -30.7550   -0.0296   29.9202 O.2     1  UNL1       -0.2865
     15 C         -24.4158   -0.2573   29.2317 C.3     1  UNL1        0.0784
     16 C         -23.4115   -0.9959   29.6904 C.3     1  UNL1        0.1051
     17 C         -23.9125    1.0865   28.6851 C.2     1  UNL1       -0.0192
     18 C         -23.0073    1.2137   28.2478 C.2     1  UNL1       -0.0042
     19 C         -21.7282    0.4875   28.6203 C.2     1  UNL1       -0.0003
     20 C         -22.0257   -0.6978   29.3173 C.2     1  UNL1       -0.0000
     21 CL        -23.7003   -2.4342   30.4842 Cl      1  UNL1       -0.1129
@<TRIPOS>BOND
     1     2     7    1
     2     7     8    1
     3     7    14    2
     4     4    15    1
     5    15    16    1
     6    15    17    1
     7    17    18    2
     8    18    19    1
     9    19    20    2
    10    16    21    1
    11     1     2   ar
    12     2     6   ar
    13     6     5   ar
    14     5     4   ar
    15     4     3   ar
    16     3     1   ar
    17     8     9   ar
    18     9    10   ar
    19    10    11   ar
    20    11    12   ar
    21    12    13   ar
    22    13     8   ar
