@<TRIPOS>MOLECULE
No_256-gen_results/8p0m/2024-11-26-14-13-15/
 9 9 0 0 0
SMALL
GASTEIGER

@<TRIPOS>ATOM
      1 N         -28.0544   -1.0498   28.7246 N.pl3   1  UNL1       -0.2169
      2 C         -28.6544   -0.5669   29.5076 C.3     1  UNL1        0.2205
      3 C         -26.6945   -1.3221   29.0236 C.ar    1  UNL1        0.0670
      4 C         -25.6511   -1.1026   28.1645 C.ar    1  UNL1        0.0161
      5 C         -24.3024   -1.2889   28.6149 C.ar    1  UNL1        0.0013
      6 N         -28.4816   -0.8521   30.8658 N.3     1  UNL1       -0.1056
      7 C         -24.0971   -1.7511   29.9123 C.ar    1  UNL1        0.0001
      8 C         -25.1230   -1.9639   30.7822 C.ar    1  UNL1        0.0013
      9 C         -26.3865   -1.7594   30.3505 C.ar    1  UNL1        0.0161
@<TRIPOS>BOND
     1     1     2    1
     2     1     3    1
     3     2     6    1
     4     3     4   ar
     5     4     5   ar
     6     5     7   ar
     7     7     8   ar
     8     8     9   ar
     9     9     3   ar
