@<TRIPOS>MOLECULE
No_2560-gen_results/8p0m/2024-11-26-14-13-15/
 14 14 0 0 0
SMALL
GASTEIGER

@<TRIPOS>ATOM
      1 C         -28.0162   -0.8135   28.8779 C.ar    1  UNL1        0.0093
      2 C         -27.0636   -0.1190   28.6079 C.ar    1  UNL1        0.0419
      3 C         -26.9287    1.1713   29.0083 C.ar    1  UNL1        0.0931
      4 C         -27.9560    1.7411   29.7840 C.ar    1  UNL1        0.0376
      5 C         -29.0569   -0.3271   29.7466 C.ar    1  UNL1        0.0302
      6 C         -28.9828    0.9722   30.1516 C.ar    1  UNL1        0.1404
      7 BR        -25.5466   -0.6321   27.4810 Br      1  UNL1       -0.0487
      8 F         -29.9635    1.4137   30.9507 F       1  UNL1       -0.2042
      9 P         -25.5203    2.2503   28.4874 P.3     1  UNL1        0.4260
     10 O         -25.7573    3.5912   29.0304 O.3     1  UNL1       -0.1001
     11 O         -25.6179    2.3414   26.9529 O.2     1  UNL1       -0.2481
     12 O         -24.2475    1.6597   28.9755 O.3     1  UNL1       -0.1001
     13 F         -24.2324    1.0242   29.9604 F       1  UNL1       -0.0386
     14 F         -25.4797    3.8269   30.1521 F       1  UNL1       -0.0386
@<TRIPOS>BOND
     1     2     7    1
     2     6     8    1
     3     3     9    1
     4     9    10    1
     5     9    11    2
     6     9    12    1
     7    12    13    1
     8    10    14    1
     9     1     2   ar
    10     2     3   ar
    11     3     4   ar
    12     4     6   ar
    13     6     5   ar
    14     5     1   ar
