@<TRIPOS>MOLECULE
No_2561-gen_results/8p0m/2024-11-26-14-13-15/
 25 27 0 0 0
SMALL
GASTEIGER

@<TRIPOS>ATOM
      1 C         -28.0162   -0.8135   28.8779 C.ar    1  UNL1        0.0298
      2 C         -27.0636   -0.1189   28.6079 C.ar    1  UNL1        0.0053
      3 C         -25.7923   -0.4302   29.0761 C.ar    1  UNL1        0.0371
      4 C         -25.5756   -1.5654   29.9363 C.ar    1  UNL1        0.1415
      5 C         -26.7354   -2.3004   30.2173 C.ar    1  UNL1        0.0665
      6 C         -27.9184   -1.9537   29.7629 C.ar    1  UNL1        0.1432
      7 C         -26.8968    1.1016   27.7052 C.ar    1  UNL1        0.0004
      8 C         -27.7061    1.4295   26.9663 C.ar    1  UNL1        0.0000
      9 C         -27.5765    2.4938   26.0287 C.ar    1  UNL1        0.0002
     10 C         -26.3864    3.2775   26.0454 C.ar    1  UNL1        0.0077
     11 C         -25.3753    2.9110   26.9270 C.ar    1  UNL1        0.0910
     12 C         -25.5708    1.8546   27.7479 C.ar    1  UNL1        0.0077
     13 F         -28.9660   -2.6775   30.1031 F       1  UNL1       -0.2041
     14 C         -24.1522    3.7138   26.9231 C.2     1  UNL1        0.4206
     15 N         -24.3078    4.8957   26.7250 N.2     1  UNL1        0.1976
     16 N         -22.9993    3.0644   27.0478 N.am    1  UNL1        0.0358
     17 C         -22.6148    1.8037   27.0144 C.2     1  UNL1        0.3544
     18 C         -21.3872    1.5195   27.7058 C.3     1  UNL1        0.1400
     19 O         -23.3748    0.9336   26.6587 O.2     1  UNL1       -0.2428
     20 C         -21.3370    0.6396   28.8942 C.3     1  UNL1        0.1275
     21 N         -22.4132    0.5270   29.5786 N.am    1  UNL1       -0.2017
     22 O         -24.3319   -1.8101   30.2198 O.3     1  UNL1       -0.4655
     23 C         -23.8033   -1.2265   31.3666 C.3     1  UNL1        0.2911
     24 C         -22.8050   -0.6209   30.4055 C.2     1  UNL1        0.2859
     25 O         -21.6385   -1.3488   30.4524 O.2     1  UNL1       -0.2693
@<TRIPOS>BOND
     1     2     7    1
     2     6    13    1
     3    11    14    1
     4    14    15    2
     5    14    16    1
     6    16    17   am
     7    17    18    1
     8    17    19    2
     9    18    20    1
    10    20    21    1
    11     4    22    1
    12    22    23    1
    13    21    24   am
    14    23    24    1
    15    24    25    2
    16     1     2   ar
    17     2     3   ar
    18     3     4   ar
    19     4     5   ar
    20     5     6   ar
    21     6     1   ar
    22     7     8   ar
    23     8     9   ar
    24     9    10   ar
    25    10    11   ar
    26    11    12   ar
    27    12     7   ar
