@<TRIPOS>MOLECULE
No_2562-gen_results/8p0m/2024-11-26-14-13-15/
 16 17 0 0 0
SMALL
GASTEIGER

@<TRIPOS>ATOM
      1 C         -28.0162   -0.8135   28.8779 C.ar    1  UNL1        0.0066
      2 C         -27.0636   -0.1189   28.6079 C.ar    1  UNL1        0.0001
      3 C         -25.7923   -0.4302   29.0761 C.ar    1  UNL1       -0.0004
      4 C         -25.5756   -1.5654   29.9363 C.ar    1  UNL1        0.0000
      5 C         -26.7354   -2.3004   30.2173 C.ar    1  UNL1        0.0066
      6 C         -27.9184   -1.9537   29.7629 C.ar    1  UNL1        0.0798
      7 C         -27.1057    1.1023   27.7593 C.ar    1  UNL1        0.0023
      8 C         -26.1220    1.4820   27.0232 C.ar    1  UNL1        0.0294
      9 C         -24.7142    1.1299   27.4889 C.ar    1  UNL1        0.1375
     10 C         -24.5718    0.0966   28.4066 C.ar    1  UNL1        0.0243
     11 F         -23.6686    1.7020   26.9491 F       1  UNL1       -0.2045
     12 C         -29.0708   -2.7449   30.2569 C.2     1  UNL1        0.3878
     13 O         -30.1097   -2.4330   30.1474 O.co2   1  UNL1       -0.2406
     14 O         -28.7625   -3.9155   30.8187 O.co2   1  UNL1       -0.2406
     15 C         -23.1936   -0.2497   28.8078 C.3     1  UNL1        0.1378
     16 N         -22.2630    0.6466   28.7953 N.3     1  UNL1       -0.1261
@<TRIPOS>BOND
     1     9    11    1
     2     6    12    1
     3    12    13   ar
     4    12    14   ar
     5    10    15    1
     6    15    16    1
     7     1     2   ar
     8     3     4   ar
     9     4     5   ar
    10     5     6   ar
    11     6     1   ar
    12     2     3   ar
    13     3    10   ar
    14    10     9   ar
    15     9     8   ar
    16     8     7   ar
    17     7     2   ar
