@<TRIPOS>MOLECULE
No_2563-gen_results/8p0m/2024-11-26-14-13-15/
 16 17 0 0 0
SMALL
GASTEIGER

@<TRIPOS>ATOM
      1 C         -28.0162   -0.8135   28.8779 C.ar    1  UNL1        0.0813
      2 C         -27.0636   -0.1189   28.6079 C.ar    1  UNL1        0.0176
      3 C         -26.9716    0.7139   27.5060 C.ar    1  UNL1        0.0014
      4 C         -25.8205    1.4910   27.1160 C.ar    1  UNL1        0.0039
      5 C         -24.6562    1.4242   27.9180 C.ar    1  UNL1        0.0714
      6 C         -24.7114    0.5419   29.0507 C.ar    1  UNL1        0.0039
      7 C         -25.8042   -0.2058   29.3881 C.ar    1  UNL1        0.0014
      8 N         -27.9729   -1.6644   30.0216 N.ar    1  UNL1       -0.2438
      9 C         -29.0596   -2.3762   30.4483 C.ar    1  UNL1        0.0988
     10 C         -30.2706   -1.8162   30.3868 C.ar    1  UNL1        0.0207
     11 C         -30.4140   -0.7774   29.3947 C.ar    1  UNL1        0.0031
     12 C         -29.2997   -0.2090   28.8236 C.ar    1  UNL1        0.0191
     13 C         -23.4715    2.1713   27.6010 C.3     1  UNL1        0.4186
     14 F         -22.5694    2.0345   28.4386 F       1  UNL1       -0.1659
     15 F         -23.7194    3.4576   27.4171 F       1  UNL1       -0.1659
     16 F         -22.9530    1.7237   26.3898 F       1  UNL1       -0.1659
@<TRIPOS>BOND
     1     5    13    1
     2    13    14    1
     3    13    15    1
     4    13    16    1
     5     1     2    1
     6     2     3   ar
     7     3     4   ar
     8     4     5   ar
     9     5     6   ar
    10     6     7   ar
    11     7     2   ar
    12     1     8   ar
    13     8     9   ar
    14     9    10   ar
    15    10    11   ar
    16    11    12   ar
    17    12     1   ar
