@<TRIPOS>MOLECULE
No_2564-gen_results/8p0m/2024-11-26-14-13-15/
 11 11 0 0 0
SMALL
GASTEIGER

@<TRIPOS>ATOM
      1 C         -28.0162   -0.8135   28.8779 C.3     1  UNL1        0.0357
      2 C         -28.4690   -0.7850   29.8287 C.3     1  UNL1        0.1821
      3 C         -26.5042   -0.7777   28.8766 C.3     1  UNL1        0.0084
      4 C         -25.8305   -1.6807   29.6849 C.3     1  UNL1        0.0696
      5 C         -28.1490   -1.8854   30.9031 C.3     1  UNL1        0.1823
      6 C         -26.6460   -1.9561   31.0330 C.3     1  UNL1        0.0412
      7 O         -28.6274   -1.7308   32.1858 O.3     1  UNL1       -0.2204
      8 O         -30.0168   -0.9269   29.8771 O.3     1  UNL1       -0.2204
      9 C         -24.6534   -2.3030   29.3807 C.3     1  UNL1        0.3185
     10 F         -23.9537   -2.3039   30.5223 F       1  UNL1       -0.1984
     11 F         -23.9517   -1.5530   28.5752 F       1  UNL1       -0.1984
@<TRIPOS>BOND
     1     1     2    1
     2     1     3    1
     3     3     4    1
     4     2     5    1
     5     4     6    1
     6     5     6    1
     7     5     7    1
     8     2     8    1
     9     4     9    1
    10     9    10    1
    11     9    11    1
