@<TRIPOS>MOLECULE
No_2565-gen_results/8p0m/2024-11-26-14-13-15/
 12 13 0 0 0
SMALL
GASTEIGER

@<TRIPOS>ATOM
      1 C         -28.0162   -0.8135   28.8779 C.ar    1  UNL1       -0.0000
      2 C         -27.0636   -0.1190   28.6079 C.ar    1  UNL1       -0.0000
      3 C         -25.7647   -0.3897   29.0360 C.ar    1  UNL1       -0.0003
      4 C         -24.5516    0.4058   28.7646 C.ar    1  UNL1       -0.0028
      5 C         -24.6957    1.4480   27.7988 C.ar    1  UNL1       -0.0032
      6 C         -25.9755    1.7250   27.3077 C.ar    1  UNL1       -0.0028
      7 C         -27.0718    1.0134   27.6535 C.ar    1  UNL1       -0.0003
      8 C         -27.9653   -1.6216   30.1356 C.ar    1  UNL1       -0.0000
      9 C         -26.6745   -2.1506   30.4965 C.ar    1  UNL1       -0.0000
     10 C         -25.5535   -1.4129   30.0823 C.ar    1  UNL1       -0.0000
     11 C         -23.4812    2.2323   27.4585 C.3     1  UNL1        0.1356
     12 N         -22.4000    1.5318   27.0719 N.3     1  UNL1       -0.1262
@<TRIPOS>BOND
     1     5    11    1
     2    11    12    1
     3     3     4   ar
     4     4     5   ar
     5     5     6   ar
     6     6     7   ar
     7     7     2   ar
     8     1     2   ar
     9     2     3   ar
    10     3    10   ar
    11    10     9   ar
    12     9     8   ar
    13     8     1   ar
