@<TRIPOS>MOLECULE
No_2566-gen_results/8p0m/2024-11-26-14-13-15/
 27 29 0 0 0
SMALL
GASTEIGER

@<TRIPOS>ATOM
      1 C         -28.0162   -0.8135   28.8779 C.ar    1  UNL1        0.0114
      2 C         -28.4690   -0.7850   29.8287 C.ar    1  UNL1        0.0009
      3 C         -28.1960    0.3478   28.0550 C.ar    1  UNL1        0.0577
      4 C         -29.0191    1.3501   28.3782 C.ar    1  UNL1        0.0114
      5 C         -29.4107    0.1803   30.3782 C.ar    1  UNL1        0.0001
      6 C         -29.6059    1.2495   29.6193 C.ar    1  UNL1        0.0009
      7 CL        -27.3467    0.3759   26.5145 Cl      1  UNL1       -0.0822
      8 C         -30.0268   -0.0284   31.7609 C.2     1  UNL1        0.0000
      9 C         -29.9889    0.9520   32.5726 C.2     1  UNL1       -0.0000
     10 C         -29.1416    2.0784   32.3580 C.ar    1  UNL1       -0.0003
     11 C         -29.7077    3.0838   31.8711 C.ar    1  UNL1       -0.0026
     12 C         -28.8643    4.3166   32.0069 C.ar    1  UNL1       -0.0006
     13 C         -28.1291    2.3979   33.3404 C.ar    1  UNL1       -0.0000
     14 C         -27.3118    3.4648   33.4247 C.ar    1  UNL1       -0.0003
     15 C         -27.7740    4.5508   32.6936 C.ar    1  UNL1       -0.0026
     16 C         -29.4013    5.5498   31.1142 C.3     1  UNL1        0.1402
     17 N         -28.8743    5.7891   30.0864 N.pl3   1  UNL1       -0.2154
     18 C         -27.5939    5.7433   29.8884 C.ar    1  UNL1        0.1478
     19 C         -27.0632    5.8565   28.4816 C.ar    1  UNL1        0.0358
     20 C         -26.6376    4.7951   27.9781 C.ar    1  UNL1        0.0045
     21 C         -25.9105    4.1342   28.2257 C.ar    1  UNL1        0.0193
     22 C         -25.2782    2.9632   27.6341 C.2     1  UNL1        0.0015
     23 C         -24.3834    2.1013   28.2682 C.2     1  UNL1        0.0000
     24 C         -24.4342    2.1058   29.6775 C.2     1  UNL1        0.0000
     25 C         -25.2183    2.9708   30.4302 C.2     1  UNL1        0.0000
     26 C         -25.9369    3.8921   29.8230 C.ar    1  UNL1        0.1003
     27 N         -26.7601    4.8389   30.4582 N.ar    1  UNL1       -0.2277
@<TRIPOS>BOND
     1     3     7    1
     2     5     8    1
     3     8     9    2
     4     9    10    1
     5    12    16    1
     6    16    17    1
     7    17    18    1
     8    21    22    1
     9    22    23    2
    10    23    24    1
    11    24    25    2
    12    18    19   ar
    13    19    20   ar
    14    20    21   ar
    15    21    26   ar
    16    26    27   ar
    17    27    18   ar
    18     1     2   ar
    19     2     5   ar
    20     5     6   ar
    21     6     4   ar
    22     4     3   ar
    23     3     1   ar
    24    10    11   ar
    25    11    12   ar
    26    12    15   ar
    27    15    14   ar
    28    14    13   ar
    29    13    10   ar
