@<TRIPOS>MOLECULE
No_2567-gen_results/8p0m/2024-11-26-14-13-15/
 35 37 0 0 0
SMALL
GASTEIGER

@<TRIPOS>ATOM
      1 O         -28.1229   -1.3353   28.4874 O.2     1  UNL1       -0.2730
      2 C         -27.4806   -0.4044   28.7094 C.2     1  UNL1        0.2462
      3 C         -27.1904    0.2460   29.5268 C.3     1  UNL1        0.1046
      4 N         -26.8157    0.1371   27.4262 N.am    1  UNL1       -0.1902
      5 C         -26.3550    1.4196   29.7643 C.3     1  UNL1        0.0168
      6 C         -26.0125    1.2307   27.4050 C.3     1  UNL1        0.1738
      7 C         -25.7456    1.9087   28.5801 C.3     1  UNL1        0.0393
      8 C         -27.7372   -0.2154   30.9909 C.2     1  UNL1        0.0359
      9 C         -27.0235   -0.4735   31.9213 C.2     1  UNL1       -0.0200
     10 C         -26.4679   -0.1738   32.8224 C.3     1  UNL1        0.0600
     11 C         -26.8347    0.4590   34.1281 C.ar    1  UNL1       -0.0169
     12 C         -27.8425    0.8173   34.1938 C.ar    1  UNL1        0.0027
     13 C         -28.3298    1.5809   35.4474 C.ar    1  UNL1        0.0795
     14 C         -27.4042    1.7007   36.3938 C.ar    1  UNL1        0.0066
     15 C         -26.1700    1.1172   36.3141 C.ar    1  UNL1       -0.0001
     16 C         -25.7689    0.4831   35.2067 C.ar    1  UNL1       -0.0039
     17 C         -29.1300   -0.6560   30.8569 C.2     1  UNL1        0.2459
     18 CL        -25.2895    1.7162   25.9607 Cl      1  UNL1       -0.0910
     19 N         -30.0268    0.2208   30.5322 N.am    1  UNL1       -0.2632
     20 C         -30.1590    1.3917   31.0328 C.3     1  UNL1        0.1190
     21 C         -30.4743    2.5141   30.3839 C.3     1  UNL1        0.1866
     22 C         -31.0234    2.5379   29.1854 C.1     1  UNL1       -0.0771
     23 C         -31.1769    1.1820   28.6244 C.1     1  UNL1       -0.0682
     24 C         -31.2476   -0.0796   29.6350 C.3     1  UNL1        0.1708
     25 O         -29.5049   -1.7955   31.2043 O.2     1  UNL1       -0.2702
     26 C         -30.1867    3.9180   30.9822 C.2     1  UNL1        0.3780
     27 O         -29.3637    4.5043   30.8269 O.co2   1  UNL1       -0.2445
     28 O         -31.1742    4.2505   31.8943 O.co2   1  UNL1       -0.2445
     29 C         -29.6960    2.1751   35.4473 C.2     1  UNL1        0.3877
     30 O         -30.5831    1.6775   34.8373 O.co2   1  UNL1       -0.2406
     31 O         -29.8807    3.2809   36.1439 O.co2   1  UNL1       -0.2406
     32 C         -24.8549   -0.3848   32.7510 C.3     1  UNL1        0.0809
     33 N         -24.1197    0.3791   31.9934 N.3     1  UNL1       -0.2697
     34 C         -24.0920    1.6943   31.9774 C.3     1  UNL1        0.0897
     35 C         -23.5159   -0.1842   30.8352 C.3     1  UNL1        0.0897
@<TRIPOS>BOND
     1     1     2    2
     2     2     3    1
     3     2     4   am
     4     4     6    1
     5     5     7    1
     6     3     8    1
     7     8     9    2
     8     9    10    1
     9     8    17    1
    10     6    18    1
    11    17    19   am
    12    19    20    1
    13    21    22    1
    14    22    23    3
    15    19    24    1
    16    23    24    1
    17    17    25    2
    18    21    26    1
    19    26    27   ar
    20    26    28   ar
    21    13    29    1
    22    29    30   ar
    23    29    31   ar
    24    10    32    1
    25    32    33    1
    26    33    34    1
    27    33    35    1
    28    10    11    1
    29    20    21    1
    30     3     5    1
    31     7     6    1
    32    11    12   ar
    33    12    13   ar
    34    13    14   ar
    35    14    15   ar
    36    15    16   ar
    37    16    11   ar
