@<TRIPOS>MOLECULE
No_2568-gen_results/8p0m/2024-11-26-14-13-15/
 13 12 0 0 0
SMALL
GASTEIGER

@<TRIPOS>ATOM
      1 P         -27.9505   -0.5786   29.0402 P.3     1  UNL1        0.5249
      2 O         -27.2401    0.0613   28.4283 O.3     1  UNL1       -0.1728
      3 O         -29.3621   -0.5774   28.6194 O.2     1  UNL1       -0.2232
      4 O         -27.4933   -2.0888   29.1563 O.3     1  UNL1       -0.2681
      5 O         -27.9537   -0.1280   30.6351 O.3     1  UNL1       -0.0817
      6 CL        -27.2207    0.5047   27.1326 Cl      1  UNL1        0.0718
      7 C         -27.6640   -2.9202   30.2888 C.3     1  UNL1        0.1857
      8 F         -27.2112    0.0331   31.3438 F       1  UNL1       -0.0372
      9 C         -27.2746   -4.3605   29.8865 C.3     1  UNL1        0.1753
     10 O         -26.3868   -4.5939   29.1396 O.3     1  UNL1       -0.3428
     11 C         -25.0083   -4.4195   29.7953 C.3     1  UNL1        0.2140
     12 C         -24.5899   -3.0764   29.3955 C.2     1  UNL1        0.2396
     13 O         -23.5611   -2.7135   29.2820 O.2     1  UNL1       -0.2855
@<TRIPOS>BOND
     1     1     2    1
     2     1     3    2
     3     1     4    1
     4     1     5    1
     5     2     6    1
     6     4     7    1
     7     5     8    1
     8     7     9    1
     9     9    10    1
    10    10    11    1
    11    11    12    1
    12    12    13    2
