@<TRIPOS>MOLECULE
No_2569-gen_results/8p0m/2024-11-26-14-13-15/
 19 20 0 0 0
SMALL
GASTEIGER

@<TRIPOS>ATOM
      1 C         -28.0162   -0.8135   28.8779 C.ar    1  UNL1       -0.0023
      2 C         -27.0636   -0.1189   28.6079 C.ar    1  UNL1       -0.0003
      3 C         -25.7647   -0.3897   29.0360 C.ar    1  UNL1       -0.0000
      4 C         -25.5296   -1.5302   29.9014 C.ar    1  UNL1       -0.0003
      5 C         -26.6577   -2.2915   30.2035 C.ar    1  UNL1       -0.0023
      6 C         -27.8548   -1.9555   29.7630 C.ar    1  UNL1        0.0020
      7 C         -24.4274    0.2189   28.7748 C.ar    1  UNL1       -0.0000
      8 C         -24.3113    1.1727   27.7997 C.ar    1  UNL1       -0.0000
      9 C         -23.0643    1.6843   27.4644 C.ar    1  UNL1        0.0000
     10 C         -21.8818    1.3041   28.1364 C.ar    1  UNL1        0.0000
     11 C         -23.0977   -0.2547   29.1536 C.ar    1  UNL1       -0.0000
     12 C         -21.9096    0.2926   28.9283 C.ar    1  UNL1        0.0000
     13 C         -29.0366   -2.7735   30.1870 C.3     1  UNL1        0.1519
     14 N         -29.3181   -2.7243   31.4233 N.2     1  UNL1       -0.2641
     15 C         -29.5164   -1.7130   32.0505 C.2     1  UNL1        0.0935
     16 C         -29.8347   -1.7995   33.5277 C.2     1  UNL1        0.0202
     17 C         -29.4758   -0.7772   34.3640 C.2     1  UNL1        0.0016
     18 C         -29.1445    0.5203   33.8342 C.2     1  UNL1        0.0000
     19 C         -28.7993    0.5872   32.4670 C.2     1  UNL1        0.0000
@<TRIPOS>BOND
     1     3     7    1
     2     6    13    1
     3    13    14    1
     4    14    15    2
     5    15    16    1
     6    16    17    2
     7    17    18    1
     8    18    19    2
     9     7     8   ar
    10     8     9   ar
    11     9    10   ar
    12    10    12   ar
    13    12    11   ar
    14    11     7   ar
    15     1     2   ar
    16     2     3   ar
    17     3     4   ar
    18     4     5   ar
    19     5     6   ar
    20     6     1   ar
