@<TRIPOS>MOLECULE
No_257-gen_results/8p0m/2024-11-26-14-13-15/
 25 29 0 0 0
SMALL
GASTEIGER

@<TRIPOS>ATOM
      1 C         -28.0162   -0.8135   28.8779 C.ar    1  UNL1        0.0041
      2 C         -27.0636   -0.1189   28.6079 C.ar    1  UNL1        0.0351
      3 C         -26.9716    0.7139   27.5060 C.ar    1  UNL1        0.0037
      4 C         -28.1053    0.7744   26.6421 C.ar    1  UNL1        0.0146
      5 C         -29.2041    0.1179   27.0477 C.ar    1  UNL1        0.0478
      6 C         -29.2127   -0.6088   28.1281 C.ar    1  UNL1        0.0146
      7 C         -25.7106    1.4518   27.1380 C.ar    1  UNL1       -0.0032
      8 C         -24.6052    0.9253   27.6902 C.ar    1  UNL1       -0.0090
      9 C         -24.5938    0.0936   28.8217 C.3     1  UNL1        0.1059
     10 C         -25.7077   -0.4530   29.2468 C.2     1  UNL1        0.1784
     11 C         -23.2701    1.6921   27.4122 C.ar    1  UNL1        0.0515
     12 C         -23.2737    2.8188   26.6553 C.ar    1  UNL1        0.0043
     13 C         -24.5501    3.2071   25.9779 C.ar    1  UNL1        0.0001
     14 C         -25.7268    2.5015   26.2821 C.ar    1  UNL1       -0.0003
     15 C         -22.0039    1.3200   28.0664 C.2     1  UNL1        0.2645
     16 O         -20.9486    1.9073   27.8876 O.2     1  UNL1       -0.2684
     17 N         -21.9985    0.2651   28.9782 N.am    1  UNL1       -0.2009
     18 C         -23.3123   -0.3702   29.4614 C.3     1  UNL1        0.1275
     19 O         -25.7549   -1.2924   30.2385 O.2     1  UNL1       -0.2909
     20 N         -30.2450    0.4053   26.1415 N.pl3   1  UNL1       -0.3075
     21 C         -31.4435    0.2250   26.4914 C.3     1  UNL1        0.0908
     22 C         -30.0118    0.6441   24.7708 C.3     1  UNL1        0.0908
     23 C         -32.3379    0.5846   26.2104 C.3     1  UNL1        0.0215
     24 C         -31.1100    1.2006   24.0640 C.3     1  UNL1        0.0215
     25 C         -32.3885    1.0723   24.7073 C.3     1  UNL1        0.0035
@<TRIPOS>BOND
     1     3     7    1
     2     2    10    1
     3     9    10    1
     4    11    15    1
     5    15    16    2
     6    15    17   am
     7     9    18    1
     8    17    18    1
     9    10    19    2
    10     5    20    1
    11    20    21    1
    12    20    22    1
    13    23    25    1
    14    24    25    1
    15    21    23    1
    16    24    22    1
    17     8     9    1
    18     1     2   ar
    19     2     3   ar
    20     3     4   ar
    21     4     5   ar
    22     5     6   ar
    23     6     1   ar
    24     7     8   ar
    25     8    11   ar
    26    11    12   ar
    27    12    13   ar
    28    13    14   ar
    29    14     7   ar
