@<TRIPOS>MOLECULE
No_2571-gen_results/8p0m/2024-11-26-14-13-15/
 27 30 0 0 0
SMALL
GASTEIGER

@<TRIPOS>ATOM
      1 C         -28.0162   -0.8135   28.8779 C.ar    1  UNL1        0.0157
      2 C         -28.4690   -0.7850   29.8287 C.ar    1  UNL1        0.0562
      3 C         -26.5455   -0.8762   28.8500 C.ar    1  UNL1        0.0542
      4 C         -25.8041   -1.0324   30.0571 C.ar    1  UNL1       -0.0072
      5 C         -26.5373   -1.0386   31.2171 C.ar    1  UNL1       -0.0030
      6 C         -27.8843   -0.9532   31.1862 C.ar    1  UNL1        0.0043
      7 C         -24.3655   -1.1134   30.0483 C.3     1  UNL1        0.0535
      8 C         -23.6925    0.1188   29.9185 C.ar    1  UNL1       -0.0178
      9 C         -23.9863    1.2743   30.4522 C.ar    1  UNL1       -0.0039
     10 C         -23.3983    2.4978   30.0514 C.ar    1  UNL1       -0.0003
     11 C         -22.5872    2.4117   28.9079 C.ar    1  UNL1       -0.0000
     12 C         -22.7366    0.3142   28.7819 C.ar    1  UNL1       -0.0039
     13 C         -22.1782    1.3578   28.3860 C.ar    1  UNL1       -0.0003
     14 CL        -25.6311   -0.7516   27.3817 Cl      1  UNL1       -0.0826
     15 C         -30.0579   -0.7191   29.8891 C.2     1  UNL1        0.2690
     16 O         -30.4778   -0.2060   28.9574 O.2     1  UNL1       -0.2680
     17 N         -30.7504   -1.1977   30.9255 N.am    1  UNL1       -0.1754
     18 C         -32.1925   -1.1419   30.9159 C.ar    1  UNL1        0.0737
     19 C         -32.8517   -1.6266   31.5354 C.ar    1  UNL1        0.0166
     20 C         -34.2833   -1.5443   31.5038 C.ar    1  UNL1        0.0013
     21 C         -34.8261   -0.7254   30.4824 C.ar    1  UNL1        0.0001
     22 C         -33.9534   -0.1112   29.6305 C.ar    1  UNL1        0.0013
     23 C         -32.6367   -0.2225   29.7804 C.ar    1  UNL1        0.0166
     24 C         -34.5196    0.7712   28.5647 C.ar    1  UNL1        0.0000
     25 C         -35.5752    1.2348   28.5058 C.ar    1  UNL1        0.0000
     26 C         -36.5174    1.1186   29.6030 C.ar    1  UNL1        0.0000
     27 C         -36.1960   -0.0318   30.5007 C.ar    1  UNL1        0.0000
@<TRIPOS>BOND
     1     4     7    1
     2     7     8    1
     3     3    14    1
     4     2    15    1
     5    15    16    2
     6    15    17   am
     7    17    18    1
     8    18    19   ar
     9    19    20   ar
    10    20    21   ar
    11    22    23   ar
    12    23    18   ar
    13     1     2   ar
    14     2     6   ar
    15     6     5   ar
    16     5     4   ar
    17     4     3   ar
    18     3     1   ar
    19    21    22   ar
    20    22    24   ar
    21    24    25   ar
    22    25    26   ar
    23    26    27   ar
    24    27    21   ar
    25     8     9   ar
    26     9    10   ar
    27    10    11   ar
    28    11    13   ar
    29    13    12   ar
    30    12     8   ar
