@<TRIPOS>MOLECULE
No_2572-gen_results/8p0m/2024-11-26-14-13-15/
 10 10 0 0 0
SMALL
GASTEIGER

@<TRIPOS>ATOM
      1 N         -28.0544   -1.0498   28.7246 N.ar    1  UNL1       -0.2301
      2 C         -26.9659   -0.4722   28.7709 C.ar    1  UNL1        0.1384
      3 C         -25.8527   -0.9249   29.3786 C.ar    1  UNL1        0.0308
      4 C         -25.9072   -2.2339   30.0315 C.ar    1  UNL1        0.0336
      5 C         -27.1345   -2.8280   29.9947 C.ar    1  UNL1        0.1593
      6 C         -28.1751   -2.2461   29.4397 C.ar    1  UNL1        0.1294
      7 CL        -26.7934    1.0926   28.0144 Cl      1  UNL1       -0.0613
      8 F         -27.2405   -4.0499   30.5772 F       1  UNL1       -0.2025
      9 C         -24.4635   -0.2681   29.3398 C.2     1  UNL1        0.0024
     10 C         -24.1104    0.5670   28.4413 C.2     1  UNL1        0.0001
@<TRIPOS>BOND
     1     2     7    1
     2     5     8    1
     3     3     9    1
     4     9    10    2
     5     1     2   ar
     6     2     3   ar
     7     3     4   ar
     8     4     5   ar
     9     5     6   ar
    10     6     1   ar
