@<TRIPOS>MOLECULE
No_2573-gen_results/8p0m/2024-11-26-14-13-15/
 21 22 0 0 0
SMALL
GASTEIGER

@<TRIPOS>ATOM
      1 C         -28.0162   -0.8135   28.8779 C.ar    1  UNL1       -0.0003
      2 C         -28.4690   -0.7850   29.8287 C.ar    1  UNL1       -0.0002
      3 C         -27.1356    0.2359   28.5352 C.ar    1  UNL1        0.0280
      4 C         -26.3351    0.2900   27.2835 C.3     1  UNL1        0.2221
      5 C         -28.3692    0.1957   30.9236 C.ar    1  UNL1        0.0002
      6 C         -27.5158    1.2655   30.6540 C.ar    1  UNL1        0.0064
      7 C         -26.8411    1.2942   29.4761 C.ar    1  UNL1        0.0794
      8 CL        -25.7256    1.3977   26.6273 Cl      1  UNL1       -0.0757
      9 C         -25.1270   -0.7677   27.3838 C.3     1  UNL1        0.0821
     10 F         -27.1755   -0.2854   26.2441 F       1  UNL1       -0.2185
     11 C         -24.0017   -0.3052   28.0750 C.ar    1  UNL1        0.0161
     12 C         -23.3629   -1.1421   29.0546 C.ar    1  UNL1        0.1348
     13 C         -22.2085   -0.5910   29.6580 C.ar    1  UNL1        0.0366
     14 C         -21.6790    0.5979   29.2128 C.ar    1  UNL1        0.0031
     15 C         -22.3181    1.3778   28.2563 C.ar    1  UNL1       -0.0001
     16 C         -23.4936    0.9147   27.7239 C.ar    1  UNL1       -0.0011
     17 C         -25.9320    2.4299   29.2745 C.2     1  UNL1        0.3876
     18 O         -26.2220    3.3591   28.6174 O.co2   1  UNL1       -0.2406
     19 O         -24.9131    2.5294   30.1947 O.co2   1  UNL1       -0.2406
     20 O         -23.8432   -2.2242   29.4607 O.3     1  UNL1       -0.4717
     21 C         -24.0122   -3.2669   28.7312 C.3     1  UNL1        0.2525
@<TRIPOS>BOND
     1     3     4    1
     2     4     8    1
     3     4     9    1
     4     4    10    1
     5     9    11    1
     6     7    17    1
     7    17    18   ar
     8    17    19   ar
     9    12    20    1
    10    20    21    1
    11    11    12   ar
    12    12    13   ar
    13    13    14   ar
    14    14    15   ar
    15    15    16   ar
    16    16    11   ar
    17     1     2   ar
    18     2     5   ar
    19     5     6   ar
    20     6     7   ar
    21     7     3   ar
    22     3     1   ar
