@<TRIPOS>MOLECULE
No_2574-gen_results/8p0m/2024-11-26-14-13-15/
 20 21 0 0 0
SMALL
GASTEIGER

@<TRIPOS>ATOM
      1 C         -28.0162   -0.8135   28.8779 C.3     1  UNL1        0.0524
      2 C         -27.0636   -0.1190   28.6079 C.ar    1  UNL1       -0.0178
      3 C         -26.8756    1.1325   28.9134 C.ar    1  UNL1       -0.0039
      4 C         -25.6883    1.9515   28.5672 C.ar    1  UNL1       -0.0003
      5 C         -24.6394    1.2834   27.8753 C.ar    1  UNL1       -0.0000
      6 C         -24.8181   -0.0802   27.6166 C.ar    1  UNL1       -0.0003
      7 C         -25.9311   -0.7717   27.9696 C.ar    1  UNL1       -0.0039
      8 C         -28.6501   -0.5385   30.2330 C.2     1  UNL1       -0.0181
      9 C         -29.7142   -1.2183   30.6194 C.2     1  UNL1        0.0378
     10 C         -30.1795   -2.2690   29.8348 C.2     1  UNL1        0.1954
     11 C         -31.3614   -2.9201   30.3466 C.2     1  UNL1        0.0420
     12 C         -31.8435   -4.0423   29.5993 C.2     1  UNL1        0.0033
     13 C         -32.4529   -3.8672   28.4263 C.2     1  UNL1        0.0001
     14 C         -32.6527   -2.6033   28.0026 C.ar    1  UNL1        0.0000
     15 C         -33.1813   -2.2038   27.0413 C.ar    1  UNL1        0.0000
     16 C         -33.2496   -0.8464   26.4924 C.ar    1  UNL1        0.0000
     17 C         -32.5941    0.1195   27.2583 C.ar    1  UNL1        0.0000
     18 C         -31.9035   -0.2484   28.4206 C.ar    1  UNL1        0.0000
     19 C         -31.8193   -1.5362   28.7349 C.ar    1  UNL1        0.0000
     20 O         -31.1115   -1.8839   29.6661 O.2     1  UNL1       -0.2866
@<TRIPOS>BOND
     1     1     8    1
     2     8     9    2
     3     9    10    1
     4    10    11    2
     5    11    12    1
     6    12    13    2
     7    13    14    1
     8    10    20    1
     9     1     2    1
    10     2     3   ar
    11     3     4   ar
    12     4     5   ar
    13     5     6   ar
    14     6     7   ar
    15     7     2   ar
    16    14    15   ar
    17    15    16   ar
    18    16    17   ar
    19    17    18   ar
    20    18    19   ar
    21    19    14   ar
