@<TRIPOS>MOLECULE
No_2575-gen_results/8p0m/2024-11-26-14-13-15/
 19 21 0 0 0
SMALL
GASTEIGER

@<TRIPOS>ATOM
      1 C         -28.0162   -0.8135   28.8779 C.3     1  UNL1        0.1116
      2 C         -27.0636   -0.1189   28.6079 C.ar    1  UNL1       -0.0131
      3 C         -25.7923   -0.4302   29.0761 C.ar    1  UNL1       -0.0037
      4 C         -24.5456    0.3494   28.8225 C.ar    1  UNL1        0.0027
      5 C         -24.6586    1.4196   27.8878 C.ar    1  UNL1        0.0192
      6 C         -25.9471    1.6811   27.3792 C.ar    1  UNL1        0.0012
      7 C         -27.0439    0.9739   27.6871 C.ar    1  UNL1       -0.0037
      8 C         -28.6597   -0.4600   30.2006 C.2     1  UNL1        0.2301
      9 N         -28.5440    0.4585   30.7537 N.am    1  UNL1       -0.2793
     10 C         -28.7793    1.5636   30.5258 C.3     1  UNL1        0.0934
     11 C         -28.6601    2.5411   30.8115 C.3     1  UNL1        0.0216
     12 C         -28.0167    2.6667   32.1973 C.3     1  UNL1        0.0035
     13 C         -27.7133    1.4671   32.8461 C.3     1  UNL1        0.0216
     14 C         -27.8782    0.2808   32.1310 C.3     1  UNL1        0.0934
     15 O         -29.2676   -1.4831   30.6615 O.2     1  UNL1       -0.2745
     16 C         -23.4321    2.1281   27.5396 C.ar    1  UNL1        0.0988
     17 N         -22.2450    1.7307   28.0630 N.ar    1  UNL1       -0.2423
     18 C         -22.1742    0.6550   28.9485 C.ar    1  UNL1        0.0989
     19 C         -23.2860   -0.0415   29.3293 C.ar    1  UNL1        0.0207
@<TRIPOS>BOND
     1     1     2    1
     2     1     8    1
     3     8     9   am
     4     9    10    1
     5    11    12    1
     6     9    14    1
     7    13    14    1
     8     8    15    2
     9    10    11    1
    10    12    13    1
    11     2     3   ar
    12     3     4   ar
    13     5     6   ar
    14     6     7   ar
    15     7     2   ar
    16     4     5   ar
    17     5    16   ar
    18    16    17   ar
    19    17    18   ar
    20    18    19   ar
    21    19     4   ar
