@<TRIPOS>MOLECULE
No_2576-gen_results/8p0m/2024-11-26-14-13-15/
 9 8 0 0 0
SMALL
GASTEIGER

@<TRIPOS>ATOM
      1 C         -28.0162   -0.8135   28.8779 C.2     1  UNL1       -0.0261
      2 C         -28.4690   -0.7850   29.8287 C.2     1  UNL1       -0.0046
      3 C         -27.1356    0.2359   28.5352 C.3     1  UNL1        0.0264
      4 C         -26.3351    0.2900   27.2835 C.3     1  UNL1        0.0304
      5 C         -28.3692    0.1957   30.9236 C.2     1  UNL1       -0.0003
      6 C         -29.0527    0.1733   32.1679 C.2     1  UNL1       -0.0000
      7 C         -25.6023    0.8383   26.6466 C.2     1  UNL1       -0.0258
      8 C         -24.7522    0.3390   25.6462 C.2     1  UNL1       -0.0049
      9 C         -26.9744    1.1853   29.4861 C.3     1  UNL1        0.0050
@<TRIPOS>BOND
     1     1     2    2
     2     1     3    1
     3     3     4    1
     4     2     5    1
     5     5     6    2
     6     4     7    1
     7     7     8    2
     8     3     9    1
