@<TRIPOS>MOLECULE
No_2577-gen_results/8p0m/2024-11-26-14-13-15/
 19 21 0 0 0
SMALL
GASTEIGER

@<TRIPOS>ATOM
      1 C         -28.0162   -0.8135   28.8779 C.ar    1  UNL1        0.0375
      2 C         -27.0636   -0.1189   28.6079 C.ar    1  UNL1        0.0031
      3 C         -25.7647   -0.3897   29.0360 C.ar    1  UNL1        0.0002
      4 C         -25.5296   -1.5302   29.9014 C.ar    1  UNL1        0.0031
      5 C         -26.6888   -2.2893   30.1810 C.ar    1  UNL1        0.0375
      6 C         -27.8727   -1.9508   29.7373 C.ar    1  UNL1        0.1453
      7 O         -28.9304   -2.7298   30.1154 O.3     1  UNL1       -0.4535
      8 C         -24.5394    0.4211   28.7421 C.ar    1  UNL1        0.0000
      9 C         -24.5259    1.2743   27.7265 C.ar    1  UNL1        0.0000
     10 C         -23.3174    1.9856   27.4033 C.ar    1  UNL1        0.0000
     11 C         -22.1311    1.7374   28.0503 C.ar    1  UNL1        0.0000
     12 C         -23.2983    0.1369   29.3770 C.ar    1  UNL1        0.0000
     13 C         -22.1005    0.8185   29.0410 C.ar    1  UNL1        0.0000
     14 C         -29.3101   -2.7539   31.4531 C.ar    1  UNL1        0.1453
     15 C         -29.8418   -1.7002   31.9480 C.ar    1  UNL1        0.0375
     16 C         -29.8584   -1.6018   33.2370 C.ar    1  UNL1        0.0031
     17 C         -29.8832   -2.7503   34.0883 C.ar    1  UNL1        0.0002
     18 C         -29.4036   -3.9441   33.5526 C.ar    1  UNL1        0.0031
     19 C         -29.0708   -3.9753   32.1549 C.ar    1  UNL1        0.0375
@<TRIPOS>BOND
     1     6     7    1
     2     3     8    1
     3     7    14    1
     4     1     2   ar
     5     2     3   ar
     6     3     4   ar
     7     4     5   ar
     8     5     6   ar
     9     6     1   ar
    10    14    15   ar
    11    15    16   ar
    12    16    17   ar
    13    17    18   ar
    14    18    19   ar
    15    19    14   ar
    16     8     9   ar
    17     9    10   ar
    18    10    11   ar
    19    11    13   ar
    20    13    12   ar
    21    12     8   ar
