@<TRIPOS>MOLECULE
No_2578-gen_results/8p0m/2024-11-26-14-13-15/
 7 6 0 0 0
SMALL
GASTEIGER

@<TRIPOS>ATOM
      1 C         -28.0162   -0.8135   28.8779 C.2     1  UNL1       -0.0039
      2 C         -27.0636   -0.1189   28.6079 C.2     1  UNL1       -0.0122
      3 C         -26.9716    0.7139   27.5060 C.3     1  UNL1        0.1023
      4 C         -25.8205    1.4910   27.1160 C.1     1  UNL1       -0.0816
      5 C         -25.7505    2.3193   26.0233 C.1     1  UNL1       -0.0634
      6 C         -24.6197    3.1136   25.7702 C.2     1  UNL1        0.0493
      7 C         -23.4337    2.8810   26.5604 C.2     1  UNL1        0.0095
@<TRIPOS>BOND
     1     1     2    2
     2     2     3    1
     3     3     4    1
     4     4     5    3
     5     5     6    1
     6     6     7    2
