@<TRIPOS>MOLECULE
No_258-gen_results/8p0m/2024-11-26-14-13-15/
 35 37 0 0 0
SMALL
GASTEIGER

@<TRIPOS>ATOM
      1 C         -28.0162   -0.8135   28.8779 C.ar    1  UNL1       -0.0040
      2 C         -28.4690   -0.7850   29.8287 C.ar    1  UNL1       -0.0006
      3 C         -28.1960    0.3478   28.0550 C.ar    1  UNL1       -0.0187
      4 C         -27.4421    0.5100   26.7946 C.3     1  UNL1        0.0446
      5 C         -27.8427    1.3330   25.8056 C.2     1  UNL1       -0.0437
      6 C         -29.4956    0.1092   30.3452 C.ar    1  UNL1       -0.0026
      7 C         -29.7284    1.1870   29.5687 C.ar    1  UNL1       -0.0009
      8 C         -29.0420    1.3665   28.3718 C.ar    1  UNL1       -0.0065
      9 C         -26.1281   -0.0671   26.6257 C.3     1  UNL1        0.0347
     10 C         -25.0056    0.6927   27.1660 C.ar    1  UNL1       -0.0215
     11 C         -24.1612    0.3331   28.1909 C.ar    1  UNL1       -0.0042
     12 C         -23.0144    1.1006   28.4705 C.ar    1  UNL1       -0.0003
     13 C         -22.4489    1.7298   27.6970 C.ar    1  UNL1       -0.0000
     14 C         -24.5804    1.8481   26.3511 C.ar    1  UNL1       -0.0042
     15 C         -23.2546    2.3001   26.5674 C.ar    1  UNL1       -0.0003
     16 C         -28.4901    0.7685   24.7750 C.2     1  UNL1       -0.0294
     17 C         -27.7791    2.7744   25.8898 C.3     1  UNL1        0.0264
     18 C         -29.6145    0.8384   24.6516 C.ar    1  UNL1       -0.0046
     19 C         -30.3315    0.3260   23.5299 C.ar    1  UNL1       -0.0003
     20 C         -31.7420    0.3995   23.4942 C.ar    1  UNL1       -0.0001
     21 C         -32.4469    1.1055   24.4475 C.ar    1  UNL1        0.0039
     22 C         -31.8188    1.7042   25.4749 C.ar    1  UNL1        0.0714
     23 C         -30.5066    1.5936   25.6475 C.ar    1  UNL1        0.0035
     24 C         -27.5614    0.1122   23.8120 C.3     1  UNL1        0.0304
     25 C         -32.7132    2.3914   26.4850 C.3     1  UNL1        0.4186
     26 F         -32.1742    3.2908   27.1682 F       1  UNL1       -0.1659
     27 F         -33.2006    1.4621   27.3579 F       1  UNL1       -0.1659
     28 F         -33.7248    2.9746   25.8305 F       1  UNL1       -0.1659
     29 C         -30.7359    2.2619   30.0086 C.3     1  UNL1        0.1415
     30 N         -30.7248    2.6758   31.1285 N.am    1  UNL1       -0.2003
     31 C         -30.9610    3.7265   31.6482 C.2     1  UNL1        0.2461
     32 O         -31.0199    3.9797   32.8744 O.2     1  UNL1       -0.2730
     33 C         -31.3119    4.9327   30.7074 C.3     1  UNL1        0.1128
     34 C         -30.9007    6.0205   31.1884 C.2     1  UNL1       -0.0165
     35 C         -31.3315    7.0708   30.4385 C.2     1  UNL1       -0.0044
@<TRIPOS>BOND
     1     3     4    1
     2     4     5    1
     3     4     9    1
     4     9    10    1
     5     5    16    2
     6     5    17    1
     7    16    18    1
     8    16    24    1
     9    22    25    1
    10    25    26    1
    11    25    27    1
    12    25    28    1
    13     7    29    1
    14    29    30    1
    15    30    31   am
    16    31    32    2
    17    31    33    1
    18    33    34    1
    19    34    35    2
    20    18    19   ar
    21    19    20   ar
    22    20    21   ar
    23    21    22   ar
    24    22    23   ar
    25    23    18   ar
    26    10    11   ar
    27    11    12   ar
    28    12    13   ar
    29    13    15   ar
    30    15    14   ar
    31    14    10   ar
    32     1     2   ar
    33     2     6   ar
    34     6     7   ar
    35     7     8   ar
    36     8     3   ar
    37     3     1   ar
