@<TRIPOS>MOLECULE
No_2580-gen_results/8p0m/2024-11-26-14-13-15/
 14 15 0 0 0
SMALL
GASTEIGER

@<TRIPOS>ATOM
      1 O         -28.1229   -1.3353   28.4874 O.2     1  UNL1       -0.2729
      2 C         -27.4806   -0.4044   28.7094 C.2     1  UNL1        0.2471
      3 C         -27.1904    0.2460   29.5268 C.3     1  UNL1        0.0873
      4 N         -26.8157    0.1371   27.4262 N.am    1  UNL1       -0.1607
      5 C         -26.3550    1.4196   29.7643 C.3     1  UNL1        0.0387
      6 C         -26.0125    1.2307   27.4050 C.ar    1  UNL1        0.1504
      7 C         -25.7456    1.9087   28.5801 C.ar    1  UNL1        0.0118
      8 N         -25.4741    1.6476   26.2645 N.ar    1  UNL1       -0.2276
      9 C         -24.5835    2.7236   26.2659 C.ar    1  UNL1        0.1004
     10 C         -24.3451    3.4222   27.4203 C.ar    1  UNL1        0.0205
     11 C         -24.8934    3.0551   28.5535 C.ar    1  UNL1        0.0002
     12 C         -27.7978   -0.2578   30.9525 C.3     1  UNL1        0.0355
     13 C         -27.1394   -0.2554   31.9813 C.2     1  UNL1       -0.0256
     14 C         -26.2461    0.7510   32.2667 C.2     1  UNL1       -0.0049
@<TRIPOS>BOND
     1     1     2    2
     2     2     3    1
     3     2     4   am
     4     4     6    1
     5     5     7    1
     6     3    12    1
     7    12    13    1
     8    13    14    2
     9     3     5    1
    10     6     7   ar
    11     7    11   ar
    12    11    10   ar
    13    10     9   ar
    14     9     8   ar
    15     8     6   ar
