@<TRIPOS>MOLECULE
No_2582-gen_results/8p0m/2024-11-26-14-13-15/
 15 16 0 0 0
SMALL
GASTEIGER

@<TRIPOS>ATOM
      1 C         -28.0162   -0.8135   28.8779 C.ar    1  UNL1        0.0198
      2 C         -27.0636   -0.1189   28.6079 C.ar    1  UNL1        0.0642
      3 C         -27.0010    0.6913   27.4910 C.ar    1  UNL1        0.0198
      4 C         -28.1373    0.7363   26.6350 C.ar    1  UNL1        0.0311
      5 C         -29.2360    0.0765   27.0690 C.ar    1  UNL1        0.1402
      6 C         -29.2177   -0.6429   28.1747 C.ar    1  UNL1        0.0311
      7 F         -30.4319    0.1612   26.4594 F       1  UNL1       -0.2042
      8 N         -25.6923   -0.0795   29.1546 N.ar    1  UNL1       -0.3049
      9 C         -25.3369   -0.9123   30.1562 C.ar    1  UNL1        0.0801
     10 C         -24.0257   -0.8139   30.6064 C.ar    1  UNL1        0.0205
     11 C         -23.3581    0.1688   29.8663 C.ar    1  UNL1        0.0190
     12 C         -24.5392    0.6798   28.8383 C.ar    1  UNL1        0.0637
     13 C         -24.3056    1.6206   27.8681 C.2     1  UNL1        0.0130
     14 C         -23.6668    1.5738   26.7882 C.2     1  UNL1       -0.0243
     15 C         -23.4515    2.7318   25.8991 C.3     1  UNL1        0.0307
@<TRIPOS>BOND
     1     5     7    1
     2     2     8    1
     3     8     9   ar
     4     9    10   ar
     5    10    11   ar
     6     8    12   ar
     7    11    12   ar
     8    12    13    1
     9    13    14    2
    10    14    15    1
    11     1     2   ar
    12     2     3   ar
    13     3     4   ar
    14     4     5   ar
    15     5     6   ar
    16     6     1   ar
