@<TRIPOS>MOLECULE
No_2583-gen_results/8p0m/2024-11-26-14-13-15/
 31 35 0 0 0
SMALL
GASTEIGER

@<TRIPOS>ATOM
      1 C         -28.0162   -0.8135   28.8779 C.ar    1  UNL1       -0.0000
      2 C         -27.0636   -0.1189   28.6079 C.ar    1  UNL1       -0.0000
      3 C         -25.7923   -0.4302   29.0761 C.ar    1  UNL1       -0.0002
      4 C         -25.5756   -1.5654   29.9363 C.ar    1  UNL1       -0.0000
      5 C         -26.7354   -2.3004   30.2173 C.ar    1  UNL1       -0.0000
      6 C         -27.9184   -1.9537   29.7629 C.ar    1  UNL1       -0.0000
      7 C         -26.8968    1.1016   27.7052 C.2     1  UNL1       -0.0000
      8 C         -27.7061    1.4295   26.9663 C.2     1  UNL1       -0.0000
      9 C         -28.9664    0.6339   26.8427 C.ar    1  UNL1       -0.0000
     10 C         -29.9426    1.3153   26.7143 C.ar    1  UNL1       -0.0003
     11 C         -31.2831    0.6460   26.7384 C.ar    1  UNL1       -0.0040
     12 C         -31.2094   -0.7053   26.6097 C.ar    1  UNL1       -0.0190
     13 C         -30.0740   -1.3517   26.3834 C.ar    1  UNL1       -0.0040
     14 C         -28.8630   -0.7252   26.6062 C.ar    1  UNL1       -0.0003
     15 C         -32.5084   -1.5159   26.3550 C.3     1  UNL1        0.0377
     16 C         -32.8869   -2.1969   27.6226 C.ar    1  UNL1       -0.0190
     17 C         -33.3309   -3.3235   27.5455 C.ar    1  UNL1       -0.0040
     18 C         -33.5604   -4.1381   28.7389 C.ar    1  UNL1       -0.0003
     19 C         -33.2923   -3.5537   30.0001 C.ar    1  UNL1       -0.0000
     20 C         -32.7896   -2.2719   30.0386 C.ar    1  UNL1       -0.0003
     21 C         -32.5109   -1.6201   28.8774 C.ar    1  UNL1       -0.0040
     22 C         -33.6002   -0.5934   25.9623 C.3     1  UNL1        0.0088
     23 C         -32.2610   -2.5705   25.2782 C.3     1  UNL1        0.0088
     24 C         -24.6208    0.3482   28.6310 C.2     1  UNL1        0.0001
     25 C         -25.2707    1.3414   27.7325 C.2     1  UNL1       -0.0002
     26 C         -23.2917    0.3731   28.9723 C.2     1  UNL1        0.0310
     27 C         -22.6992   -0.6837   29.5241 C.2     1  UNL1        0.1002
     28 N         -21.2542   -0.5415   29.5177 N.pl3   1  UNL1       -0.1454
     29 C         -22.2047    0.9575   28.0539 C.3     1  UNL1        0.2097
     30 N         -22.4609    2.0186   27.2635 N.3     1  UNL1       -0.1067
     31 N         -21.0195    0.5373   28.5630 N.3     1  UNL1       -0.0885
@<TRIPOS>BOND
     1     2     7    1
     2     7     8    2
     3     8     9    1
     4    12    15    1
     5    15    16    1
     6    15    22    1
     7    15    23    1
     8     3    24    1
     9     7    25    1
    10    24    25    2
    11    24    26    1
    12    26    27    2
    13    27    28    1
    14    26    29    1
    15    29    30    1
    16    28    31    1
    17    29    31    1
    18     1     2   ar
    19     2     3   ar
    20     3     4   ar
    21     4     5   ar
    22     5     6   ar
    23     6     1   ar
    24     9    10   ar
    25    10    11   ar
    26    11    12   ar
    27    12    13   ar
    28    13    14   ar
    29    14     9   ar
    30    16    17   ar
    31    17    18   ar
    32    18    19   ar
    33    19    20   ar
    34    20    21   ar
    35    21    16   ar
