@<TRIPOS>MOLECULE
No_2585-gen_results/8p0m/2024-11-26-14-13-15/
 18 20 0 0 0
SMALL
GASTEIGER

@<TRIPOS>ATOM
      1 C         -28.0162   -0.8135   28.8779 C.ar    1  UNL1        0.0045
      2 C         -28.4690   -0.7850   29.8287 C.ar    1  UNL1        0.0536
      3 C         -26.5042   -0.7777   28.8766 C.ar    1  UNL1        0.0001
      4 C         -25.8103   -0.8531   30.1028 C.ar    1  UNL1        0.0000
      5 C         -30.0136   -0.8410   29.8508 C.2     1  UNL1        0.2490
      6 C         -26.5670   -0.8850   31.2517 C.ar    1  UNL1        0.0001
      7 C         -27.9411   -0.9069   31.1850 C.ar    1  UNL1        0.0045
      8 O         -30.6563   -1.6921   30.1810 O.2     1  UNL1       -0.2699
      9 N         -30.6002    0.3117   29.2879 N.am    1  UNL1       -0.2761
     10 C         -32.0122    0.3629   29.1073 C.3     1  UNL1        0.0937
     11 C         -29.8375    1.4755   28.8672 C.3     1  UNL1        0.0937
     12 C         -29.9096    1.9886   27.8832 C.3     1  UNL1        0.0216
     13 C         -32.2941    1.1040   27.8724 C.3     1  UNL1        0.0216
     14 C         -31.3459    2.0988   27.3663 C.3     1  UNL1        0.0035
     15 C         -25.6537   -0.6683   27.6541 C.ar    1  UNL1        0.0000
     16 C         -24.3406   -0.2335   27.7726 C.ar    1  UNL1        0.0000
     17 C         -23.6380   -0.5167   28.9862 C.ar    1  UNL1        0.0000
     18 C         -24.3791   -0.6673   30.1860 C.ar    1  UNL1        0.0000
@<TRIPOS>BOND
     1     2     5    1
     2     5     8    2
     3     5     9   am
     4     9    10    1
     5     9    11    1
     6    12    14    1
     7    13    14    1
     8    10    13    1
     9    12    11    1
    10     4    18   ar
    11    18    17   ar
    12    17    16   ar
    13    16    15   ar
    14    15     3   ar
    15     1     2   ar
    16     2     7   ar
    17     7     6   ar
    18     6     4   ar
    19     4     3   ar
    20     3     1   ar
