@<TRIPOS>MOLECULE
No_2587-gen_results/8p0m/2024-11-26-14-13-15/
 10 10 0 0 0
SMALL
GASTEIGER

@<TRIPOS>ATOM
      1 F         -28.0727   -1.2542   28.5316 F       1  UNL1       -0.1659
      2 C         -27.3591   -0.3792   28.7224 C.3     1  UNL1        0.4186
      3 F         -27.7576    0.4972   29.4008 F       1  UNL1       -0.1659
      4 F         -26.9445    0.0888   27.4769 F       1  UNL1       -0.1659
      5 C         -26.0342   -0.9918   29.3036 C.ar    1  UNL1        0.0714
      6 C         -25.7650   -2.2558   29.4550 C.ar    1  UNL1        0.0039
      7 C         -24.5057   -2.7411   29.7939 C.ar    1  UNL1       -0.0001
      8 C         -23.5035   -1.7846   30.0432 C.ar    1  UNL1       -0.0000
      9 C         -23.7292   -0.4170   29.8548 C.ar    1  UNL1       -0.0001
     10 C         -24.9751    0.0016   29.4461 C.ar    1  UNL1        0.0039
@<TRIPOS>BOND
     1     1     2    1
     2     2     3    1
     3     2     4    1
     4     2     5    1
     5     5     6   ar
     6     6     7   ar
     7     7     8   ar
     8     8     9   ar
     9     9    10   ar
    10    10     5   ar
