@<TRIPOS>MOLECULE
No_2588-gen_results/8p0m/2024-11-26-14-13-15/
 31 33 0 0 0
SMALL
GASTEIGER

@<TRIPOS>ATOM
      1 C         -28.0162   -0.8135   28.8779 C.ar    1  UNL1        0.0130
      2 C         -28.4690   -0.7850   29.8287 C.ar    1  UNL1        0.0800
      3 C         -28.1816    0.4277   28.1134 C.ar    1  UNL1        0.0762
      4 C         -28.9841    1.4155   28.5154 C.ar    1  UNL1        0.0065
      5 C         -29.3802    0.1384   30.4612 C.ar    1  UNL1        0.0066
      6 C         -29.5415    1.2736   29.7242 C.ar    1  UNL1        0.0004
      7 C         -27.4586    0.4934   26.7701 C.2     1  UNL1        0.3457
      8 O         -27.9230    0.6051   25.8246 O.2     1  UNL1       -0.2445
      9 O         -26.0726    0.3400   26.8759 O.3     1  UNL1       -0.4208
     10 C         -25.3475    0.0254   27.8986 C.ar    1  UNL1        0.1549
     11 C         -25.0668   -0.9764   28.2427 C.ar    1  UNL1        0.0378
     12 C         -24.1293   -1.3453   29.3187 C.ar    1  UNL1        0.0031
     13 C         -23.3528   -0.3231   29.8462 C.ar    1  UNL1        0.0004
     14 C         -24.6591    1.2419   28.4130 C.ar    1  UNL1        0.1106
     15 C         -23.6209    0.9751   29.4019 C.ar    1  UNL1        0.0095
     16 C         -28.2994   -2.0808   30.8268 C.2     1  UNL1        0.3878
     17 O         -27.2561   -2.5345   30.8687 O.co2   1  UNL1       -0.2406
     18 O         -29.4310   -2.7190   31.1507 O.co2   1  UNL1       -0.2406
     19 C         -24.8832    2.6344   28.0657 C.2     1  UNL1        0.3488
     20 O         -24.4202    3.2599   27.2210 O.2     1  UNL1       -0.2444
     21 O         -25.5727    3.3314   29.0762 O.3     1  UNL1       -0.4178
     22 C         -26.1842    4.4997   28.7090 C.2     1  UNL1        0.1832
     23 C         -27.2874    4.8316   29.3357 C.2     1  UNL1        0.0438
     24 C         -27.6177    4.2336   30.5196 C.ar    1  UNL1        0.0371
     25 C         -27.9551    4.6892   31.4429 C.ar    1  UNL1        0.0031
     26 C         -28.1690    4.0330   32.7815 C.ar    1  UNL1        0.0002
     27 C         -27.9244    2.6495   32.7788 C.ar    1  UNL1        0.0031
     28 C         -27.3821    2.0564   31.7028 C.ar    1  UNL1        0.0369
     29 C         -27.1863    2.8261   30.5550 C.ar    1  UNL1        0.1387
     30 O         -26.8921    2.0796   29.6174 O.3     1  UNL1       -0.4714
     31 C         -25.8896    1.3847   30.1435 C.3     1  UNL1        0.2525
@<TRIPOS>BOND
     1     3     7    1
     2     7     8    2
     3     7     9    1
     4     9    10    1
     5     2    16    1
     6    16    17   ar
     7    16    18   ar
     8    14    19    1
     9    19    20    2
    10    19    21    1
    11    21    22    1
    12    22    23    2
    13    23    24    1
    14    29    30    1
    15    30    31    1
    16    10    11   ar
    17    11    12   ar
    18    12    13   ar
    19    13    15   ar
    20    15    14   ar
    21    14    10   ar
    22    24    25   ar
    23    25    26   ar
    24    26    27   ar
    25    27    28   ar
    26    28    29   ar
    27    29    24   ar
    28     1     2   ar
    29     2     5   ar
    30     5     6   ar
    31     6     4   ar
    32     4     3   ar
    33     3     1   ar
