@<TRIPOS>MOLECULE
No_2589-gen_results/8p0m/2024-11-26-14-13-15/
 13 14 0 0 0
SMALL
GASTEIGER

@<TRIPOS>ATOM
      1 C         -28.0162   -0.8135   28.8779 C.ar    1  UNL1        0.0114
      2 C         -28.4690   -0.7850   29.8287 C.ar    1  UNL1        0.0577
      3 C         -26.5042   -0.7777   28.8766 C.ar    1  UNL1        0.0009
      4 C         -25.8103   -0.8531   30.1028 C.ar    1  UNL1        0.0001
      5 C         -27.9906   -0.8916   31.2257 C.ar    1  UNL1        0.0114
      6 C         -24.3976   -0.8364   30.1775 C.ar    1  UNL1        0.0000
      7 C         -26.5754   -0.8899   31.2661 C.ar    1  UNL1        0.0009
      8 C         -23.7708   -0.9176   31.0960 C.ar    1  UNL1        0.0000
      9 C         -22.3018   -0.8444   31.2151 C.ar    1  UNL1        0.0000
     10 C         -21.6829   -0.5879   30.0577 C.ar    1  UNL1        0.0000
     11 C         -23.4571   -0.5861   29.0038 C.ar    1  UNL1        0.0000
     12 C         -22.2391   -0.4694   28.9183 C.ar    1  UNL1        0.0000
     13 CL        -30.3127   -0.7599   29.8318 Cl      1  UNL1       -0.0822
@<TRIPOS>BOND
     1     4     6    1
     2     2    13    1
     3     6     8   ar
     4     8     9   ar
     5     9    10   ar
     6    10    12   ar
     7    12    11   ar
     8    11     6   ar
     9     1     2   ar
    10     2     5   ar
    11     5     7   ar
    12     7     4   ar
    13     4     3   ar
    14     3     1   ar
