@<TRIPOS>MOLECULE
No_259-gen_results/8p0m/2024-11-26-14-13-15/
 14 14 0 0 0
SMALL
GASTEIGER

@<TRIPOS>ATOM
      1 C         -28.0162   -0.8135   28.8779 C.ar    1  UNL1        0.0049
      2 C         -27.0636   -0.1189   28.6079 C.ar    1  UNL1        0.0098
      3 C         -25.7647   -0.3897   29.0360 C.ar    1  UNL1        0.1365
      4 C         -25.5296   -1.5302   29.9014 C.ar    1  UNL1        0.0295
      5 C         -26.6577   -2.2915   30.2035 C.ar    1  UNL1        0.0089
      6 C         -27.8548   -1.9555   29.7630 C.ar    1  UNL1        0.0796
      7 F         -24.6951    0.3523   28.7823 F       1  UNL1       -0.2045
      8 C         -29.0113   -2.8316   30.1821 C.2     1  UNL1        0.3877
      9 O         -29.2216   -2.8904   31.3730 O.co2   1  UNL1       -0.2406
     10 O         -29.5936   -3.5644   29.3833 O.co2   1  UNL1       -0.2406
     11 C         -27.1340    1.0864   27.6733 C.3     1  UNL1        0.0542
     12 C         -26.7287    0.9761   26.4136 C.2     1  UNL1       -0.0259
     13 C         -25.8429    0.0491   26.0695 C.2     1  UNL1       -0.0300
     14 C         -25.1233   -0.5394   26.9846 C.3     1  UNL1        0.0304
@<TRIPOS>BOND
     1     3     7    1
     2     6     8    1
     3     8     9   ar
     4     8    10   ar
     5     2    11    1
     6    11    12    1
     7    12    13    2
     8    13    14    1
     9     1     2   ar
    10     2     3   ar
    11     3     4   ar
    12     4     5   ar
    13     5     6   ar
    14     6     1   ar
