@<TRIPOS>MOLECULE
No_2590-gen_results/8p0m/2024-11-26-14-13-15/
 13 13 0 0 0
SMALL
GASTEIGER

@<TRIPOS>ATOM
      1 C         -28.0162   -0.8135   28.8779 C.2     1  UNL1        0.0510
      2 C         -27.0636   -0.1189   28.6079 C.2     1  UNL1       -0.0397
      3 C         -25.7647   -0.3897   29.0360 C.3     1  UNL1        0.0226
      4 C         -24.5517    0.4058   28.7646 C.3     1  UNL1        0.0104
      5 C         -24.6957    1.4480   27.7988 C.3     1  UNL1        0.0440
      6 C         -25.9755    1.7250   27.3077 C.3     1  UNL1        0.0104
      7 C         -27.0718    1.0134   27.6535 C.3     1  UNL1        0.0226
      8 C         -28.6043   -0.4743   30.2323 C.2     1  UNL1        0.2643
      9 N         -28.2472    0.2907   30.9004 N.am    1  UNL1       -0.1998
     10 O         -29.6448   -1.3787   30.5490 O.2     1  UNL1       -0.2684
     11 C         -28.8529    0.5816   32.2842 C.3     1  UNL1        0.1388
     12 C         -23.5008    2.2412   27.5186 C.2     1  UNL1        0.0953
     13 N         -23.6052    3.2183   26.7426 N.2     1  UNL1       -0.1514
@<TRIPOS>BOND
     1     1     2    2
     2     2     3    1
     3     3     4    1
     4     4     5    1
     5     5     6    1
     6     2     7    1
     7     6     7    1
     8     1     8    1
     9     8     9   am
    10     8    10    2
    11     9    11    1
    12     5    12    1
    13    12    13    2
