@<TRIPOS>MOLECULE
No_2592-gen_results/8p0m/2024-11-26-14-13-15/
 11 11 0 0 0
SMALL
GASTEIGER

@<TRIPOS>ATOM
      1 C         -28.0162   -0.8135   28.8779 C.ar    1  UNL1        0.0369
      2 C         -28.4690   -0.7850   29.8287 C.ar    1  UNL1        0.1387
      3 C         -27.0871    0.2903   28.6377 C.ar    1  UNL1        0.0031
      4 C         -26.0238    0.3644   29.2526 C.ar    1  UNL1       -0.0001
      5 C         -27.5370   -0.6187   31.0883 C.ar    1  UNL1        0.0369
      6 C         -26.3844    0.1834   30.8012 C.ar    1  UNL1        0.0031
      7 O         -29.5100   -1.6195   30.2653 O.3     1  UNL1       -0.4714
      8 C         -29.5455   -2.7400   30.7590 C.3     1  UNL1        0.2525
      9 C         -24.8325    1.2530   29.0789 C.2     1  UNL1       -0.0046
     10 C         -23.7011    0.8534   29.5037 C.2     1  UNL1       -0.0258
     11 C         -22.6138    0.6943   28.9348 C.3     1  UNL1        0.0307
@<TRIPOS>BOND
     1     2     7    1
     2     7     8    1
     3     4     9    1
     4     9    10    2
     5    10    11    1
     6     1     2   ar
     7     2     5   ar
     8     5     6   ar
     9     6     4   ar
    10     4     3   ar
    11     3     1   ar
