@<TRIPOS>MOLECULE
No_2593-gen_results/8p0m/2024-11-26-14-13-15/
 13 14 0 0 0
SMALL
GASTEIGER

@<TRIPOS>ATOM
      1 C         -28.0162   -0.8135   28.8779 C.ar    1  UNL1       -0.0000
      2 C         -27.0636   -0.1190   28.6079 C.ar    1  UNL1       -0.0000
      3 C         -27.0010    0.6913   27.4910 C.ar    1  UNL1       -0.0000
      4 C         -25.7770    1.0214   26.9135 C.ar    1  UNL1       -0.0000
      5 C         -24.5088    0.7364   27.5686 C.ar    1  UNL1       -0.0000
      6 C         -24.5930   -0.0361   28.7390 C.ar    1  UNL1       -0.0003
      7 C         -25.8114   -0.4771   29.1584 C.ar    1  UNL1       -0.0000
      8 C         -28.1069   -1.4831   30.2046 C.ar    1  UNL1        0.0000
      9 C         -26.9076   -1.8560   30.8505 C.ar    1  UNL1       -0.0000
     10 C         -25.7217   -1.3535   30.3451 C.ar    1  UNL1       -0.0000
     11 C         -23.2428   -0.3061   29.3626 C.2     1  UNL1       -0.0046
     12 C         -22.0602    0.1758   28.8764 C.2     1  UNL1       -0.0258
     13 C         -22.1215    1.0703   27.7530 C.3     1  UNL1        0.0307
@<TRIPOS>BOND
     1     6    11    1
     2    11    12    2
     3    12    13    1
     4     2     3   ar
     5     3     4   ar
     6     4     5   ar
     7     5     6   ar
     8     6     7   ar
     9     1     2   ar
    10     2     7   ar
    11     7    10   ar
    12    10     9   ar
    13     9     8   ar
    14     8     1   ar
