@<TRIPOS>MOLECULE
No_2594-gen_results/8p0m/2024-11-26-14-13-15/
 11 11 0 0 0
SMALL
GASTEIGER

@<TRIPOS>ATOM
      1 C         -28.0162   -0.8135   28.8779 C.ar    1  UNL1        0.0371
      2 C         -28.4690   -0.7850   29.8287 C.ar    1  UNL1        0.0821
      3 C         -26.5455   -0.8762   28.8500 C.ar    1  UNL1        0.1508
      4 C         -25.8041   -1.0324   30.0571 C.ar    1  UNL1        0.0850
      5 C         -26.5373   -1.0386   31.2171 C.ar    1  UNL1        0.0139
      6 C         -27.8843   -0.9532   31.1862 C.ar    1  UNL1        0.0076
      7 CL        -24.1391   -1.1177   30.0459 Cl      1  UNL1       -0.0799
      8 C         -30.0700   -0.7183   29.9328 C.2     1  UNL1        0.3878
      9 O         -30.6408    0.0642   30.8485 O.co2   1  UNL1       -0.2406
     10 O         -30.6719   -0.9812   28.9142 O.co2   1  UNL1       -0.2406
     11 F         -25.7639   -0.8550   27.7162 F       1  UNL1       -0.2033
@<TRIPOS>BOND
     1     4     7    1
     2     2     8    1
     3     8     9   ar
     4     8    10   ar
     5     3    11    1
     6     1     2   ar
     7     2     6   ar
     8     6     5   ar
     9     5     4   ar
    10     4     3   ar
    11     3     1   ar
