@<TRIPOS>MOLECULE
No_2596-gen_results/8p0m/2024-11-26-14-13-15/
 15 16 0 0 0
SMALL
GASTEIGER

@<TRIPOS>ATOM
      1 C         -28.0162   -0.8135   28.8779 C.ar    1  UNL1        0.0002
      2 C         -27.0636   -0.1190   28.6079 C.ar    1  UNL1        0.0000
      3 C         -26.9716    0.7139   27.5060 C.ar    1  UNL1        0.0003
      4 C         -28.1053    0.7744   26.6421 C.ar    1  UNL1        0.0066
      5 C         -29.2041    0.1179   27.0477 C.ar    1  UNL1        0.0798
      6 C         -29.2127   -0.6088   28.1281 C.ar    1  UNL1        0.0066
      7 C         -30.3709    0.2326   26.1381 C.2     1  UNL1        0.3878
      8 O         -31.2520   -0.4036   26.3042 O.co2   1  UNL1       -0.2406
      9 O         -30.3125    1.0175   25.0722 O.co2   1  UNL1       -0.2406
     10 C         -25.6591    1.4028   27.1328 C.ar    1  UNL1        0.0031
     11 C         -24.5319    1.0316   27.7470 C.ar    1  UNL1        0.0207
     12 C         -23.2994    1.7997   27.4520 C.ar    1  UNL1        0.0989
     13 N         -23.3547    2.5951   26.3857 N.ar    1  UNL1       -0.2423
     14 C         -25.3421    2.3885   26.1346 C.ar    1  UNL1        0.0207
     15 C         -24.4078    3.0170   25.8201 C.ar    1  UNL1        0.0989
@<TRIPOS>BOND
     1     5     7    1
     2     7     8   ar
     3     7     9   ar
     4     3    10    1
     5     1     2   ar
     6     2     3   ar
     7     3     4   ar
     8     4     5   ar
     9     5     6   ar
    10     6     1   ar
    11    10    11   ar
    12    11    12   ar
    13    12    13   ar
    14    13    15   ar
    15    15    14   ar
    16    14    10   ar
