@<TRIPOS>MOLECULE
No_2597-gen_results/8p0m/2024-11-26-14-13-15/
 12 13 0 0 0
SMALL
GASTEIGER

@<TRIPOS>ATOM
      1 C         -28.0162   -0.8135   28.8779 C.ar    1  UNL1       -0.0003
      2 C         -28.4690   -0.7850   29.8287 C.ar    1  UNL1       -0.0000
      3 C         -27.1356    0.2359   28.5352 C.ar    1  UNL1       -0.0025
      4 C         -26.8745    1.2825   29.3982 C.ar    1  UNL1       -0.0034
      5 C         -27.5070    1.2380   30.6295 C.ar    1  UNL1       -0.0028
      6 C         -28.3293    0.1745   30.9350 C.ar    1  UNL1       -0.0003
      7 C         -26.3848    0.5209   27.2533 C.2     1  UNL1       -0.0003
      8 C         -26.1694    1.4950   26.7677 C.2     1  UNL1       -0.0003
      9 C         -25.7859    2.3501   27.1319 C.2     1  UNL1       -0.0030
     10 C         -25.9014    3.1382   28.3792 C.2     1  UNL1       -0.0059
     11 C         -26.3096    2.6247   29.2594 C.3     1  UNL1        0.1240
     12 CL        -26.2156    3.4705   30.8140 Cl      1  UNL1       -0.1053
@<TRIPOS>BOND
     1     3     7    1
     2     7     8    2
     3     8     9    1
     4     9    10    2
     5     4    11    1
     6    10    11    1
     7    11    12    1
     8     1     2   ar
     9     2     6   ar
    10     6     5   ar
    11     5     4   ar
    12     4     3   ar
    13     3     1   ar
