@<TRIPOS>MOLECULE
No_2598-gen_results/8p0m/2024-11-26-14-13-15/
 17 18 0 0 0
SMALL
GASTEIGER

@<TRIPOS>ATOM
      1 C         -28.0162   -0.8135   28.8779 C.ar    1  UNL1        0.0369
      2 C         -27.0636   -0.1189   28.6079 C.ar    1  UNL1        0.0031
      3 C         -25.7647   -0.3897   29.0360 C.ar    1  UNL1        0.0002
      4 C         -25.5296   -1.5302   29.9014 C.ar    1  UNL1        0.0031
      5 C         -26.6577   -2.2915   30.2035 C.ar    1  UNL1        0.0369
      6 C         -27.8548   -1.9555   29.7630 C.ar    1  UNL1        0.1392
      7 C         -24.5349    0.4128   28.7431 C.ar    1  UNL1        0.0000
      8 C         -24.4835    1.2431   27.7398 C.ar    1  UNL1        0.0000
      9 C         -23.2788    1.9376   27.4159 C.ar    1  UNL1        0.0000
     10 C         -22.0791    1.6509   28.0212 C.ar    1  UNL1        0.0000
     11 C         -23.2748    0.1108   29.4386 C.ar    1  UNL1        0.0000
     12 C         -22.0811    0.7712   29.0650 C.ar    1  UNL1        0.0000
     13 O         -28.9270   -2.7270   30.1273 O.3     1  UNL1       -0.4682
     14 C         -30.0378   -2.2196   30.5990 C.3     1  UNL1        0.2612
     15 C         -30.5017   -2.9674   31.6724 C.2     1  UNL1        0.1615
     16 C         -31.7432   -2.7573   32.0055 C.2     1  UNL1        0.0310
     17 F         -29.6491   -2.6363   32.7515 F       1  UNL1       -0.2050
@<TRIPOS>BOND
     1     3     7    1
     2     6    13    1
     3    13    14    1
     4    14    15    1
     5    15    16    2
     6    15    17    1
     7     7     8   ar
     8     8     9   ar
     9     9    10   ar
    10    10    12   ar
    11    12    11   ar
    12    11     7   ar
    13     1     2   ar
    14     2     3   ar
    15     3     4   ar
    16     4     5   ar
    17     5     6   ar
    18     6     1   ar
