@<TRIPOS>MOLECULE
No_2599-gen_results/8p0m/2024-11-26-14-13-15/
 35 37 0 0 0
SMALL
GASTEIGER

@<TRIPOS>ATOM
      1 C         -28.0162   -0.8135   28.8779 C.ar    1  UNL1        0.0045
      2 C         -28.4690   -0.7850   29.8287 C.ar    1  UNL1        0.0796
      3 C         -27.0871    0.2903   28.6377 C.ar    1  UNL1        0.0058
      4 C         -26.8317    1.2487   29.5869 C.ar    1  UNL1        0.1361
      5 C         -28.3914    0.0801   31.0065 C.ar    1  UNL1        0.0088
      6 C         -27.4940    1.1521   30.7841 C.ar    1  UNL1        0.0274
      7 C         -26.3172    0.3994   27.3653 C.3     1  UNL1        0.0329
      8 C         -26.8815    0.9711   26.3721 C.3     1  UNL1        0.0268
      9 C         -25.0088   -0.0567   27.3826 C.3     1  UNL1        0.0311
     10 C         -28.1703    1.4323   26.2851 C.ar    1  UNL1       -0.0222
     11 C         -28.8482    1.7560   27.1858 C.ar    1  UNL1       -0.0043
     12 C         -30.2040    2.4111   26.9345 C.ar    1  UNL1       -0.0003
     13 C         -30.6082    2.4871   25.6406 C.ar    1  UNL1       -0.0000
     14 C         -29.7984    2.1842   24.5688 C.ar    1  UNL1       -0.0003
     15 C         -28.5665    1.7352   24.8269 C.ar    1  UNL1       -0.0043
     16 C         -26.1979    0.5033   25.1110 C.3     1  UNL1        0.0050
     17 C         -24.4340   -0.4350   28.7280 C.ar    1  UNL1       -0.0218
     18 C         -23.1115   -0.3029   28.9433 C.ar    1  UNL1       -0.0043
     19 C         -22.5588   -1.0281   30.0124 C.ar    1  UNL1       -0.0003
     20 C         -23.3893   -1.5608   31.0127 C.ar    1  UNL1       -0.0000
     21 C         -24.7718   -1.5926   30.7807 C.ar    1  UNL1       -0.0003
     22 C         -25.2423   -1.0819   29.6341 C.ar    1  UNL1       -0.0043
     23 C         -29.5692   -1.9254   30.2308 C.2     1  UNL1        0.3877
     24 O         -29.3905   -2.9431   30.0643 O.co2   1  UNL1       -0.2406
     25 O         -30.6041   -1.5606   30.9828 O.co2   1  UNL1       -0.2406
     26 C         -27.3343    2.1940   31.8579 C.2     1  UNL1        0.0022
     27 C         -26.6862    3.2660   31.7530 C.2     1  UNL1        0.0006
     28 C         -25.9838    3.6416   30.5718 C.2     1  UNL1        0.0070
     29 C         -25.8633    2.9113   29.4327 C.2     1  UNL1        0.0351
     30 F         -25.5026    1.4729   29.6103 F       1  UNL1       -0.2045
     31 C         -25.4889    3.4471   28.2365 C.3     1  UNL1        0.0331
     32 CL        -26.7362    3.6317   29.2870 Cl      1  UNL1       -0.0869
     33 C         -25.1931    3.8801   27.2179 C.3     1  UNL1        0.0052
     34 C         -23.9993    2.9694   27.9384 C.3     1  UNL1        0.0056
     35 C         -25.0578    5.3360   27.1004 C.3     1  UNL1        0.0004
@<TRIPOS>BOND
     1     3     7    1
     2     7     8    1
     3     7     9    1
     4     8    10    1
     5     8    16    1
     6     9    17    1
     7     2    23    1
     8    23    24   ar
     9    23    25   ar
    10     6    26    1
    11    26    27    2
    12    27    28    1
    13    28    29    2
    14     4    30    1
    15    29    31    1
    16    29    32    1
    17    31    33    1
    18    31    34    1
    19    33    35    1
    20    17    18   ar
    21    18    19   ar
    22    19    20   ar
    23    20    21   ar
    24    21    22   ar
    25    22    17   ar
    26     1     2   ar
    27     2     5   ar
    28     5     6   ar
    29     6     4   ar
    30     4     3   ar
    31     3     1   ar
    32    10    11   ar
    33    11    12   ar
    34    12    13   ar
    35    13    14   ar
    36    14    15   ar
    37    15    10   ar
