@<TRIPOS>MOLECULE
No_26-gen_results/8p0m/2024-11-26-14-13-15/
 14 14 0 0 0
SMALL
GASTEIGER

@<TRIPOS>ATOM
      1 C         -28.0162   -0.8135   28.8779 C.ar    1  UNL1        0.0417
      2 C         -28.4690   -0.7850   29.8287 C.ar    1  UNL1        0.0033
      3 C         -26.5455   -0.8762   28.8500 C.ar    1  UNL1        0.1920
      4 C         -25.8041   -1.0324   30.0571 C.ar    1  UNL1        0.0211
      5 C         -26.5373   -1.0386   31.2171 C.ar    1  UNL1       -0.0008
      6 C         -27.8843   -0.9532   31.1862 C.ar    1  UNL1       -0.0001
      7 C         -24.3655   -1.1134   30.0483 C.3     1  UNL1        0.0555
      8 C         -23.6925    0.1188   29.9185 C.2     1  UNL1       -0.0213
      9 C         -23.1776    0.5817   28.7884 C.2     1  UNL1       -0.0042
     10 C         -23.0436    1.5120   28.0903 C.2     1  UNL1       -0.0003
     11 C         -22.2305    1.6536   26.8893 C.2     1  UNL1       -0.0000
     12 O         -25.8046   -0.8597   27.6967 O.3     1  UNL1       -0.2869
     13 C         -22.4750    2.7401   26.0939 C.2     1  UNL1       -0.0000
     14 C         -23.7644    3.4532   26.1894 C.2     1  UNL1       -0.0000
@<TRIPOS>BOND
     1     4     7    1
     2     7     8    1
     3     8     9    2
     4     9    10    1
     5    10    11    2
     6     3    12    1
     7    11    13    1
     8    13    14    2
     9     1     2   ar
    10     2     6   ar
    11     6     5   ar
    12     5     4   ar
    13     4     3   ar
    14     3     1   ar
