@<TRIPOS>MOLECULE
No_260-gen_results/8p0m/2024-11-26-14-13-15/
 21 21 0 0 0
SMALL
GASTEIGER

@<TRIPOS>ATOM
      1 C         -28.0162   -0.8135   28.8779 C.ar    1  UNL1        0.0228
      2 C         -28.4690   -0.7850   29.8287 C.ar    1  UNL1        0.0587
      3 C         -28.1816    0.4277   28.1134 C.ar    1  UNL1        0.0587
      4 C         -28.9841    1.4155   28.5154 C.ar    1  UNL1        0.0179
      5 C         -29.3802    0.1384   30.4612 C.ar    1  UNL1        0.0179
      6 C         -29.5415    1.2736   29.7242 C.ar    1  UNL1        0.0773
      7 CL        -27.3353    0.4923   26.5785 Cl      1  UNL1       -0.0822
      8 C         -30.4539    2.3360   30.2311 C.2     1  UNL1        0.3417
      9 O         -31.2136    2.9096   29.7051 O.2     1  UNL1       -0.2449
     10 O         -30.3730    2.3948   31.7041 O.3     1  UNL1       -0.4352
     11 CL        -28.1959   -2.3434   30.8644 Cl      1  UNL1       -0.0822
     12 C         -30.5922    3.5668   32.2526 C.3     1  UNL1        0.2948
     13 C         -29.8046    4.5675   32.0521 C.2     1  UNL1        0.2902
     14 O         -30.1979    5.5591   31.8192 O.2     1  UNL1       -0.2689
     15 N         -28.4643    4.3742   32.4879 N.am    1  UNL1       -0.1747
     16 C         -27.3976    5.3434   32.1713 C.2     1  UNL1        0.0887
     17 C         -26.2209    4.8408   32.2127 C.2     1  UNL1        0.0179
     18 C         -25.0806    5.5717   31.9346 C.2     1  UNL1        0.0014
     19 C         -23.7612    5.0265   32.0713 C.2     1  UNL1        0.0000
     20 C         -23.6497    3.6078   32.1288 C.2     1  UNL1        0.0000
     21 C         -24.8082    2.8610   32.1618 C.2     1  UNL1        0.0000
@<TRIPOS>BOND
     1     3     7    1
     2     6     8    1
     3     8     9    2
     4     8    10    1
     5     2    11    1
     6    10    12    1
     7    12    13    1
     8    13    14    2
     9    13    15   am
    10    15    16    1
    11    16    17    2
    12    17    18    1
    13    18    19    2
    14    19    20    1
    15    20    21    2
    16     1     2   ar
    17     2     5   ar
    18     5     6   ar
    19     6     4   ar
    20     4     3   ar
    21     3     1   ar
