@<TRIPOS>MOLECULE
No_2600-gen_results/8p0m/2024-11-26-14-13-15/
 17 18 0 0 0
SMALL
GASTEIGER

@<TRIPOS>ATOM
      1 BR        -28.1146   -0.6256   29.0813 Br      1  UNL1       -0.0490
      2 C         -27.4917    0.8142   29.3550 C.ar    1  UNL1        0.0347
      3 C         -27.5451    1.4114   30.5533 C.ar    1  UNL1        0.0067
      4 C         -26.7125    1.5072   28.2957 C.ar    1  UNL1        0.0113
      5 C         -26.0888    2.7652   28.5655 C.ar    1  UNL1        0.0555
      6 C         -26.9140    2.7295   30.8395 C.ar    1  UNL1        0.0007
      7 C         -26.2244    3.3609   29.8484 C.ar    1  UNL1        0.0046
      8 C         -25.3501    3.4451   27.5291 C.2     1  UNL1        0.2651
      9 N         -25.5294    4.6473   27.2121 N.am    1  UNL1       -0.1968
     10 O         -24.6790    2.7121   26.6511 O.2     1  UNL1       -0.2684
     11 C         -26.2148    5.6078   28.0621 C.3     1  UNL1        0.1418
     12 C         -25.9332    6.9538   27.6127 C.ar    1  UNL1       -0.0006
     13 C         -24.9408    7.1387   26.6343 C.ar    1  UNL1       -0.0026
     14 C         -24.6739    8.5347   26.2311 C.ar    1  UNL1       -0.0003
     15 C         -25.3991    9.5172   26.7936 C.ar    1  UNL1       -0.0000
     16 C         -26.3698    9.3334   27.7458 C.ar    1  UNL1       -0.0003
     17 C         -26.5997    8.0292   28.1780 C.ar    1  UNL1       -0.0026
@<TRIPOS>BOND
     1     1     2    1
     2     5     8    1
     3     8     9   am
     4     8    10    2
     5     9    11    1
     6    11    12    1
     7    12    13   ar
     8    13    14   ar
     9    14    15   ar
    10    15    16   ar
    11    16    17   ar
    12    17    12   ar
    13     2     3   ar
    14     3     6   ar
    15     6     7   ar
    16     7     5   ar
    17     5     4   ar
    18     4     2   ar
