@<TRIPOS>MOLECULE
No_2601-gen_results/8p0m/2024-11-26-14-13-15/
 32 35 0 0 0
SMALL
GASTEIGER

@<TRIPOS>ATOM
      1 O         -28.1229   -1.3353   28.4874 O.2     1  UNL1       -0.2718
      2 C         -27.4806   -0.4044   28.7094 C.2     1  UNL1        0.2598
      3 C         -26.3804   -0.0867   27.9394 C.3     1  UNL1        0.2278
      4 N         -27.4232    0.1749   30.0549 N.am    1  UNL1       -0.2566
      5 C         -25.8482    1.0048   27.9942 C.3     1  UNL1        0.0415
      6 C         -25.8487    1.7377   29.2952 C.3     1  UNL1        0.0249
      7 C         -26.7619    1.3299   30.2362 C.3     1  UNL1        0.0984
      8 C         -24.7793    1.5541   27.0752 C.3     1  UNL1        0.0070
      9 C         -23.7643    1.4868   27.0840 C.3     1  UNL1        0.0222
     10 C         -22.8391    2.1506   26.0367 C.3     1  UNL1        0.0047
     11 C         -25.5168    2.0719   25.8338 C.3     1  UNL1        0.0004
     12 C         -22.8229    1.0374   28.2753 C.2     1  UNL1       -0.0250
     13 C         -23.1152   -0.0413   29.0128 C.2     1  UNL1        0.0183
     14 C         -22.2070   -0.5174   29.9572 C.2     1  UNL1        0.1017
     15 N         -22.6846   -1.3550   30.8798 N.2     1  UNL1       -0.2065
     16 C         -24.0673   -1.5528   30.9012 C.2     1  UNL1        0.2779
     17 C         -24.4135   -0.5438   29.4544 C.2     1  UNL1        0.0707
     18 C         -24.7089   -1.5479   28.8532 C.3     1  UNL1        0.2006
     19 C         -28.5015   -0.2833   30.9681 C.ar    1  UNL1        0.0539
     20 O         -27.0053   -0.0979   26.5870 O.3     1  UNL1       -0.2132
     21 C         -23.6720   -2.5813   28.8618 C.2     1  UNL1        0.1859
     22 O         -24.5265   -0.7441   32.0898 O.2     1  UNL1       -0.2654
     23 O         -25.8160   -2.4222   29.2871 O.3     1  UNL1       -0.3283
     24 C         -25.6012   -3.7891   29.1654 C.3     1  UNL1        0.2144
     25 C         -24.3076   -3.9786   28.8118 C.3     1  UNL1        0.1168
     26 N         -26.0512   -4.5054   30.3056 N.3     1  UNL1       -0.0997
     27 O         -22.4834   -2.5496   28.5183 O.2     1  UNL1       -0.2930
     28 C         -27.9699   -0.5811   32.1652 C.ar    1  UNL1        0.0149
     29 C         -28.6637   -0.5337   33.1964 C.ar    1  UNL1        0.0013
     30 C         -30.0809   -0.6053   33.1687 C.ar    1  UNL1        0.0001
     31 C         -30.6309   -0.3322   31.8702 C.ar    1  UNL1        0.0013
     32 C         -29.6813    0.2389   31.0315 C.ar    1  UNL1        0.0149
@<TRIPOS>BOND
     1     1     2    2
     2     2     3    1
     3     2     4   am
     4     5     6    1
     5     4     7    1
     6     5     8    1
     7     8     9    1
     8     9    10    1
     9     8    11    1
    10     9    12    1
    11    12    13    2
    12    13    14    1
    13    14    15    2
    14    15    16    1
    15    13    17    1
    16    16    17    2
    17    17    18    1
    18     4    19    1
    19     3    20    1
    20    18    21    1
    21    16    22    1
    22    18    23    1
    23    23    24    1
    24    21    25    1
    25    24    25    1
    26    24    26    1
    27    21    27    2
    28     3     5    1
    29     6     7    1
    30    19    28   ar
    31    28    29   ar
    32    29    30   ar
    33    30    31   ar
    34    31    32   ar
    35    32    19   ar
