@<TRIPOS>MOLECULE
No_2602-gen_results/8p0m/2024-11-26-14-13-15/
 19 20 0 0 0
SMALL
GASTEIGER

@<TRIPOS>ATOM
      1 C         -28.0162   -0.8135   28.8779 C.ar    1  UNL1        0.0403
      2 C         -28.4690   -0.7850   29.8287 C.ar    1  UNL1        0.0713
      3 C         -26.5455   -0.8762   28.8500 C.ar    1  UNL1        0.1513
      4 C         -25.8041   -1.0324   30.0571 C.ar    1  UNL1        0.0881
      5 C         -27.9437   -0.9869   31.2075 C.ar    1  UNL1        0.1524
      6 C         -26.5825   -1.0386   31.2231 C.ar    1  UNL1        0.0517
      7 BR        -30.4495   -0.7126   29.8904 Br      1  UNL1       -0.0458
      8 CL        -24.1260   -1.2528   30.2249 Cl      1  UNL1       -0.0798
      9 F         -25.7633   -0.8879   27.7533 F       1  UNL1       -0.2033
     10 O         -28.6660   -0.9610   32.3629 O.3     1  UNL1       -0.4530
     11 C         -28.3799   -0.0990   33.2446 C.ar    1  UNL1        0.1455
     12 C         -28.0480   -0.6227   34.4471 C.ar    1  UNL1        0.0375
     13 C         -27.5331    0.2265   35.5292 C.ar    1  UNL1        0.0033
     14 C         -27.4936    1.6142   35.3245 C.ar    1  UNL1        0.0058
     15 C         -27.7994    2.0926   34.0303 C.ar    1  UNL1        0.0708
     16 C         -28.1586    1.2432   33.0333 C.ar    1  UNL1        0.0431
     17 C         -27.6245    3.5606   33.8040 C.2     1  UNL1        0.3335
     18 O         -27.3770    4.0095   32.9248 O.2     1  UNL1       -0.2541
     19 F         -27.3202    4.1284   34.9722 F       1  UNL1       -0.1586
@<TRIPOS>BOND
     1     2     7    1
     2     4     8    1
     3     3     9    1
     4     5    10    1
     5    10    11    1
     6    15    17    1
     7    17    18    2
     8    17    19    1
     9    11    12   ar
    10    12    13   ar
    11    13    14   ar
    12    14    15   ar
    13    15    16   ar
    14    16    11   ar
    15     1     2   ar
    16     2     5   ar
    17     5     6   ar
    18     6     4   ar
    19     4     3   ar
    20     3     1   ar
