@<TRIPOS>MOLECULE
No_2603-gen_results/8p0m/2024-11-26-14-13-15/
 35 37 0 0 0
SMALL
GASTEIGER

@<TRIPOS>ATOM
      1 C         -28.0162   -0.8135   28.8779 C.2     1  UNL1        0.2495
      2 C         -27.0636   -0.1189   28.6079 C.ar    1  UNL1        0.0539
      3 C         -26.9287    1.1713   29.0083 C.ar    1  UNL1        0.0118
      4 C         -25.7702    2.0341   28.6884 C.ar    1  UNL1        0.0863
      5 C         -24.7141    1.4431   27.9188 C.ar    1  UNL1        0.0639
      6 C         -24.8590    0.0783   27.5836 C.ar    1  UNL1        0.0118
      7 C         -25.9647   -0.6606   27.9164 C.ar    1  UNL1        0.0054
      8 N         -27.9820   -1.6112   30.1028 N.am    1  UNL1       -0.2643
      9 CL        -23.3430    2.2983   27.5045 Cl      1  UNL1       -0.0820
     10 O         -29.2133   -0.4311   28.6663 O.2     1  UNL1       -0.2699
     11 C         -29.0170   -2.4660   30.6323 C.3     1  UNL1        0.2088
     12 C         -26.6579   -2.0012   30.7017 C.3     1  UNL1        0.1157
     13 C         -29.3719   -2.0970   31.8943 C.2     1  UNL1        0.3847
     14 O         -29.5775   -3.1775   32.5987 O.co2   1  UNL1       -0.2437
     15 O         -29.3639   -0.9691   32.3499 O.co2   1  UNL1       -0.2437
     16 C         -25.6235    3.4556   29.1021 C.2     1  UNL1        0.3421
     17 O         -25.7187    4.3215   28.1958 O.2     1  UNL1       -0.2449
     18 O         -25.8611    3.6963   30.3423 O.3     1  UNL1       -0.4439
     19 C         -26.7523    4.4803   30.7722 C.3     1  UNL1        0.2245
     20 C         -27.7379    4.0832   31.4002 C.3     1  UNL1        0.1016
     21 N         -27.5823    3.2947   32.4260 N.3     1  UNL1       -0.2720
     22 C         -28.2310    3.1623   33.4893 C.3     1  UNL1        0.0721
     23 C         -29.2738    3.7597   33.7529 C.3     1  UNL1        0.0174
     24 C         -29.7721    4.5784   32.6762 C.3     1  UNL1        0.0029
     25 C         -28.9611    4.8898   31.5598 C.3     1  UNL1        0.0198
     26 C         -26.3373    2.3622   32.3274 C.3     1  UNL1        0.0579
     27 C         -25.2067    2.6260   33.1751 C.3     1  UNL1        0.0173
     28 C         -26.8920    0.8788   32.8591 C.3     1  UNL1        0.0206
     29 C         -25.6748    0.0887   33.1884 C.3     1  UNL1        0.0277
     30 C         -24.7244    0.1403   32.2035 C.ar    1  UNL1       -0.0221
     31 C         -23.8388   -1.0292   32.0898 C.ar    1  UNL1       -0.0043
     32 C         -22.9146   -1.0602   31.0126 C.ar    1  UNL1       -0.0003
     33 C         -22.6356    0.1304   30.2607 C.ar    1  UNL1       -0.0000
     34 C         -23.3089    1.3167   30.6312 C.ar    1  UNL1       -0.0003
     35 C         -24.3570    1.2710   31.5234 C.ar    1  UNL1       -0.0043
@<TRIPOS>BOND
     1     1     2    1
     2     1     8   am
     3     5     9    1
     4     1    10    2
     5     8    11    1
     6     8    12    1
     7    11    13    1
     8    13    14   ar
     9    13    15   ar
    10     4    16    1
    11    16    17    2
    12    16    18    1
    13    18    19    1
    14    19    20    1
    15    20    21    1
    16    21    22    1
    17    23    24    1
    18    20    25    1
    19    21    26    1
    20    26    27    1
    21    26    28    1
    22    28    29    1
    23    29    30    1
    24    25    24    1
    25    23    22    1
    26     2     3   ar
    27     3     4   ar
    28     4     5   ar
    29     5     6   ar
    30     6     7   ar
    31     7     2   ar
    32    30    31   ar
    33    31    32   ar
    34    32    33   ar
    35    33    34   ar
    36    34    35   ar
    37    35    30   ar
