@<TRIPOS>MOLECULE
No_2605-gen_results/8p0m/2024-11-26-14-13-15/
 25 28 0 0 0
SMALL
GASTEIGER

@<TRIPOS>ATOM
      1 C         -28.0162   -0.8135   28.8779 C.ar    1  UNL1        0.0015
      2 C         -27.0636   -0.1190   28.6079 C.ar    1  UNL1        0.0000
      3 C         -25.7647   -0.3897   29.0360 C.ar    1  UNL1        0.0001
      4 C         -24.5516    0.4058   28.7646 C.ar    1  UNL1        0.0032
      5 C         -24.6957    1.4480   27.7988 C.ar    1  UNL1        0.0420
      6 C         -23.5821    2.2166   27.4626 C.ar    1  UNL1        0.1957
      7 C         -22.3211    1.8240   27.9807 C.ar    1  UNL1        0.0420
      8 C         -22.1777    0.8172   28.8883 C.ar    1  UNL1        0.0033
      9 C         -23.3181    0.0417   29.2597 C.ar    1  UNL1        0.0002
     10 C         -27.8970   -1.8952   29.8587 C.ar    1  UNL1        0.0176
     11 C         -26.6530   -2.3395   30.2732 C.ar    1  UNL1        0.0015
     12 C         -25.5330   -1.5566   29.9092 C.ar    1  UNL1        0.0000
     13 C         -29.0621   -2.7222   30.2424 C.ar    1  UNL1        0.0810
     14 N         -28.9426   -4.0233   30.3912 N.ar    1  UNL1       -0.2439
     15 C         -29.9913   -4.8906   30.1324 C.ar    1  UNL1        0.0986
     16 C         -31.1453   -4.5468   30.7082 C.ar    1  UNL1        0.0181
     17 C         -31.4527   -3.1182   30.7070 C.ar    1  UNL1        0.0024
     18 C         -30.3547   -2.1831   30.4832 C.ar    1  UNL1        0.0166
     19 C         -24.2411   -1.8930   30.3830 C.ar    1  UNL1        0.0000
     20 C         -23.1441   -1.0809   30.1414 C.ar    1  UNL1        0.0000
     21 O         -23.7095    3.2419   26.6370 O.3     1  UNL1       -0.2866
     22 C         -32.7403   -2.6076   31.0742 C.3     1  UNL1        0.1387
     23 N         -32.8946   -2.2389   32.2168 N.pl3   1  UNL1       -0.2315
     24 C         -33.8919   -1.7487   32.7125 C.2     1  UNL1        0.0805
     25 C         -34.0015   -1.3298   34.1368 C.2     1  UNL1        0.0188
@<TRIPOS>BOND
     1    10    13    1
     2     6    21    1
     3    17    22    1
     4    22    23    1
     5    23    24    1
     6    24    25    2
     7    13    14   ar
     8    14    15   ar
     9    15    16   ar
    10    16    17   ar
    11    17    18   ar
    12    18    13   ar
    13     3     4   ar
    14     9    20   ar
    15    20    19   ar
    16    19    12   ar
    17     1     2   ar
    18     2     3   ar
    19     3    12   ar
    20    12    11   ar
    21    11    10   ar
    22    10     1   ar
    23     4     5   ar
    24     5     6   ar
    25     6     7   ar
    26     7     8   ar
    27     8     9   ar
    28     9     4   ar
