@<TRIPOS>MOLECULE
No_2606-gen_results/8p0m/2024-11-26-14-13-15/
 13 14 0 0 0
SMALL
GASTEIGER

@<TRIPOS>ATOM
      1 F         -28.0727   -1.2542   28.5316 F       1  UNL1       -0.2042
      2 C         -27.0607   -0.6291   28.8721 C.2     1  UNL1        0.1398
      3 C         -26.3579   -0.0711   28.0115 C.2     1  UNL1        0.0290
      4 C         -25.0715    0.5530   28.2555 C.ar    1  UNL1       -0.0054
      5 C         -24.1898    1.2182   27.2815 C.ar    1  UNL1       -0.0221
      6 C         -22.9240    1.7697   27.6696 C.ar    1  UNL1       -0.0043
      7 C         -22.3814    1.3019   28.8989 C.ar    1  UNL1       -0.0006
      8 C         -24.2456    0.2623   29.4217 C.ar    1  UNL1       -0.0180
      9 C         -23.0145    0.6454   29.7291 C.ar    1  UNL1       -0.0040
     10 C         -26.6530   -0.7098   30.3078 C.2     1  UNL1        0.0254
     11 C         -25.8096   -0.2633   30.8286 C.2     1  UNL1       -0.0191
     12 C         -24.8132   -0.1545   30.6831 C.3     1  UNL1        0.0524
     13 C         -24.7261    1.6008   25.9901 C.3     1  UNL1        0.0310
@<TRIPOS>BOND
     1     1     2    1
     2     2     3    2
     3     3     4    1
     4     2    10    1
     5    10    11    2
     6     8    12    1
     7    11    12    1
     8     5    13    1
     9     4     5   ar
    10     5     6   ar
    11     6     7   ar
    12     7     9   ar
    13     9     8   ar
    14     8     4   ar
