@<TRIPOS>MOLECULE
No_2607-gen_results/8p0m/2024-11-26-14-13-15/
 15 16 0 0 0
SMALL
GASTEIGER

@<TRIPOS>ATOM
      1 C         -28.0162   -0.8135   28.8779 C.ar    1  UNL1        0.0159
      2 C         -27.0636   -0.1190   28.6079 C.ar    1  UNL1        0.0544
      3 C         -25.7923   -0.4302   29.0761 C.ar    1  UNL1        0.0046
      4 C         -25.5756   -1.5654   29.9363 C.ar    1  UNL1        0.0010
      5 C         -26.7354   -2.3004   30.2173 C.ar    1  UNL1        0.0114
      6 C         -27.9184   -1.9537   29.7629 C.ar    1  UNL1        0.0578
      7 CL        -29.2678   -2.8890   30.2152 Cl      1  UNL1       -0.0822
      8 C         -27.1068    1.1096   27.7591 C.2     1  UNL1        0.2490
      9 N         -26.7738    2.0654   27.8934 N.am    1  UNL1       -0.2761
     10 O         -27.7753    0.8134   26.5750 O.2     1  UNL1       -0.2699
     11 C         -25.9832    2.5250   29.1383 C.3     1  UNL1        0.0937
     12 C         -25.9631    3.9920   29.2212 C.3     1  UNL1        0.0216
     13 C         -25.8151    4.6630   28.0387 C.3     1  UNL1        0.0035
     14 C         -26.3228    4.1768   26.8123 C.3     1  UNL1        0.0216
     15 C         -26.7451    2.9668   26.7737 C.3     1  UNL1        0.0937
@<TRIPOS>BOND
     1     6     7    1
     2     2     8    1
     3     8     9   am
     4     8    10    2
     5     9    11    1
     6    12    13    1
     7     9    15    1
     8    14    15    1
     9    11    12    1
    10    13    14    1
    11     1     2   ar
    12     2     3   ar
    13     3     4   ar
    14     4     5   ar
    15     5     6   ar
    16     6     1   ar
