@<TRIPOS>MOLECULE
No_2608-gen_results/8p0m/2024-11-26-14-13-15/
 35 37 0 0 0
SMALL
GASTEIGER

@<TRIPOS>ATOM
      1 C         -28.0162   -0.8135   28.8779 C.ar    1  UNL1        0.0104
      2 C         -28.4690   -0.7850   29.8287 C.ar    1  UNL1        0.0797
      3 C         -27.0871    0.2903   28.6377 C.ar    1  UNL1        0.0716
      4 C         -26.2516    0.4114   27.4223 C.3     1  UNL1        0.4186
      5 C         -28.3913    0.1041   30.9805 C.ar    1  UNL1        0.0066
      6 C         -27.5332    1.1666   30.7866 C.ar    1  UNL1        0.0002
      7 C         -26.8281    1.2557   29.6454 C.ar    1  UNL1        0.0039
      8 F         -26.2895   -0.3207   26.7007 F       1  UNL1       -0.1659
      9 F         -24.9064    0.6296   27.8498 F       1  UNL1       -0.1659
     10 F         -26.5252    1.7004   26.8049 F       1  UNL1       -0.1659
     11 C         -29.4614   -2.0180   30.2134 C.2     1  UNL1        0.3877
     12 O         -30.4920   -1.8765   29.8137 O.co2   1  UNL1       -0.2406
     13 O         -29.0232   -3.0314   30.8838 O.co2   1  UNL1       -0.2406
     14 C         -27.3105    2.1837   31.8405 C.2     1  UNL1       -0.0000
     15 C         -26.5756    3.0633   31.7359 C.2     1  UNL1        0.0000
     16 C         -26.1641    4.0633   32.2693 C.ar    1  UNL1        0.0002
     17 C         -25.0819    5.0513   32.0028 C.ar    1  UNL1        0.0033
     18 C         -24.6998    6.1177   32.7915 C.ar    1  UNL1        0.0420
     19 C         -25.3702    6.3669   33.9827 C.ar    1  UNL1        0.1957
     20 C         -26.3577    5.5124   34.3576 C.ar    1  UNL1        0.0420
     21 C         -26.7154    4.4570   33.6488 C.ar    1  UNL1        0.0033
     22 C         -28.1192    2.0482   33.0566 C.ar    1  UNL1        0.0002
     23 C         -27.8144    1.7501   34.1230 C.ar    1  UNL1        0.0066
     24 C         -28.6775    1.1328   35.0478 C.ar    1  UNL1        0.0797
     25 C         -29.9843    0.9515   34.6552 C.ar    1  UNL1        0.0104
     26 C         -30.4098    1.2834   33.4245 C.ar    1  UNL1        0.0716
     27 C         -29.5186    1.7446   32.5118 C.ar    1  UNL1        0.0039
     28 C         -31.7947    0.9981   33.0215 C.3     1  UNL1        0.4186
     29 F         -32.6659    0.9111   33.5561 F       1  UNL1       -0.1659
     30 F         -31.9637    1.8591   31.9415 F       1  UNL1       -0.1659
     31 F         -31.6085   -0.2488   32.2493 F       1  UNL1       -0.1659
     32 C         -28.2571    0.8473   36.4696 C.2     1  UNL1        0.3877
     33 O         -28.7295   -0.0794   37.0183 O.co2   1  UNL1       -0.2406
     34 O         -27.3335    1.5661   36.9332 O.co2   1  UNL1       -0.2406
     35 O         -24.9709    7.4443   34.7440 O.3     1  UNL1       -0.2866
@<TRIPOS>BOND
     1     3     4    1
     2     4     8    1
     3     4     9    1
     4     4    10    1
     5     2    11    1
     6    11    12   ar
     7    11    13   ar
     8     6    14    1
     9    14    15    2
    10    15    16    1
    11    14    22    1
    12    26    28    1
    13    28    29    1
    14    28    30    1
    15    28    31    1
    16    24    32    1
    17    32    33   ar
    18    32    34   ar
    19    19    35    1
    20    22    23   ar
    21    23    24   ar
    22    24    25   ar
    23    25    26   ar
    24    26    27   ar
    25    27    22   ar
    26     1     2   ar
    27     2     5   ar
    28     5     6   ar
    29     6     7   ar
    30     7     3   ar
    31     3     1   ar
    32    16    17   ar
    33    17    18   ar
    34    18    19   ar
    35    19    20   ar
    36    20    21   ar
    37    21    16   ar
