@<TRIPOS>MOLECULE
No_2609-gen_results/8p0m/2024-11-26-14-13-15/
 20 21 0 0 0
SMALL
GASTEIGER

@<TRIPOS>ATOM
      1 C         -28.0162   -0.8135   28.8779 C.ar    1  UNL1        0.0023
      2 C         -28.4690   -0.7850   29.8287 C.ar    1  UNL1        0.0795
      3 C         -26.5042   -0.7777   28.8766 C.ar    1  UNL1       -0.0212
      4 C         -25.8305   -1.6808   29.6849 C.ar    1  UNL1       -0.0214
      5 C         -28.0440   -1.2768   30.9816 C.ar    1  UNL1        0.0062
      6 C         -26.6465   -1.7245   31.0112 C.ar    1  UNL1       -0.0040
      7 C         -29.9437   -0.3375   29.7581 C.2     1  UNL1        0.3877
      8 O         -30.2035    0.8070   30.2876 O.co2   1  UNL1       -0.2406
      9 O         -30.8532   -1.2729   29.6246 O.co2   1  UNL1       -0.2406
     10 C         -24.4875   -1.9313   29.7838 C.3     1  UNL1        0.0523
     11 C         -23.5759   -0.9020   29.9359 C.ar    1  UNL1       -0.0178
     12 C         -22.3998   -0.7842   29.1327 C.ar    1  UNL1       -0.0039
     13 C         -21.5953    0.3297   29.2441 C.ar    1  UNL1       -0.0003
     14 C         -23.7884    0.1865   30.8936 C.ar    1  UNL1       -0.0039
     15 C         -23.0189    1.3770   30.8115 C.ar    1  UNL1       -0.0003
     16 C         -21.9467    1.4167   30.0119 C.ar    1  UNL1       -0.0000
     17 C         -25.7386   -0.5657   27.5871 C.3     1  UNL1        0.0517
     18 C         -25.3755    0.8564   27.5234 C.2     1  UNL1       -0.0260
     19 C         -24.6008    1.2519   26.3940 C.2     1  UNL1       -0.0300
     20 C         -24.0685    2.5755   26.3705 C.3     1  UNL1        0.0304
@<TRIPOS>BOND
     1     2     7    1
     2     7     8   ar
     3     7     9   ar
     4     4    10    1
     5    10    11    1
     6     3    17    1
     7    17    18    1
     8    18    19    2
     9    19    20    1
    10     1     2   ar
    11     2     5   ar
    12     5     6   ar
    13     6     4   ar
    14     4     3   ar
    15     3     1   ar
    16    11    12   ar
    17    12    13   ar
    18    13    16   ar
    19    16    15   ar
    20    15    14   ar
    21    14    11   ar
