@<TRIPOS>MOLECULE
No_261-gen_results/8p0m/2024-11-26-14-13-15/
 13 13 0 0 0
SMALL
GASTEIGER

@<TRIPOS>ATOM
      1 C         -28.0162   -0.8135   28.8779 C.ar    1  UNL1        0.0009
      2 C         -27.0636   -0.1190   28.6079 C.ar    1  UNL1        0.0001
      3 C         -26.9716    0.7139   27.5060 C.ar    1  UNL1        0.0008
      4 C         -28.1053    0.7744   26.6421 C.ar    1  UNL1        0.0114
      5 C         -29.2041    0.1179   27.0477 C.ar    1  UNL1        0.0577
      6 C         -29.2127   -0.6088   28.1281 C.ar    1  UNL1        0.0114
      7 CL        -30.5638    0.2475   26.0224 Cl      1  UNL1       -0.0822
      8 C         -25.6995    1.4455   27.1228 C.2     1  UNL1        0.0000
      9 C         -24.6612    1.0215   27.8703 C.2     1  UNL1        0.0000
     10 C         -23.3484    1.7627   27.6716 C.2     1  UNL1        0.0000
     11 C         -22.2598    1.4254   28.5503 C.2     1  UNL1        0.0000
     12 C         -22.3169    0.3379   29.4135 C.2     1  UNL1        0.0000
     13 C         -23.4897   -0.3985   29.5203 C.2     1  UNL1        0.0000
@<TRIPOS>BOND
     1     5     7    1
     2     3     8    1
     3     8     9    2
     4     9    10    1
     5    10    11    2
     6    11    12    1
     7    12    13    2
     8     1     2   ar
     9     2     3   ar
    10     3     4   ar
    11     4     5   ar
    12     5     6   ar
    13     6     1   ar
