@<TRIPOS>MOLECULE
No_2610-gen_results/8p0m/2024-11-26-14-13-15/
 35 38 0 0 0
SMALL
GASTEIGER

@<TRIPOS>ATOM
      1 C         -28.0162   -0.8135   28.8779 C.ar    1  UNL1        0.0094
      2 C         -28.4690   -0.7850   29.8287 C.ar    1  UNL1        0.0799
      3 C         -26.5042   -0.7777   28.8766 C.ar    1  UNL1        0.0352
      4 C         -25.6540   -0.6597   27.7191 C.2     1  UNL1        0.1764
      5 C         -27.9180   -0.9374   31.1824 C.ar    1  UNL1        0.0066
      6 C         -26.5424   -0.9399   31.2606 C.ar    1  UNL1        0.0003
      7 C         -25.7832   -0.8935   30.1201 C.ar    1  UNL1        0.0029
      8 C         -25.2204    0.6866   27.3939 C.3     1  UNL1        0.0821
      9 C         -25.3030    1.0787   26.0731 C.3     1  UNL1        0.0118
     10 C         -23.8499    1.0484   27.8926 C.3     1  UNL1        0.0888
     11 C         -23.3554    0.8269   29.1255 C.2     1  UNL1        0.2417
     12 C         -23.4272    2.3938   27.2987 C.3     1  UNL1        0.0099
     13 C         -23.6612    2.7255   25.9985 C.3     1  UNL1        0.0005
     14 C         -24.7787    2.1801   25.4460 C.3     1  UNL1        0.0008
     15 O         -23.6658    1.2073   30.2404 O.2     1  UNL1       -0.2733
     16 N         -22.2401   -0.1579   29.0764 N.am    1  UNL1       -0.2035
     17 C         -21.6091   -0.6663   27.9701 C.3     1  UNL1        0.1385
     18 C         -26.0701    1.8450   28.1501 C.2     1  UNL1       -0.0190
     19 C         -26.3121    3.0749   27.5421 C.2     1  UNL1       -0.0042
     20 C         -27.0892    3.9875   28.4063 C.ar    1  UNL1       -0.0003
     21 C         -27.3020    3.7491   29.6451 C.ar    1  UNL1       -0.0000
     22 C         -28.1438    4.5803   30.4944 C.ar    1  UNL1       -0.0000
     23 C         -28.6417    5.7238   29.8950 C.ar    1  UNL1       -0.0000
     24 C         -27.5190    5.2656   27.8403 C.ar    1  UNL1       -0.0000
     25 C         -28.3177    6.0802   28.6326 C.ar    1  UNL1       -0.0000
     26 O         -25.1806   -1.6194   27.2163 O.2     1  UNL1       -0.2910
     27 C         -30.0725   -0.7060   29.8701 C.2     1  UNL1        0.3878
     28 O         -30.6296    0.0582   29.2764 O.co2   1  UNL1       -0.2406
     29 O         -30.6923   -1.1827   30.9099 O.co2   1  UNL1       -0.2406
     30 C         -28.4374    4.1564   31.8786 C.ar    1  UNL1       -0.0000
     31 C         -27.8679    3.0573   32.3579 C.ar    1  UNL1        0.0000
     32 C         -28.1947    2.6269   33.6627 C.ar    1  UNL1        0.0000
     33 C         -29.2019    3.2877   34.3679 C.ar    1  UNL1        0.0000
     34 C         -29.8119    4.3637   33.8257 C.ar    1  UNL1        0.0000
     35 C         -29.4634    4.8321   32.5460 C.ar    1  UNL1        0.0000
@<TRIPOS>BOND
     1     3     4    1
     2     4     8    1
     3     8     9    1
     4     8    10    1
     5    10    11    1
     6    10    12    1
     7    13    14    1
     8    11    15    2
     9    11    16   am
    10    16    17    1
    11     8    18    1
    12    18    19    2
    13    19    20    1
    14     4    26    2
    15     2    27    1
    16    27    28   ar
    17    27    29   ar
    18    22    30    1
    19     9    14    1
    20    13    12    1
    21    20    21   ar
    22    21    22   ar
    23    22    23   ar
    24    23    25   ar
    25    25    24   ar
    26    24    20   ar
    27    30    31   ar
    28    31    32   ar
    29    32    33   ar
    30    33    34   ar
    31    34    35   ar
    32    35    30   ar
    33     1     2   ar
    34     2     5   ar
    35     5     6   ar
    36     6     7   ar
    37     7     3   ar
    38     3     1   ar
