@<TRIPOS>MOLECULE
No_2612-gen_results/8p0m/2024-11-26-14-13-15/
 9 9 0 0 0
SMALL
GASTEIGER

@<TRIPOS>ATOM
      1 O         -28.1229   -1.3353   28.4874 O.2     1  UNL1       -0.2734
      2 C         -27.4806   -0.4044   28.7094 C.2     1  UNL1        0.2409
      3 C         -27.1904    0.2460   29.5268 C.3     1  UNL1        0.0783
      4 N         -26.6871   -0.0001   27.4423 N.am    1  UNL1       -0.2054
      5 C         -26.3501    1.4331   29.7418 C.3     1  UNL1        0.0109
      6 C         -25.8648    1.0936   27.4148 C.3     1  UNL1        0.1152
      7 C         -25.6589    1.8314   28.5720 C.3     1  UNL1        0.0239
      8 C         -27.8532   -0.1055   30.9653 C.3     1  UNL1        0.0091
      9 C         -28.8979   -0.8604   30.9142 C.3     1  UNL1        0.0005
@<TRIPOS>BOND
     1     1     2    2
     2     2     3    1
     3     2     4   am
     4     4     6    1
     5     5     7    1
     6     3     8    1
     7     8     9    1
     8     3     5    1
     9     7     6    1
