@<TRIPOS>MOLECULE
No_2613-gen_results/8p0m/2024-11-26-14-13-15/
 18 20 0 0 0
SMALL
GASTEIGER

@<TRIPOS>ATOM
      1 C         -28.0162   -0.8135   28.8779 C.ar    1  UNL1       -0.0033
      2 C         -27.0636   -0.1189   28.6079 C.ar    1  UNL1       -0.0046
      3 C         -26.9716    0.7139   27.5060 C.3     1  UNL1        0.1480
      4 C         -25.8206    1.4910   27.1160 C.ar    1  UNL1       -0.0046
      5 C         -25.7505    2.3193   26.0233 C.ar    1  UNL1       -0.0033
      6 C         -24.6040    3.1169   25.8773 C.ar    1  UNL1       -0.0003
      7 C         -23.4495    2.9057   26.6706 C.ar    1  UNL1        0.0001
      8 C         -23.5070    2.0166   27.6858 C.ar    1  UNL1        0.0029
      9 C         -24.6299    1.2559   27.9411 C.ar    1  UNL1        0.0358
     10 C         -27.9866   -1.5823   30.1485 C.ar    1  UNL1       -0.0003
     11 C         -26.7741   -1.8074   30.7851 C.ar    1  UNL1        0.0001
     12 C         -25.6121   -1.2224   30.3408 C.ar    1  UNL1        0.0029
     13 C         -25.6764   -0.3714   29.2589 C.ar    1  UNL1        0.0358
     14 C         -24.5589    0.3809   28.8492 C.2     1  UNL1        0.1950
     15 C         -28.1775    0.9184   26.6925 C.2     1  UNL1        0.3724
     16 O         -28.2955    1.7985   25.9514 O.co2   1  UNL1       -0.2449
     17 O         -29.1246    0.0936   26.9322 O.co2   1  UNL1       -0.2449
     18 O         -23.4777    0.1713   29.5670 O.2     1  UNL1       -0.2866
@<TRIPOS>BOND
     1     2     3    1
     2     3     4    1
     3     9    14    1
     4    13    14    1
     5     3    15    1
     6    15    16   ar
     7    15    17   ar
     8    14    18    2
     9     4     5   ar
    10     5     6   ar
    11     6     7   ar
    12     7     8   ar
    13     8     9   ar
    14     9     4   ar
    15     1     2   ar
    16     2    13   ar
    17    13    12   ar
    18    12    11   ar
    19    11    10   ar
    20    10     1   ar
