@<TRIPOS>MOLECULE
No_2616-gen_results/8p0m/2024-11-26-14-13-15/
 29 30 0 0 0
SMALL
GASTEIGER

@<TRIPOS>ATOM
      1 C         -28.0162   -0.8135   28.8779 C.ar    1  UNL1        0.0045
      2 C         -27.0636   -0.1189   28.6079 C.ar    1  UNL1        0.0001
      3 C         -25.7923   -0.4302   29.0761 C.ar    1  UNL1        0.0000
      4 C         -24.5456    0.3494   28.8225 C.ar    1  UNL1        0.0000
      5 C         -23.2409    0.0217   29.3323 C.ar    1  UNL1        0.0000
      6 C         -27.8820   -1.8995   29.8633 C.ar    1  UNL1        0.0539
      7 C         -26.6706   -2.3272   30.3212 C.ar    1  UNL1        0.0045
      8 C         -25.5433   -1.5852   29.9316 C.ar    1  UNL1        0.0001
      9 C         -22.1918    0.8302   29.0004 C.ar    1  UNL1        0.0000
     10 C         -22.1472    1.7783   28.0287 C.ar    1  UNL1        0.0000
     11 C         -24.5322    1.3987   27.8163 C.ar    1  UNL1        0.0000
     12 C         -23.3620    2.0694   27.4607 C.ar    1  UNL1        0.0000
     13 C         -29.0617   -2.7252   30.3001 C.2     1  UNL1        0.2528
     14 O         -29.0044   -3.9353   30.2807 O.2     1  UNL1       -0.2696
     15 N         -30.1563   -2.1003   30.7402 N.am    1  UNL1       -0.2522
     16 C         -31.3157   -2.8766   31.1792 C.3     1  UNL1        0.1204
     17 C         -30.2485   -0.6680   30.8912 C.2     1  UNL1        0.0678
     18 C         -30.4081   -0.2701   32.2815 C.2     1  UNL1        0.0159
     19 C         -29.6283   -0.6693   33.1302 C.2     1  UNL1       -0.0003
     20 C         -28.3661   -1.0515   33.0071 C.2     1  UNL1        0.0115
     21 C         -27.4340   -1.2673   34.1285 C.3     1  UNL1        0.1929
     22 CL        -28.1891   -1.5485   35.6212 Cl      1  UNL1       -0.0861
     23 N         -26.4851   -0.2404   34.3031 N.pl3   1  UNL1       -0.2171
     24 C         -26.0130    0.3888   33.1626 C.2     1  UNL1        0.0818
     25 C         -25.9606    1.8351   33.2414 C.2     1  UNL1        0.0174
     26 C         -25.3243    2.5651   32.1427 C.2     1  UNL1        0.0014
     27 C         -25.4326    3.9395   32.0232 C.2     1  UNL1        0.0000
     28 C         -25.9885    4.7093   33.0568 C.2     1  UNL1        0.0000
     29 C         -26.5943    4.0175   34.1204 C.2     1  UNL1        0.0000
@<TRIPOS>BOND
     1     3     4    1
     2     6    13    1
     3    13    14    2
     4    13    15   am
     5    15    16    1
     6    15    17    1
     7    17    18    2
     8    18    19    1
     9    19    20    2
    10    20    21    1
    11    21    22    1
    12    21    23    1
    13    23    24    1
    14    24    25    2
    15    25    26    1
    16    26    27    2
    17    27    28    1
    18    28    29    2
    19     1     2   ar
    20     2     3   ar
    21     3     8   ar
    22     8     7   ar
    23     7     6   ar
    24     6     1   ar
    25     4     5   ar
    26     5     9   ar
    27     9    10   ar
    28    10    12   ar
    29    12    11   ar
    30    11     4   ar
