@<TRIPOS>MOLECULE
No_2617-gen_results/8p0m/2024-11-26-14-13-15/
 15 16 0 0 0
SMALL
GASTEIGER

@<TRIPOS>ATOM
      1 C         -28.0162   -0.8135   28.8779 C.ar    1  UNL1       -0.0000
      2 C         -28.4690   -0.7850   29.8287 C.ar    1  UNL1        0.0000
      3 C         -27.1356    0.2359   28.5352 C.ar    1  UNL1       -0.0000
      4 C         -26.8745    1.2825   29.3982 C.ar    1  UNL1       -0.0000
      5 C         -27.5070    1.2380   30.6295 C.ar    1  UNL1        0.0000
      6 C         -28.3293    0.1745   30.9350 C.ar    1  UNL1        0.0000
      7 C         -26.4409    0.0880   27.2474 C.ar    1  UNL1       -0.0000
      8 C         -26.9306    0.6938   26.0589 C.ar    1  UNL1       -0.0000
      9 C         -25.1027   -0.4086   27.1966 C.ar    1  UNL1       -0.0003
     10 C         -26.3345    0.3878   24.8582 C.ar    1  UNL1       -0.0000
     11 C         -24.5083   -0.8844   28.5081 C.2     1  UNL1       -0.0046
     12 C         -24.9788   -0.1297   24.8835 C.ar    1  UNL1       -0.0000
     13 C         -24.4248   -0.4656   26.0345 C.ar    1  UNL1       -0.0000
     14 C         -23.4095   -0.0545   28.9650 C.2     1  UNL1       -0.0258
     15 C         -22.7167   -0.5452   30.0906 C.3     1  UNL1        0.0307
@<TRIPOS>BOND
     1     3     7    1
     2     9    11    1
     3    11    14    2
     4    14    15    1
     5     1     2   ar
     6     2     6   ar
     7     6     5   ar
     8     5     4   ar
     9     4     3   ar
    10     3     1   ar
    11     7     8   ar
    12     8    10   ar
    13    10    12   ar
    14    12    13   ar
    15    13     9   ar
    16     9     7   ar
