@<TRIPOS>MOLECULE
No_2619-gen_results/8p0m/2024-11-26-14-13-15/
 8 8 0 0 0
SMALL
GASTEIGER

@<TRIPOS>ATOM
      1 C         -28.0162   -0.8135   28.8779 C.2     1  UNL1        0.0304
      2 C         -27.0636   -0.1190   28.6079 C.3     1  UNL1        0.0329
      3 C         -25.7923   -0.4302   29.0761 C.3     1  UNL1        0.0051
      4 C         -25.5314   -1.5876   29.6105 C.3     1  UNL1        0.0007
      5 C         -29.3079   -0.2131   28.8674 C.1     1  UNL1        0.1246
      6 C         -26.6323   -2.4228   29.9748 C.3     1  UNL1        0.0051
      7 C         -27.8369   -1.9703   29.6537 C.3     1  UNL1        0.0329
      8 O         -29.6290    0.8598   29.2526 O.2     1  UNL1       -0.2318
@<TRIPOS>BOND
     1     1     2    1
     2     2     3    1
     3     3     4    1
     4     1     5    2
     5     4     6    1
     6     1     7    1
     7     6     7    1
     8     5     8    2
