@<TRIPOS>MOLECULE
No_262-gen_results/8p0m/2024-11-26-14-13-15/
 12 12 0 0 0
SMALL
GASTEIGER

@<TRIPOS>ATOM
      1 C         -28.0162   -0.8135   28.8779 C.ar    1  UNL1        0.0166
      2 C         -28.4690   -0.7850   29.8287 C.ar    1  UNL1        0.0734
      3 C         -26.5042   -0.7777   28.8766 C.ar    1  UNL1        0.0013
      4 C         -25.8103   -0.8531   30.1028 C.ar    1  UNL1        0.0001
      5 C         -27.9906   -0.8916   31.2257 C.ar    1  UNL1        0.0166
      6 C         -26.6042   -0.8676   31.2652 C.ar    1  UNL1        0.0013
      7 N         -29.9765   -0.8288   29.8497 N.am    1  UNL1       -0.1785
      8 C         -30.5795   -0.1232   28.9820 C.2     1  UNL1        0.2558
      9 O         -30.0432    0.5770   28.2959 O.2     1  UNL1       -0.2721
     10 C         -32.0822   -0.3796   28.9957 C.3     1  UNL1        0.1352
     11 BR        -33.0276   -1.6530   29.2990 Br      1  UNL1       -0.0718
     12 C         -32.6497    0.4016   27.6848 C.3     1  UNL1        0.0221
@<TRIPOS>BOND
     1     2     7    1
     2     7     8   am
     3     8     9    2
     4     8    10    1
     5    10    11    1
     6    10    12    1
     7     1     2   ar
     8     2     5   ar
     9     5     6   ar
    10     6     4   ar
    11     4     3   ar
    12     3     1   ar
