@<TRIPOS>MOLECULE
No_2620-gen_results/8p0m/2024-11-26-14-13-15/
 14 15 0 0 0
SMALL
GASTEIGER

@<TRIPOS>ATOM
      1 C         -28.0162   -0.8135   28.8779 C.3     1  UNL1        0.1385
      2 C         -27.0636   -0.1189   28.6079 C.ar    1  UNL1       -0.0007
      3 C         -27.0010    0.6913   27.4910 C.ar    1  UNL1       -0.0026
      4 C         -25.8548    1.4825   27.0830 C.ar    1  UNL1       -0.0003
      5 C         -24.6901    1.4526   27.8807 C.ar    1  UNL1       -0.0000
      6 C         -24.7379    0.6010   29.0416 C.ar    1  UNL1       -0.0003
      7 C         -25.8234   -0.1688   29.3887 C.ar    1  UNL1       -0.0026
      8 N         -27.9524   -1.6294   30.0643 N.pl3   1  UNL1       -0.2328
      9 C         -29.0363   -2.3695   30.4865 C.ar    1  UNL1        0.0657
     10 C         -28.7283   -3.6343   31.2330 C.ar    1  UNL1        0.0161
     11 C         -29.6630   -4.0177   32.0688 C.ar    1  UNL1        0.0013
     12 C         -30.9409   -3.4345   32.1535 C.ar    1  UNL1        0.0001
     13 C         -31.1744   -2.2455   31.5311 C.ar    1  UNL1        0.0013
     14 C         -30.1195   -1.6374   30.7852 C.ar    1  UNL1        0.0161
@<TRIPOS>BOND
     1     1     2    1
     2     1     8    1
     3     8     9    1
     4     2     3   ar
     5     3     4   ar
     6     4     5   ar
     7     5     6   ar
     8     6     7   ar
     9     7     2   ar
    10     9    10   ar
    11    10    11   ar
    12    11    12   ar
    13    12    13   ar
    14    13    14   ar
    15    14     9   ar
