@<TRIPOS>MOLECULE
No_2621-gen_results/8p0m/2024-11-26-14-13-15/
 17 19 0 0 0
SMALL
GASTEIGER

@<TRIPOS>ATOM
      1 C         -28.0162   -0.8135   28.8779 C.ar    1  UNL1       -0.0000
      2 C         -28.4690   -0.7850   29.8287 C.ar    1  UNL1       -0.0000
      3 C         -28.1816    0.4277   28.1134 C.ar    1  UNL1       -0.0003
      4 C         -27.4498    0.6435   26.8500 C.ar    1  UNL1       -0.0040
      5 C         -26.1815    0.0357   26.7145 C.2     1  UNL1       -0.0003
      6 C         -25.2987    0.1871   27.5499 C.2     1  UNL1       -0.0000
      7 C         -23.9032    0.2113   27.2890 C.2     1  UNL1       -0.0000
      8 C         -23.0352    0.1096   28.5071 C.2     1  UNL1       -0.0000
      9 C         -23.6163   -0.1343   29.7558 C.2     1  UNL1       -0.0000
     10 C         -25.4033   -0.1633   29.0646 C.2     1  UNL1       -0.0000
     11 C         -29.5205    0.0783   30.3375 C.ar    1  UNL1       -0.0000
     12 C         -29.1428    1.3007   28.4903 C.ar    1  UNL1       -0.0000
     13 C         -29.7789    1.1472   29.6411 C.ar    1  UNL1       -0.0000
     14 C         -28.0759    1.4117   25.8511 C.ar    1  UNL1       -0.0218
     15 C         -28.1947    0.8010   24.5795 C.3     1  UNL1        0.0310
     16 C         -29.3848    2.0446   26.2202 C.ar    1  UNL1       -0.0043
     17 C         -29.6219    2.1806   27.4824 C.ar    1  UNL1       -0.0003
@<TRIPOS>BOND
     1     4     5    1
     2     5     6    2
     3     6     7    1
     4     7     8    2
     5     8     9    1
     6     6    10    1
     7     9    10    2
     8    14    15    1
     9     1     2   ar
    10     2    11   ar
    11    11    13   ar
    12    13    12   ar
    13     3     1   ar
    14     3     4   ar
    15     4    14   ar
    16    14    16   ar
    17    16    17   ar
    18    17    12   ar
    19    12     3   ar
