@<TRIPOS>MOLECULE
No_2622-gen_results/8p0m/2024-11-26-14-13-15/
 28 31 0 0 0
SMALL
GASTEIGER

@<TRIPOS>ATOM
      1 C         -28.0162   -0.8135   28.8779 C.ar    1  UNL1        0.0369
      2 C         -27.0636   -0.1190   28.6079 C.ar    1  UNL1        0.0031
      3 C         -25.7923   -0.4302   29.0761 C.ar    1  UNL1        0.0002
      4 C         -24.5456    0.3494   28.8225 C.ar    1  UNL1        0.0000
      5 C         -23.2409    0.0217   29.3323 C.ar    1  UNL1        0.0000
      6 C         -22.1362    0.7695   29.0059 C.ar    1  UNL1        0.0000
      7 C         -27.9050   -1.8984   29.8729 C.ar    1  UNL1        0.1396
      8 C         -26.6795   -2.3145   30.3184 C.ar    1  UNL1        0.0369
      9 C         -25.5203   -1.5564   29.9775 C.ar    1  UNL1        0.0031
     10 C         -22.1155    1.7338   28.0257 C.ar    1  UNL1        0.0000
     11 C         -24.5222    1.3908   27.7909 C.ar    1  UNL1        0.0000
     12 C         -23.3248    2.0519   27.4472 C.ar    1  UNL1        0.0000
     13 O         -28.9733   -2.6520   30.2412 O.3     1  UNL1       -0.4655
     14 C         -30.1200   -2.0879   30.6039 C.3     1  UNL1        0.2635
     15 C         -31.1683   -2.7680   30.1482 C.2     1  UNL1        0.2703
     16 O         -31.1408   -3.9020   29.9239 O.2     1  UNL1       -0.2706
     17 N         -32.1790   -2.0378   29.4088 N.am    1  UNL1       -0.2763
     18 C         -33.2299   -2.6414   28.6858 C.3     1  UNL1        0.0935
     19 C         -31.6987   -0.7831   28.8114 C.3     1  UNL1        0.0935
     20 C         -32.2911   -0.4446   27.6803 C.3     1  UNL1        0.0216
     21 C         -33.4211   -1.1711   27.3787 C.3     1  UNL1        0.0035
     22 C         -33.8951   -2.2039   27.7307 C.3     1  UNL1        0.0216
     23 C         -30.2078   -2.0036   32.1749 C.ar    1  UNL1        0.0262
     24 C         -31.2218   -1.5184   32.6908 C.ar    1  UNL1       -0.0003
     25 C         -31.3074   -1.5039   34.0447 C.ar    1  UNL1       -0.0002
     26 C         -30.2264   -1.7992   34.8625 C.ar    1  UNL1       -0.0000
     27 C         -29.0314   -2.2489   34.2829 C.ar    1  UNL1       -0.0002
     28 C         -28.9562   -2.3295   32.8688 C.ar    1  UNL1       -0.0003
@<TRIPOS>BOND
     1     3     4    1
     2     7    13    1
     3    13    14    1
     4    14    15    1
     5    15    16    2
     6    15    17   am
     7    17    18    1
     8    17    19    1
     9    20    21    1
    10    18    22    1
    11    14    23    1
    12    22    21    1
    13    20    19    1
    14    23    24   ar
    15    24    25   ar
    16    25    26   ar
    17    26    27   ar
    18    27    28   ar
    19    28    23   ar
    20     1     2   ar
    21     2     3   ar
    22     3     9   ar
    23     9     8   ar
    24     8     7   ar
    25     7     1   ar
    26     4     5   ar
    27     5     6   ar
    28     6    10   ar
    29    10    12   ar
    30    12    11   ar
    31    11     4   ar
