@<TRIPOS>MOLECULE
No_2623-gen_results/8p0m/2024-11-26-14-13-15/
 35 37 0 0 0
SMALL
GASTEIGER

@<TRIPOS>ATOM
      1 C         -28.0162   -0.8135   28.8779 C.ar    1  UNL1       -0.0055
      2 C         -28.4690   -0.7850   29.8287 C.ar    1  UNL1        0.0070
      3 C         -28.1816    0.4277   28.1134 C.ar    1  UNL1       -0.0105
      4 C         -28.9841    1.4155   28.5154 C.ar    1  UNL1       -0.0037
      5 C         -29.3802    0.1384   30.4612 C.ar    1  UNL1       -0.0019
      6 C         -29.5415    1.2736   29.7242 C.ar    1  UNL1       -0.0006
      7 C         -27.4586    0.4934   26.7701 C.3     1  UNL1        0.1396
      8 C         -26.0264    0.3840   26.7617 C.ar    1  UNL1       -0.0103
      9 C         -25.2370    0.2056   27.9261 C.ar    1  UNL1        0.0002
     10 C         -23.8683    0.2883   27.8607 C.ar    1  UNL1        0.0711
     11 C         -23.2742    0.9710   26.8042 C.ar    1  UNL1        0.0038
     12 C         -24.0368    1.4183   25.7266 C.ar    1  UNL1       -0.0004
     13 C         -25.3854    1.1654   25.6866 C.ar    1  UNL1       -0.0037
     14 C         -28.1918    0.3603   25.6210 C.3     1  UNL1        0.4048
     15 F         -29.5007    0.4556   25.8191 F       1  UNL1       -0.1693
     16 F         -27.8889   -0.7611   24.9709 F       1  UNL1       -0.1693
     17 F         -27.9138    1.4157   24.7647 F       1  UNL1       -0.1693
     18 C         -23.0284   -0.0157   29.0355 C.3     1  UNL1        0.4186
     19 F         -23.4273    0.0071   30.0899 F       1  UNL1       -0.1659
     20 F         -21.8378    0.7521   28.9050 F       1  UNL1       -0.1659
     21 F         -22.6073   -1.3215   28.7763 F       1  UNL1       -0.1659
     22 C         -28.2851   -2.0987   30.8045 C.3     1  UNL1        0.1686
     23 O         -28.8423   -3.1175   30.4041 O.3     1  UNL1       -0.3475
     24 C         -29.7771   -3.6819   31.0480 C.3     1  UNL1        0.1600
     25 C         -30.3409   -4.7331   30.2713 C.3     1  UNL1        0.2044
     26 O         -30.3822   -5.8365   30.7845 O.2     1  UNL1       -0.4734
     27 C         -29.9866   -6.1151   31.8911 C.2     1  UNL1        0.1677
     28 C         -30.7697   -4.4945   28.9657 C.3     1  UNL1        0.1599
     29 C         -31.9970   -3.8094   28.7890 C.2     1  UNL1        0.3686
     30 O         -32.1233   -3.2554   27.6405 O.co2   1  UNL1       -0.2455
     31 C         -29.7486   -5.3047   32.9219 C.2     1  UNL1        0.0161
     32 C         -30.0898   -4.0608   32.6048 C.3     1  UNL1        0.0560
     33 O         -32.7801   -3.6115   29.6586 O.co2   1  UNL1       -0.2455
     34 C         -31.3546   -3.3772   32.9585 C.3     1  UNL1        0.0070
     35 C         -31.2069   -2.1421   33.5181 C.3     1  UNL1        0.0004
@<TRIPOS>BOND
     1     3     7    1
     2     7    14    1
     3    14    15    1
     4    14    16    1
     5    14    17    1
     6    10    18    1
     7    18    19    1
     8    18    20    1
     9    18    21    1
    10     2    22    1
    11    22    23    1
    12    23    24    1
    13    24    25    1
    14    25    26    1
    15    26    27    1
    16    25    28    1
    17    28    29    1
    18    29    30   ar
    19    27    31    2
    20    24    32    1
    21    31    32    1
    22    29    33   ar
    23    32    34    1
    24    34    35    1
    25     7     8    1
    26     8     9   ar
    27     9    10   ar
    28    10    11   ar
    29    11    12   ar
    30    12    13   ar
    31    13     8   ar
    32     1     2   ar
    33     2     5   ar
    34     5     6   ar
    35     6     4   ar
    36     4     3   ar
    37     3     1   ar
