@<TRIPOS>MOLECULE
No_2624-gen_results/8p0m/2024-11-26-14-13-15/
 28 30 0 0 0
SMALL
GASTEIGER

@<TRIPOS>ATOM
      1 O         -28.1229   -1.3353   28.4874 O.2     1  UNL1       -0.2744
      2 C         -28.5208   -0.4363   29.0779 C.2     1  UNL1        0.2326
      3 C         -28.5894    0.5916   28.9464 C.3     1  UNL1        0.1383
      4 N         -29.1246   -0.9399   30.4266 N.am    1  UNL1       -0.2786
      5 C         -29.2955    1.6366   29.4337 C.3     1  UNL1        0.0187
      6 C         -29.7997    0.0136   31.1592 C.3     1  UNL1        0.0934
      7 C         -29.8824    1.2875   30.7463 C.3     1  UNL1        0.0224
      8 C         -27.9295    1.0222   27.5316 C.2     1  UNL1        0.1813
      9 C         -26.4912    0.8903   27.4799 C.ar    1  UNL1        0.0352
     10 C         -25.8243    0.4922   28.3786 C.ar    1  UNL1        0.0026
     11 C         -24.3216    0.4341   28.2786 C.ar    1  UNL1       -0.0030
     12 C         -23.7621    0.9621   27.1292 C.ar    1  UNL1       -0.0003
     13 C         -24.5547    1.4591   26.1141 C.ar    1  UNL1        0.0001
     14 C         -25.9429    1.4981   26.2623 C.ar    1  UNL1        0.0029
     15 C         -23.4574   -0.0769   29.3366 C.2     1  UNL1       -0.0077
     16 C         -22.2714   -0.3871   29.1441 C.2     1  UNL1       -0.0037
     17 C         -21.5131   -0.9969   30.2247 C.2     1  UNL1       -0.0040
     18 C         -22.2197   -1.1344   31.3856 C.2     1  UNL1       -0.0108
     19 C         -23.8650   -0.4410   30.6931 C.3     1  UNL1        0.1475
     20 C         -28.9672   -2.3011   30.9093 C.3     1  UNL1        0.1052
     21 C         -29.6599   -3.1902   30.1225 C.3     1  UNL1        0.1355
     22 C         -31.0141   -3.2208   30.2625 C.2     1  UNL1        0.3666
     23 O         -31.3775   -3.5455   31.2202 O.co2   1  UNL1       -0.2456
     24 O         -31.6942   -2.8955   29.2322 O.co2   1  UNL1       -0.2456
     25 C         -24.9286   -0.4003   31.5052 C.2     1  UNL1        0.3724
     26 O         -25.6889   -1.4062   31.5086 O.co2   1  UNL1       -0.2449
     27 O         -25.2805    0.7651   32.0310 O.co2   1  UNL1       -0.2449
     28 O         -28.6753    1.4156   26.6069 O.2     1  UNL1       -0.2908
@<TRIPOS>BOND
     1     1     2    2
     2     2     3    1
     3     2     4   am
     4     4     6    1
     5     5     7    1
     6     3     8    1
     7     8     9    1
     8    11    15    1
     9    15    16    2
    10    16    17    1
    11    17    18    2
    12    15    19    1
    13    18    19    1
    14     4    20    1
    15    20    21    1
    16    21    22    1
    17    22    23   ar
    18    22    24   ar
    19    19    25    1
    20    25    26   ar
    21    25    27   ar
    22     8    28    2
    23     3     5    1
    24     7     6    1
    25     9    10   ar
    26    10    11   ar
    27    11    12   ar
    28    12    13   ar
    29    13    14   ar
    30    14     9   ar
