@<TRIPOS>MOLECULE
No_2625-gen_results/8p0m/2024-11-26-14-13-15/
 15 16 0 0 0
SMALL
GASTEIGER

@<TRIPOS>ATOM
      1 C         -28.0162   -0.8135   28.8779 C.ar    1  UNL1       -0.0000
      2 C         -27.0636   -0.1189   28.6079 C.ar    1  UNL1       -0.0003
      3 C         -26.9716    0.7139   27.5060 C.ar    1  UNL1       -0.0040
      4 C         -28.1053    0.7744   26.6421 C.ar    1  UNL1       -0.0225
      5 C         -29.2041    0.1179   27.0477 C.ar    1  UNL1       -0.0043
      6 C         -29.2127   -0.6088   28.1281 C.ar    1  UNL1       -0.0003
      7 C         -25.7106    1.4518   27.1380 C.ar    1  UNL1       -0.0003
      8 C         -25.2074    2.4128   27.9320 C.ar    1  UNL1       -0.0000
      9 C         -24.2878    2.8213   28.1828 C.ar    1  UNL1       -0.0000
     10 C         -23.0796    2.2449   27.3693 C.ar    1  UNL1       -0.0000
     11 C         -23.4280    1.2098   26.5252 C.ar    1  UNL1       -0.0000
     12 C         -24.6823    0.7243   26.4558 C.ar    1  UNL1       -0.0000
     13 C         -27.9914    1.6099   25.4422 C.3     1  UNL1        0.0224
     14 C         -28.3255    2.9300   25.6002 C.3     1  UNL1        0.0047
     15 C         -27.6872    0.9774   24.2224 C.3     1  UNL1        0.0047
@<TRIPOS>BOND
     1     3     7    1
     2     4    13    1
     3    13    14    1
     4    13    15    1
     5     1     2   ar
     6     2     3   ar
     7     3     4   ar
     8     4     5   ar
     9     5     6   ar
    10     6     1   ar
    11     7     8   ar
    12     8     9   ar
    13     9    10   ar
    14    10    11   ar
    15    11    12   ar
    16    12     7   ar
