@<TRIPOS>MOLECULE
No_2626-gen_results/8p0m/2024-11-26-14-13-15/
 12 12 0 0 0
SMALL
GASTEIGER

@<TRIPOS>ATOM
      1 C         -28.0162   -0.8135   28.8779 C.ar    1  UNL1        0.0512
      2 C         -28.4690   -0.7850   29.8287 C.ar    1  UNL1        0.0609
      3 C         -26.5042   -0.7777   28.8766 C.ar    1  UNL1        0.1735
      4 C         -25.8103   -0.8531   30.1028 C.ar    1  UNL1        0.1744
      5 C         -27.9906   -0.8916   31.2257 C.ar    1  UNL1        0.0139
      6 C         -26.6042   -0.8676   31.2652 C.ar    1  UNL1        0.0337
      7 CL        -30.2937   -0.8377   29.8355 Cl      1  UNL1       -0.0821
      8 F         -24.5212   -0.8001   30.1215 F       1  UNL1       -0.2009
      9 O         -25.5405   -0.7882   27.8844 O.3     1  UNL1       -0.4485
     10 C         -25.7078    0.2130   26.9483 C.2     1  UNL1        0.1751
     11 C         -24.8789    0.7943   26.6244 C.2     1  UNL1        0.0148
     12 C         -25.0035    1.7928   25.4850 C.3     1  UNL1        0.0341
@<TRIPOS>BOND
     1     2     7    1
     2     4     8    1
     3     3     9    1
     4     9    10    1
     5    10    11    2
     6    11    12    1
     7     1     2   ar
     8     2     5   ar
     9     5     6   ar
    10     6     4   ar
    11     4     3   ar
    12     3     1   ar
