@<TRIPOS>MOLECULE
No_2627-gen_results/8p0m/2024-11-26-14-13-15/
 17 19 0 0 0
SMALL
GASTEIGER

@<TRIPOS>ATOM
      1 C         -28.0162   -0.8135   28.8779 C.ar    1  UNL1        0.0813
      2 C         -27.0636   -0.1189   28.6079 C.ar    1  UNL1        0.0177
      3 C         -25.7923   -0.4302   29.0761 C.ar    1  UNL1        0.0016
      4 C         -24.5456    0.3494   28.8225 C.ar    1  UNL1        0.0039
      5 C         -24.6586    1.4196   27.8878 C.ar    1  UNL1        0.0476
      6 C         -25.9471    1.6811   27.3792 C.ar    1  UNL1        0.0039
      7 C         -27.0439    0.9739   27.6871 C.ar    1  UNL1        0.0016
      8 N         -29.1882   -0.1472   29.0918 N.ar    1  UNL1       -0.2438
      9 C         -30.2017   -0.7833   29.7303 C.ar    1  UNL1        0.0988
     10 C         -23.4507    2.1524   27.6005 C.2     1  UNL1        0.2416
     11 N         -22.2617    1.7464   28.0912 N.2     1  UNL1       -0.1156
     12 F         -23.5272    2.9973   26.6826 F       1  UNL1       -0.1815
     13 C         -29.9448   -2.0186   30.2980 C.ar    1  UNL1        0.0207
     14 C         -28.7216   -2.6236   30.2916 C.ar    1  UNL1        0.0031
     15 C         -27.6963   -1.9378   29.7603 C.ar    1  UNL1        0.0177
     16 C         -26.2705   -2.1704   29.7894 C.ar    1  UNL1        0.0015
     17 C         -25.1221   -1.9922   29.2153 C.ar    1  UNL1        0.0001
@<TRIPOS>BOND
     1     5    10    1
     2    10    11    2
     3    10    12    1
     4     1     8   ar
     5     8     9   ar
     6     9    13   ar
     7    13    14   ar
     8    14    15   ar
     9     1     2   ar
    10     3    17   ar
    11    17    16   ar
    12    16    15   ar
    13    15     1   ar
    14     2     3   ar
    15     3     4   ar
    16     4     5   ar
    17     5     6   ar
    18     6     7   ar
    19     7     2   ar
