@<TRIPOS>MOLECULE
No_2628-gen_results/8p0m/2024-11-26-14-13-15/
 21 22 0 0 0
SMALL
GASTEIGER

@<TRIPOS>ATOM
      1 C         -28.0162   -0.8135   28.8779 C.2     1  UNL1        0.2648
      2 C         -27.0636   -0.1190   28.6079 C.ar    1  UNL1        0.0550
      3 C         -25.7923   -0.4302   29.0761 C.ar    1  UNL1        0.0047
      4 C         -24.5456    0.3494   28.8225 C.ar    1  UNL1        0.0048
      5 C         -24.6586    1.4196   27.8878 C.ar    1  UNL1        0.0567
      6 C         -25.9471    1.6811   27.3792 C.ar    1  UNL1        0.0048
      7 C         -27.0439    0.9739   27.6871 C.ar    1  UNL1        0.0047
      8 N         -27.9517   -1.7518   29.9375 N.am    1  UNL1       -0.2017
      9 O         -29.1984   -0.5344   28.5255 O.2     1  UNL1       -0.2684
     10 C         -29.0453   -2.5720   30.4456 C.3     1  UNL1        0.1158
     11 C         -23.4612    2.1665   27.5992 C.2     1  UNL1        0.2842
     12 N         -22.2719    1.7475   28.0628 N.am    1  UNL1       -0.0837
     13 O         -23.5406    3.0820   26.7223 O.2     1  UNL1       -0.2667
     14 C         -29.8174   -3.0554   29.7470 C.3     1  UNL1        0.0281
     15 C         -30.6843   -4.1614   30.3736 C.3     1  UNL1        0.0282
     16 C         -31.6377   -4.7662   29.5939 C.ar    1  UNL1       -0.0221
     17 C         -31.3275   -5.8715   28.9402 C.ar    1  UNL1       -0.0043
     18 C         -32.9062   -4.1801   29.3031 C.ar    1  UNL1       -0.0043
     19 C         -32.0458   -6.4916   27.8653 C.ar    1  UNL1       -0.0003
     20 C         -33.7418   -4.7796   28.3324 C.ar    1  UNL1       -0.0003
     21 C         -33.2978   -5.9417   27.6694 C.ar    1  UNL1       -0.0000
@<TRIPOS>BOND
     1     1     2    1
     2     1     8   am
     3     1     9    2
     4     8    10    1
     5     5    11    1
     6    11    12   am
     7    11    13    2
     8    10    14    1
     9    14    15    1
    10    15    16    1
    11     2     3   ar
    12     3     4   ar
    13     4     5   ar
    14     5     6   ar
    15     6     7   ar
    16     7     2   ar
    17    16    17   ar
    18    17    19   ar
    19    19    21   ar
    20    21    20   ar
    21    20    18   ar
    22    18    16   ar
