@<TRIPOS>MOLECULE
No_263-gen_results/8p0m/2024-11-26-14-13-15/
 13 14 0 0 0
SMALL
GASTEIGER

@<TRIPOS>ATOM
      1 C         -28.0162   -0.8135   28.8779 C.ar    1  UNL1        0.0016
      2 C         -28.4690   -0.7850   29.8287 C.ar    1  UNL1        0.0000
      3 C         -27.1356    0.2359   28.5352 C.ar    1  UNL1        0.0200
      4 C         -26.8745    1.2825   29.3982 C.ar    1  UNL1        0.0016
      5 C         -28.3613    0.1987   30.9244 C.ar    1  UNL1        0.0000
      6 C         -27.5277    1.2234   30.6356 C.ar    1  UNL1        0.0000
      7 C         -26.3879    0.2914   27.2334 C.ar    1  UNL1        0.1119
      8 N         -25.3397    0.0456   27.1371 N.ar    1  UNL1       -0.2217
      9 C         -27.1702    0.6456   26.0418 C.ar    1  UNL1        0.1767
     10 C         -26.9367    0.6652   25.0556 C.ar    1  UNL1        0.1318
     11 C         -24.6494    0.1565   25.8902 C.ar    1  UNL1        0.1990
     12 N         -25.4384    0.4229   24.8077 N.ar    1  UNL1       -0.2200
     13 F         -28.6097    0.6913   26.4188 F       1  UNL1       -0.2009
@<TRIPOS>BOND
     1     3     7    1
     2     9    13    1
     3     7     8   ar
     4     8    11   ar
     5    11    12   ar
     6    12    10   ar
     7    10     9   ar
     8     9     7   ar
     9     1     2   ar
    10     2     5   ar
    11     5     6   ar
    12     6     4   ar
    13     4     3   ar
    14     3     1   ar
