@<TRIPOS>MOLECULE
No_2630-gen_results/8p0m/2024-11-26-14-13-15/
 18 18 0 0 0
SMALL
GASTEIGER

@<TRIPOS>ATOM
      1 C         -28.0162   -0.8135   28.8779 C.3     1  UNL1        0.1556
      2 C         -27.0636   -0.1189   28.6079 C.ar    1  UNL1        0.0022
      3 C         -26.8756    1.1325   28.9134 C.ar    1  UNL1       -0.0021
      4 C         -25.6883    1.9515   28.5672 C.ar    1  UNL1        0.0074
      5 C         -24.6394    1.2834   27.8753 C.ar    1  UNL1        0.0904
      6 C         -24.8068   -0.0513   27.6040 C.ar    1  UNL1        0.0074
      7 C         -25.9019   -0.7670   27.9511 C.ar    1  UNL1       -0.0021
      8 N         -28.7095   -0.5833   30.0504 N.2     1  UNL1       -0.2248
      9 C         -23.4625    1.9806   27.4675 C.2     1  UNL1        0.4130
     10 N         -22.2577    1.6344   27.6706 N.pl3   1  UNL1       -0.0276
     11 N         -23.6566    3.0332   26.6012 N.2     1  UNL1        0.1971
     12 C         -29.4607   -0.8903   30.6766 C.2     1  UNL1        0.2956
     13 N         -29.9161   -0.3319   31.9171 N.pl3   1  UNL1       -0.1680
     14 F         -29.7562   -2.1681   30.6889 F       1  UNL1       -0.1643
     15 C         -21.9030    0.7871   28.6993 C.3     1  UNL1        0.2515
     16 C         -21.6395   -0.5294   28.4931 C.3     1  UNL1        0.0598
     17 C         -29.7265    0.9931   32.0761 C.2     1  UNL1        0.0896
     18 C         -29.0113    1.4259   31.4349 C.2     1  UNL1        0.0193
@<TRIPOS>BOND
     1     1     8    1
     2     5     9    1
     3     9    10    1
     4     9    11    2
     5     8    12    2
     6    12    13    1
     7    12    14    1
     8    10    15    1
     9    15    16    1
    10    13    17    1
    11    17    18    2
    12     1     2    1
    13     2     3   ar
    14     3     4   ar
    15     4     5   ar
    16     5     6   ar
    17     6     7   ar
    18     7     2   ar
