@<TRIPOS>MOLECULE
No_2631-gen_results/8p0m/2024-11-26-14-13-15/
 25 27 0 0 0
SMALL
GASTEIGER

@<TRIPOS>ATOM
      1 C         -28.0162   -0.8135   28.8779 C.ar    1  UNL1        0.0023
      2 C         -28.4690   -0.7850   29.8287 C.ar    1  UNL1        0.0795
      3 C         -27.1356    0.2359   28.5352 C.ar    1  UNL1       -0.0217
      4 C         -26.3351    0.2900   27.2835 C.3     1  UNL1        0.0307
      5 C         -28.2789    0.0305   30.6941 C.ar    1  UNL1        0.0066
      6 C         -27.4578    1.1551   30.6624 C.ar    1  UNL1       -0.0001
      7 C         -26.7863    1.2369   29.4971 C.ar    1  UNL1       -0.0043
      8 C         -26.8376    0.5104   26.2518 C.3     1  UNL1        0.0267
      9 C         -28.1889    0.8707   26.0877 C.ar    1  UNL1       -0.0222
     10 C         -28.7395    0.9055   24.7521 C.ar    1  UNL1       -0.0043
     11 C         -30.0797    1.2984   24.5705 C.ar    1  UNL1       -0.0003
     12 C         -30.7256    1.4807   25.3142 C.ar    1  UNL1       -0.0000
     13 C         -30.3883    1.4818   26.7583 C.ar    1  UNL1       -0.0003
     14 C         -29.1038    1.2221   27.0697 C.ar    1  UNL1       -0.0043
     15 C         -25.9897    0.8556   25.0966 C.3     1  UNL1        0.0050
     16 C         -24.9619   -0.1520   27.4970 C.3     1  UNL1        0.0310
     17 C         -24.4684   -0.7106   28.6960 C.ar    1  UNL1       -0.0218
     18 C         -24.5390   -1.7561   29.0640 C.ar    1  UNL1       -0.0043
     19 C         -23.8707   -2.2215   30.3281 C.ar    1  UNL1       -0.0003
     20 C         -23.3670   -1.2050   31.1845 C.ar    1  UNL1       -0.0000
     21 C         -23.7673    0.3697   29.5480 C.ar    1  UNL1       -0.0043
     22 C         -23.3242    0.1028   30.7737 C.ar    1  UNL1       -0.0003
     23 C         -29.5078   -1.9623   30.1854 C.2     1  UNL1        0.3877
     24 O         -30.5947   -1.9191   30.3192 O.co2   1  UNL1       -0.2406
     25 O         -28.8983   -3.1860   30.2991 O.co2   1  UNL1       -0.2406
@<TRIPOS>BOND
     1     3     4    1
     2     4     8    1
     3     8     9    1
     4     8    15    1
     5     4    16    1
     6    16    17    1
     7     2    23    1
     8    23    24   ar
     9    23    25   ar
    10     9    10   ar
    11    10    11   ar
    12    11    12   ar
    13    12    13   ar
    14    13    14   ar
    15    14     9   ar
    16    17    18   ar
    17    18    19   ar
    18    19    20   ar
    19    20    22   ar
    20    22    21   ar
    21    21    17   ar
    22     1     2   ar
    23     2     5   ar
    24     5     6   ar
    25     6     7   ar
    26     7     3   ar
    27     3     1   ar
