@<TRIPOS>MOLECULE
No_2632-gen_results/8p0m/2024-11-26-14-13-15/
 11 11 0 0 0
SMALL
GASTEIGER

@<TRIPOS>ATOM
      1 CL        -28.1493   -0.8198   28.9079 Cl      1  UNL1       -0.0822
      2 C         -26.9116   -0.0797   28.9452 C.ar    1  UNL1        0.0577
      3 C         -26.0490   -0.0718   27.8591 C.ar    1  UNL1        0.0113
      4 C         -24.6574   -0.0370   27.9638 C.ar    1  UNL1        0.0047
      5 C         -24.0330    0.3795   29.2055 C.ar    1  UNL1        0.0715
      6 C         -22.6223    0.4812   29.3594 C.3     1  UNL1        0.4186
      7 C         -24.8488    0.6435   30.3921 C.ar    1  UNL1        0.0047
      8 C         -26.2277    0.2138   30.2541 C.ar    1  UNL1        0.0113
      9 F         -22.1962    0.8976   30.3663 F       1  UNL1       -0.1659
     10 F         -21.9996   -0.7209   29.0362 F       1  UNL1       -0.1659
     11 F         -22.1277    1.3207   28.3637 F       1  UNL1       -0.1659
@<TRIPOS>BOND
     1     1     2    1
     2     5     6    1
     3     6     9    1
     4     6    10    1
     5     6    11    1
     6     2     3   ar
     7     3     4   ar
     8     4     5   ar
     9     5     7   ar
    10     7     8   ar
    11     8     2   ar
