@<TRIPOS>MOLECULE
No_2635-gen_results/8p0m/2024-11-26-14-13-15/
 17 18 0 0 0
SMALL
GASTEIGER

@<TRIPOS>ATOM
      1 C         -28.0162   -0.8135   28.8779 C.ar    1  UNL1        0.0027
      2 C         -28.4690   -0.7850   29.8287 C.ar    1  UNL1        0.0001
      3 C         -28.1960    0.3478   28.0550 C.ar    1  UNL1        0.0309
      4 C         -29.0191    1.3501   28.3782 C.ar    1  UNL1       -0.0149
      5 C         -29.4107    0.1803   30.3782 C.ar    1  UNL1       -0.0003
      6 C         -29.6059    1.2495   29.6193 C.ar    1  UNL1       -0.0038
      7 C         -27.4597    0.3802   26.7091 C.2     1  UNL1        0.1450
      8 C         -27.9298    0.5836   25.6804 C.2     1  UNL1        0.0372
      9 C         -29.3518    0.8141   25.5930 C.2     1  UNL1       -0.0011
     10 C         -29.9131    1.6813   26.1752 C.2     1  UNL1       -0.0213
     11 C         -30.0027    1.7294   27.6269 C.3     1  UNL1        0.0524
     12 O         -26.1356   -0.1048   26.8899 O.2     1  UNL1       -0.4504
     13 C         -25.3161    0.1951   28.0003 C.2     1  UNL1        0.1795
     14 C         -24.7377    1.0756   28.2269 C.2     1  UNL1        0.0403
     15 C         -24.5604    2.2548   27.2581 C.2     1  UNL1       -0.0013
     16 C         -23.5314    3.2390   27.3636 C.2     1  UNL1       -0.0257
     17 C         -23.6918    4.1421   26.4684 C.3     1  UNL1        0.0307
@<TRIPOS>BOND
     1     3     7    1
     2     7     8    2
     3     8     9    1
     4     9    10    2
     5     4    11    1
     6    10    11    1
     7     7    12    1
     8    12    13    1
     9    13    14    2
    10    14    15    1
    11    15    16    2
    12    16    17    1
    13     1     2   ar
    14     2     5   ar
    15     5     6   ar
    16     6     4   ar
    17     4     3   ar
    18     3     1   ar
