@<TRIPOS>MOLECULE
No_2636-gen_results/8p0m/2024-11-26-14-13-15/
 16 17 0 0 0
SMALL
GASTEIGER

@<TRIPOS>ATOM
      1 O         -28.1229   -1.3353   28.4874 O.2     1  UNL1       -0.2719
      2 C         -27.0637   -0.8242   28.8687 C.2     1  UNL1        0.2586
      3 N         -26.4446   -0.0097   28.8266 N.am    1  UNL1       -0.2732
      4 C         -26.0398   -2.0777   29.4173 C.3     1  UNL1        0.2381
      5 C         -27.0671    1.2974   28.3900 C.3     1  UNL1        0.1401
      6 C         -26.3537    2.0179   27.5228 C.3     1  UNL1        0.0281
      7 C         -25.0125    1.9317   27.5179 C.3     1  UNL1        0.0095
      8 C         -24.3480    0.8428   28.1787 C.3     1  UNL1        0.0852
      9 C         -25.0630   -0.0265   28.6924 C.3     1  UNL1        0.0844
     10 C         -24.6721   -1.3593   29.0996 C.3     1  UNL1        0.0648
     11 C         -22.8117    0.7499   28.0727 C.3     1  UNL1        0.3200
     12 F         -22.2430   -0.1558   28.6104 F       1  UNL1       -0.1984
     13 F         -22.1525    1.7103   27.5617 F       1  UNL1       -0.1984
     14 F         -26.2192   -3.1816   29.7710 F       1  UNL1       -0.2273
     15 C         -28.2446    1.6525   29.0035 C.2     1  UNL1        0.2269
     16 O         -28.4634    1.9480   30.1166 O.2     1  UNL1       -0.2865
@<TRIPOS>BOND
     1     1     2    2
     2     2     3   am
     3     2     4    1
     4     3     5    1
     5     5     6    1
     6     7     8    1
     7     3     9    1
     8     4    10    1
     9     9    10    1
    10     8    11    1
    11    11    12    1
    12    11    13    1
    13     4    14    1
    14     5    15    1
    15    15    16    2
    16     6     7    1
    17     8     9    1
