@<TRIPOS>MOLECULE
No_2637-gen_results/8p0m/2024-11-26-14-13-15/
 35 37 0 0 0
SMALL
GASTEIGER

@<TRIPOS>ATOM
      1 C         -28.0162   -0.8135   28.8779 C.3     1  UNL1        0.1202
      2 C         -27.0636   -0.1190   28.6079 C.ar    1  UNL1       -0.0049
      3 C         -27.0010    0.6913   27.4910 C.ar    1  UNL1       -0.0070
      4 C         -25.8548    1.4825   27.0830 C.ar    1  UNL1        0.0015
      5 C         -24.6901    1.4526   27.8807 C.ar    1  UNL1        0.0564
      6 C         -24.7379    0.6010   29.0416 C.ar    1  UNL1        0.0043
      7 C         -25.8234   -0.1688   29.3887 C.ar    1  UNL1       -0.0027
      8 N         -28.7568   -0.5479   30.0191 N.am    1  UNL1       -0.2714
      9 C         -28.9317    0.3890   30.5031 C.2     1  UNL1        0.2493
     10 C         -29.0495    1.5382   29.9451 C.ar    1  UNL1        0.0536
     11 C         -30.0483    1.7693   28.9978 C.ar    1  UNL1        0.0045
     12 C         -30.1588    3.0215   28.3220 C.ar    1  UNL1        0.0001
     13 C         -29.2190    4.0479   28.6474 C.ar    1  UNL1        0.0000
     14 C         -28.1353    2.6400   30.2161 C.ar    1  UNL1        0.0042
     15 C         -27.0912    2.4964   31.2942 C.ar    1  UNL1        0.0013
     16 C         -28.2397    3.9365   29.5948 C.ar    1  UNL1        0.0001
     17 C         -26.0089    3.3838   31.2687 C.ar    1  UNL1        0.0436
     18 C         -25.0357    3.2230   32.2672 C.3     1  UNL1        0.3410
     19 C         -25.8942    4.3342   30.1936 C.ar    1  UNL1        0.0011
     20 C         -26.9959    4.6432   29.3908 C.ar    1  UNL1       -0.0001
     21 C         -29.5997   -1.8061   30.4704 C.3     1  UNL1        0.1059
     22 C         -28.6858   -2.8173   31.0673 C.3     1  UNL1        0.1355
     23 C         -28.9483   -4.1287   30.6515 C.2     1  UNL1        0.3666
     24 O         -29.7460   -4.6695   30.9411 O.co2   1  UNL1       -0.2456
     25 O         -28.0402   -4.5613   29.6297 O.co2   1  UNL1       -0.2456
     26 O         -29.3548    0.4582   31.8589 O.2     1  UNL1       -0.2699
     27 F         -24.7602    4.0293   32.9636 F       1  UNL1       -0.1933
     28 F         -25.0313    2.0225   32.8306 F       1  UNL1       -0.1933
     29 C         -23.5648    2.2795   27.6377 C.2     1  UNL1        0.2842
     30 N         -22.5762    1.8844   27.0978 N.am    1  UNL1       -0.0837
     31 O         -23.6711    3.6169   27.8583 O.2     1  UNL1       -0.2667
     32 C         -28.1322    0.7733   26.5200 C.3     1  UNL1        0.1147
     33 N         -27.9783    0.1880   25.3611 N.3     1  UNL1       -0.2133
     34 C         -29.0514   -0.1397   24.5915 C.3     1  UNL1        0.0891
     35 C         -30.1333   -0.5759   25.2105 C.3     1  UNL1        0.0203
@<TRIPOS>BOND
     1     1     2    1
     2     1     8    1
     3     8     9   am
     4     9    10    1
     5    17    18    1
     6     8    21    1
     7    21    22    1
     8    22    23    1
     9    23    24   ar
    10    23    25   ar
    11     9    26    2
    12    18    27    1
    13    18    28    1
    14     5    29    1
    15    29    30   am
    16    29    31    2
    17     3    32    1
    18    32    33    1
    19    33    34    1
    20    34    35    1
    21     2     3   ar
    22     3     4   ar
    23     4     5   ar
    24     5     6   ar
    25     6     7   ar
    26     7     2   ar
    27    10    11   ar
    28    11    12   ar
    29    12    13   ar
    30    13    16   ar
    31    14    10   ar
    32    14    15   ar
    33    15    17   ar
    34    17    19   ar
    35    19    20   ar
    36    20    16   ar
    37    16    14   ar
