@<TRIPOS>MOLECULE
No_2638-gen_results/8p0m/2024-11-26-14-13-15/
 13 14 0 0 0
SMALL
GASTEIGER

@<TRIPOS>ATOM
      1 C         -28.0162   -0.8135   28.8779 C.ar    1  UNL1        0.0000
      2 C         -28.4690   -0.7850   29.8287 C.ar    1  UNL1        0.0000
      3 C         -27.1356    0.2359   28.5352 C.ar    1  UNL1        0.0002
      4 C         -26.3351    0.2900   27.2835 C.ar    1  UNL1        0.0000
      5 C         -28.3692    0.1957   30.9236 C.ar    1  UNL1        0.0000
      6 C         -27.5158    1.2655   30.6540 C.ar    1  UNL1        0.0002
      7 C         -26.8411    1.2942   29.4761 C.ar    1  UNL1        0.0064
      8 C         -25.6774    1.5198   26.9774 C.ar    1  UNL1        0.0002
      9 C         -25.3745    2.4477   27.9252 C.ar    1  UNL1        0.0066
     10 C         -26.0827    2.4257   29.1425 C.ar    1  UNL1        0.0798
     11 C         -25.8249    3.5745   30.0762 C.2     1  UNL1        0.3878
     12 O         -25.9467    4.7856   29.6364 O.co2   1  UNL1       -0.2406
     13 O         -25.4464    3.3009   31.2796 O.co2   1  UNL1       -0.2406
@<TRIPOS>BOND
     1    10    11    1
     2    11    12   ar
     3    11    13   ar
     4     1     2   ar
     5     2     5   ar
     6     5     6   ar
     7     6     7   ar
     8     3     1   ar
     9     3     4   ar
    10     4     8   ar
    11     8     9   ar
    12     9    10   ar
    13    10     7   ar
    14     7     3   ar
