@<TRIPOS>MOLECULE
No_2639-gen_results/8p0m/2024-11-26-14-13-15/
 35 39 0 0 0
SMALL
GASTEIGER

@<TRIPOS>ATOM
      1 C         -28.0162   -0.8135   28.8779 C.ar    1  UNL1        0.0375
      2 C         -27.0636   -0.1189   28.6079 C.ar    1  UNL1        0.0031
      3 C         -25.7923   -0.4302   29.0761 C.ar    1  UNL1        0.0002
      4 C         -24.5456    0.3494   28.8225 C.ar    1  UNL1        0.0000
      5 C         -23.2409    0.0217   29.3323 C.ar    1  UNL1        0.0000
      6 C         -27.8820   -1.8995   29.8633 C.ar    1  UNL1        0.1453
      7 C         -26.6526   -2.3142   30.3138 C.ar    1  UNL1        0.0375
      8 C         -25.5153   -1.5607   29.9787 C.ar    1  UNL1        0.0030
      9 C         -23.2072   -1.2289   30.0311 C.ar    1  UNL1        0.0000
     10 C         -24.2434   -1.9361   30.3879 C.ar    1  UNL1        0.0001
     11 C         -24.5768    1.5651   27.9574 C.ar    1  UNL1        0.0000
     12 C         -23.5960    1.7041   26.9962 C.ar    1  UNL1        0.0000
     13 C         -25.4866    2.5420   28.2001 C.ar    1  UNL1        0.0002
     14 C         -25.7556    3.1050   29.3700 C.ar    1  UNL1        0.0066
     15 C         -26.7112    4.0964   29.6063 C.ar    1  UNL1        0.0798
     16 C         -26.0724    3.1650   27.0583 C.ar    1  UNL1        0.0000
     17 C         -26.9877    4.2450   27.1926 C.ar    1  UNL1        0.0002
     18 C         -27.2817    4.7336   28.4477 C.ar    1  UNL1        0.0066
     19 C         -23.8934    1.9940   25.7086 C.ar    1  UNL1        0.0000
     20 C         -25.0988    3.0415   25.7957 C.ar    1  UNL1        0.0000
     21 C         -27.1027    4.5408   30.9897 C.2     1  UNL1        0.3878
     22 O         -27.7456    5.4094   31.2062 O.co2   1  UNL1       -0.2406
     23 O         -26.5608    3.7513   31.9206 O.co2   1  UNL1       -0.2406
     24 O         -29.0160   -2.6066   30.1556 O.3     1  UNL1       -0.4535
     25 C         -30.1075   -1.9908   30.6176 C.ar    1  UNL1        0.1453
     26 C         -31.2018   -2.5380   30.1031 C.ar    1  UNL1        0.0375
     27 C         -32.4435   -1.8301   30.1831 C.ar    1  UNL1        0.0030
     28 C         -32.4620   -0.6959   31.0319 C.ar    1  UNL1        0.0002
     29 C         -31.3076   -0.2115   31.5710 C.ar    1  UNL1        0.0031
     30 C         -30.0731   -0.8188   31.3035 C.ar    1  UNL1        0.0375
     31 C         -33.6850   -2.4221   29.7514 C.2     1  UNL1        0.0001
     32 C         -34.6554   -2.5808   30.3158 C.2     1  UNL1       -0.0003
     33 C         -34.7339   -2.1913   31.7507 C.2     1  UNL1       -0.0046
     34 C         -35.8945   -2.4922   32.4484 C.2     1  UNL1       -0.0258
     35 C         -36.9176   -3.1015   31.7228 C.3     1  UNL1        0.0307
@<TRIPOS>BOND
     1     4    11    1
     2    15    21    1
     3    21    22   ar
     4    21    23   ar
     5     6    24    1
     6    24    25    1
     7    27    31    1
     8    31    32    2
     9    32    33    1
    10    33    34    2
    11    34    35    1
    12    25    26   ar
    13    26    27   ar
    14    27    28   ar
    15    28    29   ar
    16    29    30   ar
    17    30    25   ar
    18     3     4   ar
    19     4     5   ar
    20     5     9   ar
    21     9    10   ar
    22    10     8   ar
    23    11    12   ar
    24    12    19   ar
    25    19    20   ar
    26    20    16   ar
    27    13    11   ar
    28     1     2   ar
    29     2     3   ar
    30     3     8   ar
    31     8     7   ar
    32     7     6   ar
    33     6     1   ar
    34    13    14   ar
    35    14    15   ar
    36    15    18   ar
    37    18    17   ar
    38    17    16   ar
    39    16    13   ar
