@<TRIPOS>MOLECULE
No_264-gen_results/8p0m/2024-11-26-14-13-15/
 15 16 0 0 0
SMALL
GASTEIGER

@<TRIPOS>ATOM
      1 O         -28.1229   -1.3353   28.4874 O.2     1  UNL1       -0.2745
      2 C         -27.0637   -0.8242   28.8687 C.2     1  UNL1        0.2288
      3 C         -25.9464   -1.0396   28.8492 C.3     1  UNL1        0.0771
      4 C         -25.3522   -2.2524   28.5471 C.3     1  UNL1        0.0091
      5 N         -27.2898    0.4084   29.7412 N.am    1  UNL1       -0.2586
      6 C         -28.5308    0.9464   29.9764 C.ar    1  UNL1        0.0538
      7 C         -24.7281   -0.0727   29.0399 C.3     1  UNL1        0.0109
      8 C         -24.8798    1.1951   28.8992 C.3     1  UNL1        0.0224
      9 C         -26.2676    1.5593   29.6274 C.3     1  UNL1        0.0982
     10 C         -24.8078   -3.0942   29.6550 C.3     1  UNL1        0.0005
     11 C         -28.8053    1.6996   30.9535 C.ar    1  UNL1        0.0149
     12 C         -30.1293    2.1569   31.2834 C.ar    1  UNL1        0.0013
     13 C         -31.1654    1.6111   30.5158 C.ar    1  UNL1        0.0001
     14 C         -30.9245    0.7216   29.4940 C.ar    1  UNL1        0.0013
     15 C         -29.6662    0.3477   29.2491 C.ar    1  UNL1        0.0149
@<TRIPOS>BOND
     1     1     2    2
     2     2     3    1
     3     3     4    1
     4     2     5   am
     5     5     6    1
     6     3     7    1
     7     5     9    1
     8     8     9    1
     9     4    10    1
    10     7     8    1
    11     6    11   ar
    12    11    12   ar
    13    12    13   ar
    14    13    14   ar
    15    14    15   ar
    16    15     6   ar
