@<TRIPOS>MOLECULE
No_2640-gen_results/8p0m/2024-11-26-14-13-15/
 14 15 0 0 0
SMALL
GASTEIGER

@<TRIPOS>ATOM
      1 C         -28.0162   -0.8135   28.8779 C.ar    1  UNL1        0.0417
      2 C         -28.4690   -0.7850   29.8287 C.ar    1  UNL1        0.0033
      3 C         -26.5455   -0.8762   28.8500 C.ar    1  UNL1        0.1920
      4 C         -25.8041   -1.0324   30.0571 C.ar    1  UNL1        0.0211
      5 C         -26.5373   -1.0386   31.2171 C.ar    1  UNL1       -0.0008
      6 C         -27.8843   -0.9532   31.1862 C.ar    1  UNL1       -0.0001
      7 C         -24.4124   -1.2540   30.2305 C.3     1  UNL1        0.0559
      8 C         -23.4571   -0.3396   29.6925 C.ar    1  UNL1       -0.0177
      9 C         -23.6097    1.0035   29.8082 C.ar    1  UNL1       -0.0039
     10 C         -23.6721    1.8278   28.8122 C.ar    1  UNL1       -0.0003
     11 C         -22.6834    1.5049   27.7692 C.ar    1  UNL1       -0.0000
     12 C         -22.0806    0.3046   27.7663 C.ar    1  UNL1       -0.0003
     13 C         -22.5896   -0.7174   28.6527 C.ar    1  UNL1       -0.0039
     14 O         -25.8007   -0.8408   27.7034 O.3     1  UNL1       -0.2869
@<TRIPOS>BOND
     1     4     7    1
     2     7     8    1
     3     3    14    1
     4     1     2   ar
     5     2     6   ar
     6     6     5   ar
     7     5     4   ar
     8     4     3   ar
     9     3     1   ar
    10     8     9   ar
    11     9    10   ar
    12    10    11   ar
    13    11    12   ar
    14    12    13   ar
    15    13     8   ar
