@<TRIPOS>MOLECULE
No_2641-gen_results/8p0m/2024-11-26-14-13-15/
 14 16 0 0 0
SMALL
GASTEIGER

@<TRIPOS>ATOM
      1 C         -28.0162   -0.8135   28.8779 C.ar    1  UNL1        0.0015
      2 C         -28.4690   -0.7850   29.8287 C.ar    1  UNL1        0.0192
      3 C         -27.1356    0.2359   28.5352 C.ar    1  UNL1        0.0000
      4 C         -26.8050    1.0509   29.2763 C.ar    1  UNL1        0.0000
      5 C         -29.4120   -1.8886   30.3141 C.ar    1  UNL1        0.0988
      6 C         -27.3211    1.1276   30.6065 C.ar    1  UNL1        0.0001
      7 C         -28.1972    0.0819   30.9803 C.ar    1  UNL1        0.0030
      8 N         -29.8418   -1.8299   31.5831 N.ar    1  UNL1       -0.2423
      9 C         -29.6194   -0.9364   32.5060 C.ar    1  UNL1        0.0989
     10 C         -28.7907    0.0486   32.2686 C.ar    1  UNL1        0.0207
     11 C         -26.4680    0.1928   27.0750 C.ar    1  UNL1        0.0000
     12 C         -26.2541    1.0472   26.4153 C.ar    1  UNL1        0.0000
     13 C         -25.9790    2.3596   27.0922 C.ar    1  UNL1        0.0000
     14 C         -26.3391    2.3708   28.5211 C.ar    1  UNL1        0.0000
@<TRIPOS>BOND
     1     4    14   ar
     2    14    13   ar
     3    13    12   ar
     4    12    11   ar
     5    11     3   ar
     6     2     5   ar
     7     5     8   ar
     8     8     9   ar
     9     9    10   ar
    10    10     7   ar
    11     1     2   ar
    12     2     7   ar
    13     7     6   ar
    14     6     4   ar
    15     4     3   ar
    16     3     1   ar
