@<TRIPOS>MOLECULE
No_2643-gen_results/8p0m/2024-11-26-14-13-15/
 16 17 0 0 0
SMALL
GASTEIGER

@<TRIPOS>ATOM
      1 C         -28.0162   -0.8135   28.8779 C.ar    1  UNL1        0.0029
      2 C         -28.4690   -0.7850   29.8287 C.ar    1  UNL1        0.0001
      3 C         -28.1960    0.3478   28.0550 C.ar    1  UNL1        0.0350
      4 C         -29.0191    1.3501   28.3782 C.ar    1  UNL1        0.0029
      5 C         -29.4107    0.1803   30.3782 C.ar    1  UNL1        0.0000
      6 C         -29.6059    1.2495   29.6193 C.ar    1  UNL1        0.0001
      7 C         -27.4597    0.3802   26.7091 C.2     1  UNL1        0.1767
      8 C         -26.4659    1.4084   26.5648 C.3     1  UNL1        0.0841
      9 C         -25.2449    1.3279   27.3559 C.ar    1  UNL1       -0.0152
     10 C         -24.3040    2.2993   27.2314 C.ar    1  UNL1       -0.0039
     11 C         -23.0865    2.2908   27.9633 C.ar    1  UNL1       -0.0003
     12 C         -22.7829    1.1055   28.7621 C.ar    1  UNL1       -0.0000
     13 C         -23.7196    0.1211   28.8176 C.ar    1  UNL1       -0.0003
     14 C         -24.9189    0.1880   28.1423 C.ar    1  UNL1       -0.0039
     15 C         -26.3610    1.8379   25.1812 C.3     1  UNL1        0.0129
     16 O         -27.8348   -0.3132   25.7612 O.2     1  UNL1       -0.2910
@<TRIPOS>BOND
     1     3     7    1
     2     7     8    1
     3     8     9    1
     4     8    15    1
     5     7    16    2
     6     9    10   ar
     7    10    11   ar
     8    11    12   ar
     9    12    13   ar
    10    13    14   ar
    11    14     9   ar
    12     1     2   ar
    13     2     5   ar
    14     5     6   ar
    15     6     4   ar
    16     4     3   ar
    17     3     1   ar
