@<TRIPOS>MOLECULE
No_2644-gen_results/8p0m/2024-11-26-14-13-15/
 17 18 0 0 0
SMALL
GASTEIGER

@<TRIPOS>ATOM
      1 C         -28.0162   -0.8135   28.8779 C.1     1  UNL1        0.0095
      2 C         -27.0636   -0.1190   28.6079 C.1     1  UNL1       -0.0722
      3 C         -26.4071    0.8834   28.2425 C.3     1  UNL1        0.1433
      4 C         -25.0852    1.1714   28.3387 C.ar    1  UNL1       -0.0075
      5 C         -24.4010    2.4123   27.9044 C.ar    1  UNL1       -0.0244
      6 C         -25.1890    3.3455   27.1980 C.3     1  UNL1        0.0339
      7 C         -26.5281    3.0943   27.0109 C.3     1  UNL1        0.0705
      8 C         -27.1233    1.9875   27.4353 C.2     1  UNL1        0.1667
      9 C         -28.9571   -1.2032   29.7528 C.3     1  UNL1        0.4589
     10 F         -28.9963   -0.6613   30.7514 F       1  UNL1       -0.1586
     11 F         -28.7742   -2.5174   29.9987 F       1  UNL1       -0.1586
     12 F         -30.1742   -1.1209   29.1739 F       1  UNL1       -0.1586
     13 C         -24.1403    0.2365   29.0039 C.ar    1  UNL1       -0.0032
     14 C         -22.8950    0.6353   29.2402 C.ar    1  UNL1       -0.0003
     15 C         -22.2497    1.6361   28.5768 C.ar    1  UNL1       -0.0003
     16 C         -22.9645    2.6105   27.9917 C.ar    1  UNL1       -0.0045
     17 O         -28.4385    1.7750   27.2610 O.2     1  UNL1       -0.2947
@<TRIPOS>BOND
     1     1     2    3
     2     2     3    1
     3     6     7    1
     4     3     8    1
     5     7     8    1
     6     1     9    1
     7     9    10    1
     8     9    11    1
     9     9    12    1
    10     8    17    2
    11     3     4    1
    12     5     6    1
    13     4     5   ar
    14     5    16   ar
    15    16    15   ar
    16    15    14   ar
    17    14    13   ar
    18    13     4   ar
