@<TRIPOS>MOLECULE
No_2646-gen_results/8p0m/2024-11-26-14-13-15/
 22 24 0 0 0
SMALL
GASTEIGER

@<TRIPOS>ATOM
      1 C         -28.0162   -0.8135   28.8779 C.ar    1  UNL1        0.0375
      2 C         -27.0636   -0.1189   28.6079 C.ar    1  UNL1        0.0031
      3 C         -25.7923   -0.4302   29.0761 C.ar    1  UNL1        0.0002
      4 C         -25.5756   -1.5654   29.9363 C.ar    1  UNL1        0.0031
      5 C         -26.7354   -2.3004   30.2173 C.ar    1  UNL1        0.0375
      6 C         -27.9184   -1.9537   29.7629 C.ar    1  UNL1        0.1453
      7 O         -29.0001   -2.7012   30.1151 O.3     1  UNL1       -0.4535
      8 C         -24.5290    0.3490   28.7998 C.ar    1  UNL1        0.0000
      9 C         -24.4808    1.2113   27.7998 C.ar    1  UNL1        0.0000
     10 C         -23.2478    1.8974   27.4951 C.ar    1  UNL1        0.0000
     11 C         -22.0497    1.5890   28.1642 C.ar    1  UNL1        0.0000
     12 C         -23.3926    0.2168   29.6790 C.ar    1  UNL1        0.0000
     13 C         -22.1330    0.8031   29.2514 C.ar    1  UNL1        0.0000
     14 C         -30.1252   -2.1329   30.5825 C.ar    1  UNL1        0.1453
     15 C         -30.2230   -1.1442   31.0402 C.ar    1  UNL1        0.0377
     16 C         -31.5264   -0.5262   31.4154 C.ar    1  UNL1        0.0097
     17 C         -31.2934   -3.0194   30.3386 C.ar    1  UNL1        0.0377
     18 C         -32.5431   -2.5534   30.6131 C.ar    1  UNL1        0.0097
     19 C         -32.6286   -1.3009   31.2301 C.ar    1  UNL1        0.0800
     20 C         -33.9767   -0.7876   31.6164 C.2     1  UNL1        0.3878
     21 O         -34.1708   -0.3201   32.6455 O.co2   1  UNL1       -0.2406
     22 O         -34.8580   -0.9367   30.6665 O.co2   1  UNL1       -0.2406
@<TRIPOS>BOND
     1     6     7    1
     2     3     8    1
     3     7    14    1
     4    19    20    1
     5    20    21   ar
     6    20    22   ar
     7     1     2   ar
     8     2     3   ar
     9     3     4   ar
    10     4     5   ar
    11     5     6   ar
    12     6     1   ar
    13    14    15   ar
    14    15    16   ar
    15    16    19   ar
    16    19    18   ar
    17    18    17   ar
    18    17    14   ar
    19     8     9   ar
    20     9    10   ar
    21    10    11   ar
    22    11    13   ar
    23    13    12   ar
    24    12     8   ar
