@<TRIPOS>MOLECULE
No_2647-gen_results/8p0m/2024-11-26-14-13-15/
 31 32 0 0 0
SMALL
GASTEIGER

@<TRIPOS>ATOM
      1 O         -28.1229   -1.3353   28.4874 O.2     1  UNL1       -0.2683
      2 C         -27.4806   -0.4044   28.7094 C.2     1  UNL1        0.2663
      3 C         -26.3804   -0.0867   27.9394 C.ar    1  UNL1        0.0657
      4 N         -27.6664    0.4468   29.8988 N.am    1  UNL1       -0.1894
      5 C         -26.4086    0.8567   26.8802 C.ar    1  UNL1        0.0621
      6 C         -25.2466    1.1198   26.1102 C.ar    1  UNL1        0.0117
      7 C         -24.1743    1.3492   26.5223 C.ar    1  UNL1        0.0047
      8 C         -23.8555    0.6940   27.8815 C.ar    1  UNL1        0.0478
      9 C         -24.9398   -0.0175   28.5920 C.ar    1  UNL1        0.0093
     10 C         -28.7457    0.0888   30.7687 C.3     1  UNL1        0.1969
     11 C         -22.5338    0.7690   28.4694 C.2     1  UNL1        0.2416
     12 N         -21.5969    1.3815   27.7796 N.2     1  UNL1       -0.1156
     13 F         -22.3139    0.1311   29.4721 F       1  UNL1       -0.1815
     14 CL        -27.9274    0.7163   26.0244 Cl      1  UNL1       -0.0821
     15 C         -28.7847   -0.9938   31.2464 C.ar    1  UNL1        0.0484
     16 C         -29.8329   -1.4399   32.1833 C.ar    1  UNL1        0.0012
     17 C         -29.9872   -2.7535   32.5692 C.ar    1  UNL1        0.0032
     18 C         -29.2682   -3.7824   31.8878 C.ar    1  UNL1        0.0454
     19 C         -28.3238   -3.4493   30.8850 C.ar    1  UNL1        0.2340
     20 C         -28.1201   -2.2029   30.6132 C.ar    1  UNL1        0.2323
     21 O         -26.7124   -2.1433   30.9467 O.3     1  UNL1       -0.2834
     22 O         -27.6760   -4.4885   30.3595 O.3     1  UNL1       -0.2832
     23 C         -29.4362    1.3276   31.1619 C.2     1  UNL1        0.2502
     24 O         -29.4015    1.8618   32.1043 O.2     1  UNL1       -0.2726
     25 N         -30.3832    1.6595   30.1346 N.am    1  UNL1       -0.2684
     26 C         -31.2673    2.7834   30.3228 C.3     1  UNL1        0.1152
     27 C         -30.5294    0.9982   28.8812 C.3     1  UNL1        0.1974
     28 C         -31.0264    1.6699   27.7737 C.3     1  UNL1        0.4157
     29 F         -30.4734    2.2122   27.1037 F       1  UNL1       -0.1682
     30 F         -31.7990    0.6450   27.1150 F       1  UNL1       -0.1682
     31 F         -32.1210    2.4584   28.1623 F       1  UNL1       -0.1682
@<TRIPOS>BOND
     1     1     2    2
     2     2     3    1
     3     2     4   am
     4     4    10    1
     5     8    11    1
     6    11    12    2
     7    11    13    1
     8     5    14    1
     9    20    21    1
    10    19    22    1
    11    10    23    1
    12    23    24    2
    13    23    25   am
    14    25    26    1
    15    25    27    1
    16    27    28    1
    17    28    29    1
    18    28    30    1
    19    28    31    1
    20    10    15    1
    21    15    16   ar
    22    16    17   ar
    23    17    18   ar
    24    18    19   ar
    25    19    20   ar
    26    20    15   ar
    27     3     5   ar
    28     5     6   ar
    29     6     7   ar
    30     7     8   ar
    31     8     9   ar
    32     9     3   ar
