@<TRIPOS>MOLECULE
No_2649-gen_results/8p0m/2024-11-26-14-13-15/
 17 19 0 0 0
SMALL
GASTEIGER

@<TRIPOS>ATOM
      1 C         -28.0162   -0.8135   28.8779 C.3     1  UNL1        0.0798
      2 C         -27.0636   -0.1189   28.6079 C.ar    1  UNL1       -0.0117
      3 C         -27.0010    0.6913   27.4910 C.ar    1  UNL1       -0.0031
      4 C         -25.8548    1.4825   27.0830 C.ar    1  UNL1        0.0043
      5 C         -24.6901    1.4526   27.8807 C.ar    1  UNL1        0.0563
      6 C         -24.7379    0.6010   29.0416 C.ar    1  UNL1        0.0001
      7 C         -25.8234   -0.1688   29.3887 C.ar    1  UNL1       -0.0233
      8 N         -27.9524   -1.6294   30.0643 N.3     1  UNL1       -0.2700
      9 C         -29.0363   -2.3695   30.4865 C.3     1  UNL1        0.0723
     10 C         -30.1588   -1.9008   30.4077 C.3     1  UNL1        0.0174
     11 C         -30.4226   -0.9351   29.3596 C.3     1  UNL1        0.0032
     12 C         -29.3214   -0.3087   28.7801 C.3     1  UNL1        0.0205
     13 C         -26.5770   -2.0163   30.4710 C.3     1  UNL1        0.0770
     14 C         -25.6427   -1.1375   30.3534 C.3     1  UNL1        0.0434
     15 C         -23.3895    1.8539   27.5552 C.2     1  UNL1        0.2842
     16 N         -23.1737    2.7455   26.5665 N.am    1  UNL1       -0.0837
     17 O         -22.3070    1.6508   28.2043 O.2     1  UNL1       -0.2667
@<TRIPOS>BOND
     1     1     2    1
     2     1     8    1
     3     8     9    1
     4     9    10    1
     5     1    12    1
     6    11    12    1
     7     8    13    1
     8     7    14    1
     9     5    15    1
    10    15    16   am
    11    15    17    2
    12    11    10    1
    13    14    13    1
    14     2     3   ar
    15     3     4   ar
    16     4     5   ar
    17     5     6   ar
    18     6     7   ar
    19     7     2   ar
