@<TRIPOS>MOLECULE
No_265-gen_results/8p0m/2024-11-26-14-13-15/
 9 9 0 0 0
SMALL
GASTEIGER

@<TRIPOS>ATOM
      1 C         -28.0162   -0.8135   28.8779 C.ar    1  UNL1        0.0056
      2 C         -28.4690   -0.7850   29.8287 C.ar    1  UNL1        0.0678
      3 C         -26.5455   -0.8762   28.8500 C.ar    1  UNL1        0.0002
      4 C         -25.8041   -1.0324   30.0571 C.ar    1  UNL1        0.0000
      5 C         -27.9437   -0.9869   31.2075 C.ar    1  UNL1        0.0056
      6 C         -26.5825   -1.0386   31.2231 C.ar    1  UNL1        0.0002
      7 C         -30.0279   -0.6588   29.6965 C.2     1  UNL1        0.3334
      8 O         -30.7763   -1.4156   30.1892 O.2     1  UNL1       -0.2541
      9 F         -30.4336    0.3078   29.0261 F       1  UNL1       -0.1586
@<TRIPOS>BOND
     1     2     7    1
     2     7     8    2
     3     7     9    1
     4     1     2   ar
     5     2     5   ar
     6     5     6   ar
     7     6     4   ar
     8     4     3   ar
     9     3     1   ar
