@<TRIPOS>MOLECULE
No_2650-gen_results/8p0m/2024-11-26-14-13-15/
 35 38 0 0 0
SMALL
GASTEIGER

@<TRIPOS>ATOM
      1 C         -28.0162   -0.8135   28.8779 C.ar    1  UNL1        0.0799
      2 C         -27.0636   -0.1189   28.6079 C.ar    1  UNL1        0.0066
      3 C         -27.0010    0.6913   27.4910 C.ar    1  UNL1        0.0004
      4 C         -28.1373    0.7363   26.6350 C.ar    1  UNL1        0.0045
      5 C         -29.2360    0.0765   27.0690 C.ar    1  UNL1        0.0541
      6 C         -29.2177   -0.6429   28.1747 C.ar    1  UNL1        0.0111
      7 C         -30.4152    0.1590   26.1819 C.2     1  UNL1        0.2528
      8 O         -30.3887    0.0526   24.9904 O.2     1  UNL1       -0.2696
      9 N         -31.6681    0.1429   26.8164 N.am    1  UNL1       -0.2534
     10 C         -31.8647    0.2728   28.2130 C.ar    1  UNL1        0.0542
     11 C         -32.8527    0.1945   25.9236 C.3     1  UNL1        0.1203
     12 C         -32.5621   -0.6688   28.7585 C.ar    1  UNL1        0.0149
     13 C         -32.6820   -0.6880   30.1780 C.ar    1  UNL1        0.0013
     14 C         -32.1190    0.3779   30.9435 C.ar    1  UNL1        0.0001
     15 C         -31.4046    1.3707   30.2838 C.ar    1  UNL1        0.0012
     16 C         -31.1911    1.3075   28.9379 C.ar    1  UNL1        0.0149
     17 C         -28.0532   -1.6321   30.1952 C.2     1  UNL1        0.3878
     18 O         -28.7190   -1.6638   30.9780 O.co2   1  UNL1       -0.2406
     19 O         -26.9935   -2.4895   30.1651 O.co2   1  UNL1       -0.2406
     20 C         -30.7783    2.4762   31.0914 C.ar    1  UNL1        0.0000
     21 C         -31.2561    3.0303   32.0069 C.ar    1  UNL1        0.0000
     22 C         -29.4142    2.8708   30.5860 C.ar    1  UNL1        0.0000
     23 C         -28.7034    3.8482   31.2966 C.ar    1  UNL1        0.0001
     24 C         -30.5857    4.0908   32.7719 C.ar    1  UNL1        0.0000
     25 C         -29.2952    4.4727   32.3539 C.ar    1  UNL1        0.0000
     26 C         -27.3497    4.2432   30.8496 C.ar    1  UNL1        0.0030
     27 C         -27.1002    5.5004   30.6392 C.ar    1  UNL1        0.0002
     28 C         -25.8199    5.8546   30.0886 C.ar    1  UNL1        0.0031
     29 C         -25.1553    4.8451   29.3624 C.ar    1  UNL1        0.0375
     30 C         -25.5140    3.5432   29.3911 C.ar    1  UNL1        0.1454
     31 C         -26.6537    3.1863   30.1179 C.ar    1  UNL1        0.0375
     32 O         -24.7474    2.6431   28.7949 O.3     1  UNL1       -0.4508
     33 C         -23.8462    1.8719   29.5015 C.2     1  UNL1        0.1750
     34 C         -22.9321    1.1227   28.6634 C.2     1  UNL1        0.0148
     35 C         -22.1482    0.1059   29.2127 C.3     1  UNL1        0.0341
@<TRIPOS>BOND
     1     5     7    1
     2     7     8    2
     3     7     9   am
     4     9    10    1
     5     9    11    1
     6     1    17    1
     7    17    18   ar
     8    17    19   ar
     9    15    20    1
    10    23    26    1
    11    30    32    1
    12    32    33    1
    13    33    34    2
    14    34    35    1
    15    26    27   ar
    16    27    28   ar
    17    28    29   ar
    18    29    30   ar
    19    30    31   ar
    20    31    26   ar
    21     1     2   ar
    22     2     3   ar
    23     3     4   ar
    24     4     5   ar
    25     5     6   ar
    26     6     1   ar
    27    20    21   ar
    28    21    24   ar
    29    24    25   ar
    30    25    23   ar
    31    23    22   ar
    32    22    20   ar
    33    10    12   ar
    34    12    13   ar
    35    13    14   ar
    36    14    15   ar
    37    15    16   ar
    38    16    10   ar
