@<TRIPOS>MOLECULE
No_2651-gen_results/8p0m/2024-11-26-14-13-15/
 16 18 0 0 0
SMALL
GASTEIGER

@<TRIPOS>ATOM
      1 C         -28.0162   -0.8135   28.8779 C.3     1  UNL1        0.0044
      2 C         -28.4690   -0.7850   29.8287 C.3     1  UNL1        0.0003
      3 C         -28.1960    0.3478   28.0550 C.3     1  UNL1        0.0223
      4 C         -29.0191    1.3501   28.3782 C.3     1  UNL1        0.0075
      5 C         -29.6249    1.2683   29.6012 C.3     1  UNL1        0.0006
      6 C         -29.3821    0.1816   30.4004 C.3     1  UNL1        0.0000
      7 C         -27.4591    0.3787   26.7048 C.2     1  UNL1       -0.0265
      8 C         -27.5985    0.6357   25.6182 C.2     1  UNL1       -0.0049
      9 C         -29.0006    1.0333   25.3131 C.2     1  UNL1       -0.0049
     10 C         -29.8436    1.4474   26.1306 C.2     1  UNL1       -0.0265
     11 C         -29.8804    1.5539   27.4560 C.3     1  UNL1        0.0223
     12 C         -27.9608    2.5124   28.4487 C.3     1  UNL1        0.0006
     13 C         -31.3209    1.8934   27.8642 C.3     1  UNL1        0.0040
     14 C         -30.7463    2.0357   29.9384 C.3     1  UNL1        0.0000
     15 C         -31.6961    2.0875   29.0952 C.3     1  UNL1        0.0003
     16 C         -32.2341    2.0833   26.6391 C.3     1  UNL1        0.0003
@<TRIPOS>BOND
     1     1     3    1
     2     3     4    1
     3     4     5    1
     4     2     6    1
     5     3     7    1
     6     7     8    2
     7     8     9    1
     8     9    10    2
     9     4    11    1
    10    10    11    1
    11     4    12    1
    12    11    13    1
    13     5    14    1
    14    13    15    1
    15    14    15    1
    16    13    16    1
    17     1     2    1
    18     6     5    1
