@<TRIPOS>MOLECULE
No_2652-gen_results/8p0m/2024-11-26-14-13-15/
 18 19 0 0 0
SMALL
GASTEIGER

@<TRIPOS>ATOM
      1 C         -28.0162   -0.8135   28.8779 C.ar    1  UNL1        0.0032
      2 C         -28.4690   -0.7850   29.8287 C.ar    1  UNL1        0.0068
      3 C         -28.1816    0.4277   28.1134 C.ar    1  UNL1        0.0009
      4 C         -27.4498    0.6435   26.8500 C.ar    1  UNL1        0.0114
      5 C         -27.8596    1.4573   25.9076 C.ar    1  UNL1        0.0577
      6 C         -28.3080   -1.9885   30.8635 C.ar    1  UNL1        0.0828
      7 C         -27.5277   -3.0190   30.3596 C.ar    1  UNL1        0.0435
      8 C         -26.7389   -2.8481   29.2719 C.ar    1  UNL1        0.1389
      9 C         -26.9091   -1.6576   28.5337 C.ar    1  UNL1        0.0369
     10 C         -28.9559    2.3522   26.0931 C.ar    1  UNL1        0.0114
     11 C         -29.6155    2.2334   27.3096 C.ar    1  UNL1        0.0009
     12 C         -29.2776    1.2382   28.2547 C.ar    1  UNL1        0.0001
     13 O         -25.7922   -3.7572   28.9720 O.3     1  UNL1       -0.4714
     14 C         -24.4400   -3.3394   29.0680 C.3     1  UNL1        0.2525
     15 CL        -26.8887    1.6323   24.5032 Cl      1  UNL1       -0.0822
     16 C         -29.2086   -2.2171   32.0445 C.2     1  UNL1        0.3879
     17 O         -30.0743   -1.6020   32.0927 O.co2   1  UNL1       -0.2406
     18 O         -28.7327   -3.0489   32.8309 O.co2   1  UNL1       -0.2406
@<TRIPOS>BOND
     1     8    13    1
     2    13    14    1
     3     5    15    1
     4     6    16    1
     5    16    17   ar
     6    16    18   ar
     7     3     1    1
     8     3     4   ar
     9     4     5   ar
    10     5    10   ar
    11    10    11   ar
    12    11    12   ar
    13    12     3   ar
    14     1     2   ar
    15     2     6   ar
    16     6     7   ar
    17     7     8   ar
    18     8     9   ar
    19     9     1   ar
