@<TRIPOS>MOLECULE
No_2653-gen_results/8p0m/2024-11-26-14-13-15/
 35 38 0 0 0
SMALL
GASTEIGER

@<TRIPOS>ATOM
      1 C         -28.0162   -0.8135   28.8779 C.ar    1  UNL1        0.0046
      2 C         -27.0636   -0.1189   28.6079 C.ar    1  UNL1       -0.0001
      3 C         -25.7647   -0.3897   29.0360 C.ar    1  UNL1       -0.0015
      4 C         -24.5516    0.4058   28.7646 C.ar    1  UNL1        0.0088
      5 C         -23.2300    0.1178   29.2575 C.ar    1  UNL1       -0.0017
      6 C         -23.0942   -1.1309   29.8730 C.ar    1  UNL1       -0.0002
      7 C         -27.7980   -1.9341   29.8560 C.ar    1  UNL1        0.0550
      8 C         -26.5420   -2.3269   30.2580 C.ar    1  UNL1        0.0046
      9 C         -25.4514   -1.5516   29.9079 C.ar    1  UNL1       -0.0001
     10 C         -24.1562   -1.9097   30.2809 C.ar    1  UNL1       -0.0000
     11 C         -24.6450    1.6582   27.9464 C.3     1  UNL1        0.1750
     12 N         -24.8818    2.7021   28.4939 N.3     1  UNL1       -0.1876
     13 CL        -24.4409    1.5262   26.3061 Cl      1  UNL1       -0.0907
     14 C         -25.0594    3.9158   27.7933 C.3     1  UNL1        0.2042
     15 C         -25.6823    5.0445   28.5373 C.2     1  UNL1        0.3823
     16 O         -26.8258    5.2517   28.2181 O.co2   1  UNL1       -0.2440
     17 O         -25.0370    5.6854   29.4269 O.co2   1  UNL1       -0.2440
     18 C         -29.0294   -2.7325   30.2465 C.2     1  UNL1        0.2651
     19 O         -30.0782   -2.1806   30.3361 O.2     1  UNL1       -0.2684
     20 N         -28.7702   -3.9182   30.8807 N.am    1  UNL1       -0.1968
     21 C         -29.8472   -4.8086   31.2838 C.3     1  UNL1        0.1418
     22 C         -30.6128   -5.2633   30.2585 C.ar    1  UNL1       -0.0006
     23 C         -30.4643   -5.0554   29.0479 C.ar    1  UNL1       -0.0028
     24 C         -31.1687   -5.6681   27.9497 C.ar    1  UNL1       -0.0030
     25 C         -32.0367   -6.7084   28.2734 C.ar    1  UNL1       -0.0034
     26 C         -32.6630   -7.3308   27.2084 C.3     1  UNL1        0.1242
     27 C         -31.4343   -6.4640   30.4716 C.ar    1  UNL1       -0.0028
     28 C         -32.0856   -7.1076   29.5408 C.ar    1  UNL1       -0.0030
     29 CL        -33.7556   -6.5711   26.2894 Cl      1  UNL1       -0.1053
     30 C         -32.2860   -8.7875   26.6929 C.ar    1  UNL1       -0.0034
     31 C         -31.9667   -8.9220   25.5775 C.ar    1  UNL1       -0.0028
     32 C         -31.1999  -10.0408   25.1575 C.ar    1  UNL1       -0.0003
     33 C         -30.9322  -11.0020   26.1271 C.ar    1  UNL1       -0.0000
     34 C         -31.2292  -10.7836   27.4527 C.ar    1  UNL1       -0.0003
     35 C         -31.7844   -9.5798   27.8080 C.ar    1  UNL1       -0.0028
@<TRIPOS>BOND
     1     4    11    1
     2    11    12    1
     3    11    13    1
     4    12    14    1
     5    14    15    1
     6    15    16   ar
     7    15    17   ar
     8     7    18    1
     9    18    19    2
    10    18    20   am
    11    20    21    1
    12    21    22    1
    13    25    26    1
    14    26    29    1
    15    26    30    1
    16    22    23   ar
    17    23    24   ar
    18    24    25   ar
    19    25    28   ar
    20    28    27   ar
    21    27    22   ar
    22     1     2   ar
    23     2     3   ar
    24     9     8   ar
    25     8     7   ar
    26     7     1   ar
    27    30    31   ar
    28    31    32   ar
    29    32    33   ar
    30    33    34   ar
    31    34    35   ar
    32    35    30   ar
    33     3     4   ar
    34     4     5   ar
    35     5     6   ar
    36     6    10   ar
    37    10     9   ar
    38     9     3   ar
