@<TRIPOS>MOLECULE
No_2654-gen_results/8p0m/2024-11-26-14-13-15/
 15 15 0 0 0
SMALL
GASTEIGER

@<TRIPOS>ATOM
      1 C         -28.0162   -0.8135   28.8779 C.ar    1  UNL1        0.0131
      2 C         -27.0636   -0.1189   28.6079 C.ar    1  UNL1        0.0761
      3 C         -25.7923   -0.4302   29.0761 C.ar    1  UNL1        0.0065
      4 C         -25.5756   -1.5654   29.9363 C.ar    1  UNL1        0.0007
      5 C         -26.7354   -2.3004   30.2173 C.ar    1  UNL1        0.0067
      6 C         -27.9184   -1.9537   29.7629 C.ar    1  UNL1        0.0348
      7 BR        -29.4034   -2.9791   30.2597 Br      1  UNL1       -0.0490
      8 C         -27.1046    1.1105   27.7589 C.2     1  UNL1        0.3415
      9 O         -28.0371    1.4913   27.3826 O.2     1  UNL1       -0.2449
     10 O         -25.9493    1.8744   27.7248 O.3     1  UNL1       -0.4361
     11 C         -25.5734    2.5072   26.5357 C.3     1  UNL1        0.3111
     12 C         -24.3662    3.2881   26.7087 C.3     1  UNL1        0.4381
     13 F         -23.6829    3.4002   25.6485 F       1  UNL1       -0.1663
     14 F         -24.6597    4.5955   27.1424 F       1  UNL1       -0.1663
     15 F         -23.5455    2.8730   27.6901 F       1  UNL1       -0.1663
@<TRIPOS>BOND
     1     6     7    1
     2     2     8    1
     3     8     9    2
     4     8    10    1
     5    10    11    1
     6    11    12    1
     7    12    13    1
     8    12    14    1
     9    12    15    1
    10     1     2   ar
    11     2     3   ar
    12     3     4   ar
    13     4     5   ar
    14     5     6   ar
    15     6     1   ar
