@<TRIPOS>MOLECULE
No_2655-gen_results/8p0m/2024-11-26-14-13-15/
 18 19 0 0 0
SMALL
GASTEIGER

@<TRIPOS>ATOM
      1 C         -28.0162   -0.8135   28.8779 C.ar    1  UNL1        0.0071
      2 C         -27.0636   -0.1190   28.6079 C.ar    1  UNL1        0.0100
      3 C         -26.8756    1.1325   28.9134 C.ar    1  UNL1        0.1387
      4 C         -27.9014    1.8066   29.6436 C.ar    1  UNL1        0.0591
      5 C         -28.9449    1.0388   30.0360 C.ar    1  UNL1        0.1487
      6 C         -29.0273   -0.2890   29.7051 C.ar    1  UNL1        0.1070
      7 F         -25.8229    1.8477   28.5391 F       1  UNL1       -0.2044
      8 C         -30.1454   -1.1949   30.1072 C.2     1  UNL1        0.3899
      9 O         -31.1329   -1.1799   29.6073 O.co2   1  UNL1       -0.2405
     10 O         -29.8547   -2.0907   31.0903 O.co2   1  UNL1       -0.2405
     11 C         -25.8198   -0.7142   27.7664 C.3     1  UNL1        0.0546
     12 C         -24.4914   -0.3702   28.2309 C.2     1  UNL1       -0.0213
     13 C         -24.0212   -0.0030   29.1194 C.2     1  UNL1       -0.0039
     14 C         -22.5719   -0.0431   29.4028 C.2     1  UNL1       -0.0003
     15 C         -22.0392    0.0088   30.5837 C.2     1  UNL1       -0.0000
     16 C         -22.9834    0.3907   31.6554 C.2     1  UNL1       -0.0000
     17 C         -24.5283    0.1434   30.5874 C.2     1  UNL1       -0.0003
     18 F         -29.9344    1.5578   30.7559 F       1  UNL1       -0.2039
@<TRIPOS>BOND
     1     3     7    1
     2     6     8    1
     3     8     9   ar
     4     8    10   ar
     5     2    11    1
     6    11    12    1
     7    12    13    2
     8    13    14    1
     9    14    15    2
    10    15    16    1
    11    13    17    1
    12    16    17    2
    13     5    18    1
    14     1     2   ar
    15     2     3   ar
    16     3     4   ar
    17     4     5   ar
    18     5     6   ar
    19     6     1   ar
