@<TRIPOS>MOLECULE
No_2656-gen_results/8p0m/2024-11-26-14-13-15/
 19 19 0 0 0
SMALL
GASTEIGER

@<TRIPOS>ATOM
      1 C         -28.0162   -0.8135   28.8779 C.ar    1  UNL1       -0.0007
      2 C         -27.0636   -0.1189   28.6079 C.ar    1  UNL1       -0.0179
      3 C         -26.9287    1.1713   29.0083 C.ar    1  UNL1       -0.0007
      4 C         -27.9560    1.7411   29.7840 C.ar    1  UNL1        0.0417
      5 C         -29.0569   -0.3271   29.7466 C.ar    1  UNL1        0.0417
      6 C         -28.9828    0.9722   30.1516 C.ar    1  UNL1        0.1957
      7 C         -25.8815   -0.6260   27.7945 C.3     1  UNL1        0.0482
      8 C         -25.4215    0.1302   26.7096 C.2     1  UNL1       -0.0259
      9 C         -25.0332   -1.6821   28.2396 C.3     1  UNL1        0.0341
     10 C         -24.3977   -1.7439   29.4802 C.2     1  UNL1       -0.0339
     11 C         -23.7636   -0.9612   30.0900 C.2     1  UNL1       -0.0478
     12 C         -23.2701   -1.0475   31.4123 C.3     1  UNL1        0.0260
     13 C         -23.1255    0.2332   29.3632 C.3     1  UNL1        0.0260
     14 O         -30.0245    1.4288   30.9789 O.3     1  UNL1       -0.2866
     15 C         -25.7793    1.1924   26.1349 C.2     1  UNL1       -0.0247
     16 C         -26.8310    1.9922   26.7228 C.3     1  UNL1        0.0636
     17 C         -26.8783    2.2222   28.0912 C.2     1  UNL1        0.0398
     18 C         -26.5404    3.6601   28.4395 C.2     1  UNL1        0.0079
     19 CL        -26.7347    3.1183   27.6142 Cl      1  UNL1       -0.0866
@<TRIPOS>BOND
     1     2     7    1
     2     7     8    1
     3     7     9    1
     4     9    10    1
     5    10    11    2
     6    11    12    1
     7    11    13    1
     8     6    14    1
     9     8    15    2
    10    15    16    1
    11    16    17    1
    12    17    18    2
    13    17    19    1
    14     1     2   ar
    15     2     3   ar
    16     3     4   ar
    17     4     6   ar
    18     6     5   ar
    19     5     1   ar
