@<TRIPOS>MOLECULE
No_2657-gen_results/8p0m/2024-11-26-14-13-15/
 15 17 0 0 0
SMALL
GASTEIGER

@<TRIPOS>ATOM
      1 N         -28.0544   -1.0498   28.7246 N.am    1  UNL1       -0.2013
      2 C         -28.6544   -0.5669   29.5076 C.3     1  UNL1        0.1202
      3 C         -26.7777   -0.5807   28.6029 C.2     1  UNL1        0.2643
      4 C         -26.2700    0.0398   29.5434 C.ar    1  UNL1        0.0499
      5 C         -24.8683    0.5978   29.5214 C.ar    1  UNL1       -0.0016
      6 C         -28.3804    0.0693   30.7208 C.3     1  UNL1        0.0515
      7 C         -27.0025    0.5230   30.7216 C.ar    1  UNL1        0.0029
      8 C         -23.8687   -0.0159   28.8983 C.3     1  UNL1        0.0633
      9 C         -22.5175    0.5426   28.8844 C.3     1  UNL1        0.1712
     10 C         -24.0930    1.1458   30.6447 C.ar    1  UNL1        0.0580
     11 N         -25.0434    1.7839   31.6168 N.ar    1  UNL1       -0.2487
     12 C         -26.3905    1.3248   31.7576 C.ar    1  UNL1        0.0943
     13 C         -22.8301    1.5215   30.5152 C.3     1  UNL1        0.0810
     14 O         -26.1468   -0.9037   27.4685 O.2     1  UNL1       -0.2684
     15 F         -21.4527    0.3962   28.8032 F       1  UNL1       -0.2365
@<TRIPOS>BOND
     1     1     2    1
     2     1     3   am
     3     3     4    1
     4     6     7    1
     5     8     9    1
     6     9    13    1
     7    10    13    1
     8     3    14    2
     9     9    15    1
    10     8     5    1
    11     2     6    1
    12     4     5   ar
    13     5    10   ar
    14    10    11   ar
    15    11    12   ar
    16    12     7   ar
    17     7     4   ar
