@<TRIPOS>MOLECULE
No_2658-gen_results/8p0m/2024-11-26-14-13-15/
 17 19 0 0 0
SMALL
GASTEIGER

@<TRIPOS>ATOM
      1 C         -28.0162   -0.8135   28.8779 C.ar    1  UNL1        0.0000
      2 C         -27.0636   -0.1189   28.6079 C.ar    1  UNL1        0.0012
      3 C         -25.7647   -0.3897   29.0360 C.ar    1  UNL1        0.0158
      4 C         -25.5296   -1.5302   29.9014 C.ar    1  UNL1        0.0012
      5 C         -26.6577   -2.2915   30.2035 C.ar    1  UNL1        0.0000
      6 C         -27.8548   -1.9555   29.7630 C.ar    1  UNL1        0.0000
      7 C         -24.5441    0.4126   28.7379 C.2     1  UNL1        0.0872
      8 N         -23.3654    0.0041   28.9531 N.2     1  UNL1       -0.2264
      9 C         -22.3113    0.8205   28.5690 C.2     1  UNL1        0.1945
     10 N         -22.9131    1.7988   27.7985 N.2     1  UNL1       -0.2415
     11 C         -24.4024    1.5472   27.9139 C.3     1  UNL1        0.1669
     12 C         -25.2850    2.3462   27.2072 C.ar    1  UNL1        0.0055
     13 C         -25.5419    2.0548   25.8982 C.ar    1  UNL1       -0.0020
     14 C         -25.8176    3.4756   27.8609 C.ar    1  UNL1       -0.0020
     15 C         -26.7977    4.2869   27.2905 C.ar    1  UNL1       -0.0003
     16 C         -26.6152    2.8331   25.2399 C.ar    1  UNL1       -0.0003
     17 C         -27.1539    3.9483   25.9521 C.ar    1  UNL1       -0.0000
@<TRIPOS>BOND
     1     3     7    1
     2     7     8    2
     3     8     9    1
     4     9    10    2
     5     7    11    1
     6    10    11    1
     7    11    12    1
     8     1     2   ar
     9     2     3   ar
    10     3     4   ar
    11     4     5   ar
    12     5     6   ar
    13     6     1   ar
    14    12    13   ar
    15    13    16   ar
    16    16    17   ar
    17    17    15   ar
    18    15    14   ar
    19    14    12   ar
