@<TRIPOS>MOLECULE
No_2659-gen_results/8p0m/2024-11-26-14-13-15/
 20 21 0 0 0
SMALL
GASTEIGER

@<TRIPOS>ATOM
      1 CL        -28.1493   -0.8198   28.9079 Cl      1  UNL1       -0.0761
      2 C         -26.9116   -0.0797   28.9452 C.3     1  UNL1        0.2435
      3 F         -26.2828   -0.1883   27.9884 F       1  UNL1       -0.2190
      4 C         -26.3333    0.5804   30.0971 C.3     1  UNL1        0.0787
      5 C         -25.1686    1.0521   30.0923 C.2     1  UNL1       -0.0184
      6 C         -24.6927    2.0440   30.4442 C.2     1  UNL1       -0.0019
      7 C         -24.0374    0.0371   29.6857 C.2     1  UNL1       -0.0087
      8 C         -22.7066    0.4715   29.6067 C.2     1  UNL1       -0.0261
      9 C         -25.7163    3.1149   30.9357 C.ar    1  UNL1        0.0272
     10 C         -21.7848   -0.4830   29.0822 C.3     1  UNL1        0.0307
     11 C         -25.8417    4.3203   30.3293 C.ar    1  UNL1        0.0022
     12 C         -27.0522    4.6005   29.7020 C.ar    1  UNL1        0.0001
     13 C         -28.0230    3.9402   30.0221 C.ar    1  UNL1        0.0022
     14 C         -29.2738    4.1637   29.3724 C.ar    1  UNL1        0.0001
     15 C         -30.4165    3.3890   29.7328 C.ar    1  UNL1        0.0000
     16 C         -30.2105    2.4498   30.7425 C.ar    1  UNL1        0.0001
     17 C         -29.0637    2.2781   31.4100 C.ar    1  UNL1        0.0022
     18 C         -27.9425    3.0510   31.0463 C.ar    1  UNL1        0.0275
     19 C         -26.6799    2.5853   31.4934 C.ar    1  UNL1        0.1400
     20 F         -26.5946    3.0230   32.8933 F       1  UNL1       -0.2042
@<TRIPOS>BOND
     1     1     2    1
     2     2     3    1
     3     2     4    1
     4     4     5    1
     5     5     6    2
     6     5     7    1
     7     7     8    2
     8     6     9    1
     9     8    10    1
    10    19    20    1
    11     9    11   ar
    12    11    12   ar
    13    12    13   ar
    14    18    19   ar
    15    19     9   ar
    16    13    14   ar
    17    14    15   ar
    18    15    16   ar
    19    16    17   ar
    20    17    18   ar
    21    18    13   ar
