@<TRIPOS>MOLECULE
No_266-gen_results/8p0m/2024-11-26-14-13-15/
 16 17 0 0 0
SMALL
GASTEIGER

@<TRIPOS>ATOM
      1 C         -28.0162   -0.8135   28.8779 C.ar    1  UNL1        0.0001
      2 C         -27.0636   -0.1189   28.6079 C.ar    1  UNL1        0.0000
      3 C         -26.9716    0.7139   27.5060 C.ar    1  UNL1        0.0001
      4 C         -28.1053    0.7744   26.6421 C.ar    1  UNL1        0.0046
      5 C         -29.2041    0.1179   27.0477 C.ar    1  UNL1        0.0550
      6 C         -29.2127   -0.6088   28.1281 C.ar    1  UNL1        0.0046
      7 C         -25.7106    1.4518   27.1380 C.ar    1  UNL1        0.0000
      8 C         -25.3772    2.0455   26.1738 C.ar    1  UNL1        0.0000
      9 C         -24.0750    2.7193   25.9782 C.ar    1  UNL1        0.0000
     10 C         -23.0770    2.4988   26.9483 C.ar    1  UNL1        0.0000
     11 C         -23.3638    1.6220   28.0103 C.ar    1  UNL1        0.0000
     12 C         -24.6236    1.0878   28.1747 C.ar    1  UNL1        0.0000
     13 C         -30.4028    0.2680   26.1859 C.2     1  UNL1        0.2648
     14 O         -30.3377    0.2807   25.1140 O.2     1  UNL1       -0.2684
     15 N         -31.6179    0.2060   26.8255 N.am    1  UNL1       -0.1998
     16 C         -32.6060    0.2825   26.5716 C.3     1  UNL1        0.1388
@<TRIPOS>BOND
     1     3     7    1
     2     5    13    1
     3    13    14    2
     4    13    15   am
     5    15    16    1
     6     1     2   ar
     7     2     3   ar
     8     3     4   ar
     9     4     5   ar
    10     5     6   ar
    11     6     1   ar
    12     7     8   ar
    13     8     9   ar
    14     9    10   ar
    15    10    11   ar
    16    11    12   ar
    17    12     7   ar
