@<TRIPOS>MOLECULE
No_2664-gen_results/8p0m/2024-11-26-14-13-15/
 18 17 0 0 0
SMALL
GASTEIGER

@<TRIPOS>ATOM
      1 O         -28.1229   -1.3353   28.4874 O.2     1  UNL1       -0.2669
      2 C         -27.4806   -0.4044   28.7094 C.2     1  UNL1        0.2828
      3 C         -26.3804   -0.0867   27.9394 C.2     1  UNL1        0.0692
      4 N         -27.6665    0.4468   29.8988 N.am    1  UNL1       -0.0839
      5 C         -26.4086    0.8567   26.8802 C.2     1  UNL1        0.0028
      6 C         -25.2466    1.1198   26.1102 C.2     1  UNL1       -0.0022
      7 C         -23.9991    0.7500   26.5964 C.2     1  UNL1        0.0061
      8 C         -23.9411    0.0388   27.7865 C.3     1  UNL1        0.1806
      9 C         -25.0420   -0.3844   28.4675 C.3     1  UNL1        0.2200
     10 CL        -22.4028   -0.3108   28.4709 Cl      1  UNL1       -0.0921
     11 CL        -23.5628    0.2814   28.7275 Cl      1  UNL1       -0.0921
     12 C         -25.1411   -1.7787   29.2025 C.3     1  UNL1        0.2001
     13 C         -25.4546   -1.5597   28.9451 C.3     1  UNL1        0.0386
     14 C         -26.2540   -2.4904   28.1649 C.3     1  UNL1        0.0030
     15 F         -25.6430   -0.3001   29.2772 F       1  UNL1       -0.2293
     16 C         -26.1330   -2.2952   30.0396 C.3     1  UNL1        0.2285
     17 F         -24.5853   -1.9214   28.1190 F       1  UNL1       -0.2339
     18 F         -25.9338   -2.3944   29.2924 F       1  UNL1       -0.2313
@<TRIPOS>BOND
     1     1     2    2
     2     2     3    1
     3     2     4   am
     4     3     5    2
     5     5     6    1
     6     6     7    2
     7     7     8    1
     8     3     9    1
     9     8    10    1
    10     8    11    1
    11     9    12    1
    12    12    13    1
    13    13    14    1
    14     9    15    1
    15    12    16    1
    16    12    17    1
    17    16    18    1
