@<TRIPOS>MOLECULE
No_2666-gen_results/8p0m/2024-11-26-14-13-15/
 10 10 0 0 0
SMALL
GASTEIGER

@<TRIPOS>ATOM
      1 C         -28.0162   -0.8135   28.8779 C.ar    1  UNL1        0.0421
      2 C         -27.0636   -0.1190   28.6079 C.ar    1  UNL1        0.0048
      3 C         -25.7647   -0.3897   29.0360 C.ar    1  UNL1        0.0189
      4 C         -25.5296   -1.5302   29.9014 C.ar    1  UNL1        0.0048
      5 C         -26.6888   -2.2893   30.1810 C.ar    1  UNL1        0.0421
      6 C         -27.8727   -1.9508   29.7373 C.ar    1  UNL1        0.1957
      7 O         -28.9304   -2.7299   30.1154 O.3     1  UNL1       -0.2866
      8 C         -24.5394    0.4211   28.7421 C.2     1  UNL1        0.0932
      9 N         -24.1487    1.3020   29.5552 N.2     1  UNL1       -0.2668
     10 C         -23.0184    2.0228   29.2110 C.3     1  UNL1        0.1517
@<TRIPOS>BOND
     1     6     7    1
     2     3     8    1
     3     8     9    2
     4     9    10    1
     5     1     2   ar
     6     2     3   ar
     7     3     4   ar
     8     4     5   ar
     9     5     6   ar
    10     6     1   ar
