@<TRIPOS>MOLECULE
No_2668-gen_results/8p0m/2024-11-26-14-13-15/
 18 19 0 0 0
SMALL
GASTEIGER

@<TRIPOS>ATOM
      1 C         -28.0162   -0.8135   28.8779 C.3     1  UNL1        0.0210
      2 C         -27.0636   -0.1190   28.6079 C.3     1  UNL1        0.0450
      3 C         -25.7923   -0.4302   29.0761 C.2     1  UNL1       -0.0221
      4 C         -25.2700   -0.0487   30.0123 C.2     1  UNL1       -0.0046
      5 C         -28.5191   -0.6302   30.0918 C.3     1  UNL1        0.0914
      6 C         -27.6457   -0.5646   31.3559 C.2     1  UNL1       -0.0185
      7 C         -26.2550   -0.2092   31.4004 C.2     1  UNL1       -0.0045
      8 C         -29.8542   -1.0864   30.5161 C.2     1  UNL1        0.2556
      9 C         -30.7935   -0.4319   29.7380 C.2     1  UNL1        0.4222
     10 O         -30.6654    0.6039   29.2705 O.co2   1  UNL1       -0.2373
     11 O         -31.6987   -1.3332   29.1327 O.co2   1  UNL1       -0.2373
     12 C         -27.0674    0.7119   27.3645 C.ar    1  UNL1       -0.0184
     13 C         -26.1942    0.6581   26.3533 C.ar    1  UNL1       -0.0040
     14 C         -26.1910    1.3739   25.2689 C.ar    1  UNL1       -0.0003
     15 C         -28.1850    1.5865   27.0704 C.ar    1  UNL1       -0.0040
     16 C         -28.2779    2.3643   25.9951 C.ar    1  UNL1       -0.0003
     17 C         -27.2199    2.2281   25.0219 C.ar    1  UNL1       -0.0000
     18 O         -30.1143   -1.8417   31.4803 O.2     1  UNL1       -0.2840
@<TRIPOS>BOND
     1     1     2    1
     2     2     3    1
     3     3     4    2
     4     1     5    1
     5     5     6    1
     6     4     7    1
     7     6     7    2
     8     5     8    1
     9     8     9    1
    10     9    10   ar
    11     9    11   ar
    12     2    12    1
    13     8    18    2
    14    12    13   ar
    15    13    14   ar
    16    14    17   ar
    17    17    16   ar
    18    16    15   ar
    19    15    12   ar
