@<TRIPOS>MOLECULE
No_2669-gen_results/8p0m/2024-11-26-14-13-15/
 7 7 0 0 0
SMALL
GASTEIGER

@<TRIPOS>ATOM
      1 C         -28.0162   -0.8135   28.8779 C.ar    1  UNL1       -0.0000
      2 C         -27.0636   -0.1190   28.6079 C.ar    1  UNL1       -0.0003
      3 C         -26.9716    0.7139   27.5060 C.ar    1  UNL1       -0.0043
      4 C         -28.1053    0.7744   26.6421 C.ar    1  UNL1       -0.0218
      5 C         -28.0677    1.4872   25.5121 C.3     1  UNL1        0.0310
      6 C         -29.2691   -0.5335   28.2245 C.ar    1  UNL1       -0.0003
      7 C         -29.2230    0.1355   27.0328 C.ar    1  UNL1       -0.0043
@<TRIPOS>BOND
     1     4     5    1
     2     1     2   ar
     3     2     3   ar
     4     3     4   ar
     5     4     7   ar
     6     7     6   ar
     7     6     1   ar
