@<TRIPOS>MOLECULE
No_267-gen_results/8p0m/2024-11-26-14-13-15/
 9 9 0 0 0
SMALL
GASTEIGER

@<TRIPOS>ATOM
      1 C         -28.0162   -0.8135   28.8779 C.3     1  UNL1        0.0468
      2 C         -27.0636   -0.1189   28.6079 C.ar    1  UNL1       -0.0207
      3 C         -25.7647   -0.3897   29.0360 C.ar    1  UNL1       -0.0042
      4 C         -24.5517    0.4058   28.7646 C.ar    1  UNL1       -0.0003
      5 C         -24.6957    1.4480   27.7988 C.ar    1  UNL1       -0.0000
      6 C         -25.9755    1.7250   27.3077 C.ar    1  UNL1       -0.0003
      7 C         -27.0718    1.0134   27.6535 C.ar    1  UNL1       -0.0042
      8 C         -29.2261   -0.0677   29.3149 C.3     1  UNL1        0.1140
      9 N         -29.8160   -0.2110   30.1139 N.3     1  UNL1       -0.1310
@<TRIPOS>BOND
     1     1     8    1
     2     8     9    1
     3     1     2    1
     4     2     3   ar
     5     3     4   ar
     6     4     5   ar
     7     5     6   ar
     8     6     7   ar
     9     7     2   ar
