@<TRIPOS>MOLECULE
No_2670-gen_results/8p0m/2024-11-26-14-13-15/
 35 39 0 0 0
SMALL
GASTEIGER

@<TRIPOS>ATOM
      1 C         -28.0162   -0.8135   28.8779 C.ar    1  UNL1        0.0375
      2 C         -27.0636   -0.1190   28.6079 C.ar    1  UNL1        0.0029
      3 C         -25.7923   -0.4302   29.0761 C.ar    1  UNL1       -0.0022
      4 C         -24.5456    0.3494   28.8225 C.ar    1  UNL1       -0.0043
      5 C         -23.2409    0.0217   29.3323 C.ar    1  UNL1       -0.0027
      6 C         -27.8820   -1.8995   29.8633 C.ar    1  UNL1        0.1453
      7 C         -26.6526   -2.3142   30.3138 C.ar    1  UNL1        0.0375
      8 C         -25.5153   -1.5607   29.9787 C.ar    1  UNL1        0.0028
      9 C         -23.2160   -1.2277   30.0505 C.ar    1  UNL1       -0.0003
     10 C         -24.2438   -1.9369   30.3995 C.ar    1  UNL1        0.0001
     11 C         -24.5721    1.5640   27.9603 C.3     1  UNL1        0.0982
     12 N         -24.9596    1.4667   26.8127 N.pl3   1  UNL1       -0.2889
     13 C         -25.1318    2.4586   25.9764 C.3     1  UNL1        0.1709
     14 C         -23.3666    2.3711   27.8255 C.3     1  UNL1        0.0432
     15 C         -25.2078    0.2502   26.0773 C.2     1  UNL1        0.0584
     16 O         -29.0293   -2.6007   30.1618 O.3     1  UNL1       -0.4533
     17 C         -29.5974   -2.4082   31.4378 C.ar    1  UNL1        0.1496
     18 C         -29.7628   -3.5200   32.1163 C.ar    1  UNL1        0.0895
     19 C         -29.8023   -3.4215   33.5197 C.ar    1  UNL1        0.0076
     20 C         -29.8158   -2.5327   34.0175 C.ar    1  UNL1        0.0003
     21 C         -29.6437   -1.1813   33.4607 C.ar    1  UNL1        0.0031
     22 C         -29.3525   -1.2239   32.0697 C.ar    1  UNL1        0.0376
     23 C         -25.8500    0.2493   24.8297 C.2     1  UNL1       -0.0056
     24 C         -26.1231    3.1693   26.0823 C.2     1  UNL1        0.0071
     25 C         -27.2302    2.6686   25.2017 C.2     1  UNL1       -0.0229
     26 C         -27.1854    1.1644   24.9282 C.3     1  UNL1        0.0531
     27 N         -23.9177    2.9741   25.4642 N.3     1  UNL1       -0.1961
     28 C         -23.1602    3.3468   26.7483 C.3     1  UNL1        0.0929
     29 C         -29.7783   -4.8184   31.3710 C.2     1  UNL1        0.2681
     30 O         -29.5076   -4.9793   30.3152 O.2     1  UNL1       -0.2682
     31 N         -29.8941   -5.9387   32.2043 N.am    1  UNL1       -0.1967
     32 C         -30.0090   -7.2760   31.7098 C.3     1  UNL1        0.1412
     33 C         -30.2828   -8.2213   32.7545 C.2     1  UNL1       -0.0074
     34 C         -29.6544   -8.1325   33.8084 C.2     1  UNL1       -0.0286
     35 C         -29.3067   -6.8088   34.3501 C.3     1  UNL1        0.0304
@<TRIPOS>BOND
     1     4    11    1
     2    11    12    1
     3    12    13    1
     4    11    14    1
     5    12    15    1
     6     6    16    1
     7    16    17    1
     8    15    23    2
     9    13    24    1
    10    24    25    2
    11    23    26    1
    12    25    26    1
    13    27    28    1
    14    18    29    1
    15    29    30    2
    16    29    31   am
    17    31    32    1
    18    32    33    1
    19    33    34    2
    20    34    35    1
    21    14    28    1
    22    27    13    1
    23    17    18   ar
    24    18    19   ar
    25    19    20   ar
    26    20    21   ar
    27    21    22   ar
    28    22    17   ar
    29     1     2   ar
    30     2     3   ar
    31     8     7   ar
    32     7     6   ar
    33     6     1   ar
    34     3     4   ar
    35     4     5   ar
    36     5     9   ar
    37     9    10   ar
    38    10     8   ar
    39     8     3   ar
