@<TRIPOS>MOLECULE
No_2671-gen_results/8p0m/2024-11-26-14-13-15/
 19 20 0 0 0
SMALL
GASTEIGER

@<TRIPOS>ATOM
      1 C         -28.0162   -0.8135   28.8779 C.ar    1  UNL1        0.0112
      2 C         -28.4690   -0.7850   29.8287 C.ar    1  UNL1        0.0577
      3 C         -26.5455   -0.8762   28.8500 C.ar    1  UNL1        0.0003
      4 C         -25.8041   -1.0324   30.0571 C.ar    1  UNL1        0.0217
      5 C         -27.9437   -0.9869   31.2075 C.ar    1  UNL1        0.0112
      6 C         -26.5825   -1.0386   31.2231 C.ar    1  UNL1        0.0003
      7 CL        -30.2809   -0.7232   29.8834 Cl      1  UNL1       -0.0822
      8 C         -24.3690   -1.1185   30.0640 C.3     1  UNL1        0.2210
      9 C         -23.6811    0.1519   30.0835 C.3     1  UNL1        0.0651
     10 C         -23.2612    0.7756   28.8972 C.ar    1  UNL1        0.0004
     11 C         -21.9844    0.6529   28.5637 C.ar    1  UNL1        0.0947
     12 C         -24.1983    1.4822   28.1657 C.ar    1  UNL1       -0.0010
     13 C         -23.7900    1.9339   26.8504 C.ar    1  UNL1        0.0204
     14 N         -21.5038    1.2447   27.3883 N.ar    1  UNL1       -0.2426
     15 C         -22.3469    1.9679   26.6320 C.ar    1  UNL1        0.0989
     16 C         -24.2990    1.2860   30.8783 C.3     1  UNL1        0.0087
     17 C         -22.2776   -0.2369   30.9339 C.3     1  UNL1        0.0087
     18 F         -23.8870   -2.1922   29.8537 F       1  UNL1       -0.2185
     19 CL        -24.2519   -1.8043   30.7875 Cl      1  UNL1       -0.0758
@<TRIPOS>BOND
     1     2     7    1
     2     4     8    1
     3     8     9    1
     4     9    10    1
     5     9    16    1
     6     9    17    1
     7     8    18    1
     8     8    19    1
     9    10    11   ar
    10    11    14   ar
    11    14    15   ar
    12    15    13   ar
    13    13    12   ar
    14    12    10   ar
    15     1     2   ar
    16     2     5   ar
    17     5     6   ar
    18     6     4   ar
    19     4     3   ar
    20     3     1   ar
