@<TRIPOS>MOLECULE
No_2672-gen_results/8p0m/2024-11-26-14-13-15/
 15 16 0 0 0
SMALL
GASTEIGER

@<TRIPOS>ATOM
      1 C         -28.0162   -0.8135   28.8779 C.ar    1  UNL1        0.0228
      2 C         -27.0636   -0.1189   28.6079 C.ar    1  UNL1        0.0585
      3 C         -25.7923   -0.4302   29.0761 C.ar    1  UNL1        0.0107
      4 C         -25.5756   -1.5654   29.9363 C.ar    1  UNL1        0.0017
      5 C         -26.7354   -2.3004   30.2173 C.ar    1  UNL1        0.0114
      6 C         -27.9184   -1.9537   29.7629 C.ar    1  UNL1        0.0585
      7 CL        -27.3552    1.2839   27.7056 Cl      1  UNL1       -0.0822
      8 CL        -29.1876   -3.0393   30.2894 Cl      1  UNL1       -0.0822
      9 C         -24.5410    0.3973   28.7335 C.ar    1  UNL1        0.0030
     10 C         -24.3527    1.0443   27.7043 C.ar    1  UNL1        0.0297
     11 C         -23.1158    1.7139   27.4455 C.ar    1  UNL1        0.1401
     12 C         -22.0060    1.5263   28.2473 C.ar    1  UNL1        0.0296
     13 C         -23.3667    0.0810   29.5950 C.ar    1  UNL1        0.0002
     14 C         -22.1017    0.7348   29.3060 C.ar    1  UNL1        0.0023
     15 F         -23.0716    2.5065   26.3433 F       1  UNL1       -0.2042
@<TRIPOS>BOND
     1     2     7    1
     2     6     8    1
     3     3     9    1
     4    11    15    1
     5     1     2   ar
     6     2     3   ar
     7     3     4   ar
     8     4     5   ar
     9     5     6   ar
    10     6     1   ar
    11     9    10   ar
    12    10    11   ar
    13    11    12   ar
    14    12    14   ar
    15    14    13   ar
    16    13     9   ar
