@<TRIPOS>MOLECULE
No_2673-gen_results/8p0m/2024-11-26-14-13-15/
 24 26 0 0 0
SMALL
GASTEIGER

@<TRIPOS>ATOM
      1 C         -28.0162   -0.8135   28.8779 C.ar    1  UNL1        0.0126
      2 C         -27.0636   -0.1189   28.6079 C.ar    1  UNL1        0.0141
      3 C         -25.7923   -0.4302   29.0761 C.ar    1  UNL1        0.0514
      4 C         -25.5756   -1.5654   29.9363 C.ar    1  UNL1        0.0157
      5 C         -26.7354   -2.3004   30.2173 C.ar    1  UNL1        0.0127
      6 C         -27.9184   -1.9537   29.7629 C.ar    1  UNL1        0.0578
      7 CL        -29.2678   -2.8890   30.2152 Cl      1  UNL1       -0.0822
      8 C         -26.8758    1.0992   27.7123 C.2     1  UNL1       -0.0033
      9 C         -26.5175    2.1227   27.8059 C.2     1  UNL1       -0.0264
     10 C         -25.8888    2.4417   29.1898 C.3     1  UNL1        0.0239
     11 C         -24.4890    2.3095   29.1290 C.3     1  UNL1        0.0454
     12 C         -23.9718    1.0626   29.7723 C.2     1  UNL1        0.0291
     13 C         -22.6077    0.9852   30.1495 C.2     1  UNL1        0.0113
     14 N         -24.7460    0.4201   29.2304 N.pl3   1  UNL1       -0.2885
     15 C         -23.8382    0.2439   27.8017 C.3     1  UNL1        0.1170
     16 C         -26.1710    4.0372   29.5688 C.3     1  UNL1        0.0044
     17 C         -26.7396    4.2580   30.8263 C.3     1  UNL1        0.0003
     18 C         -27.2449    3.2664   31.5374 C.3     1  UNL1        0.0000
     19 C         -27.1832    1.9306   31.1286 C.3     1  UNL1        0.0003
     20 C         -26.4839    1.5411   30.0185 C.3     1  UNL1        0.0041
     21 C         -25.9622    1.7085   31.0398 C.3     1  UNL1        0.0003
     22 C         -25.7367    0.7309   32.1772 C.3     1  UNL1        0.0000
     23 C         -24.8821    2.6898   31.5427 C.3     1  UNL1        0.0000
     24 C         -26.0564    0.9806   33.5679 C.3     1  UNL1        0.0000
@<TRIPOS>BOND
     1     6     7    1
     2     2     8    1
     3     8     9    2
     4     9    10    1
     5    10    11    1
     6    11    12    1
     7    12    13    2
     8     3    14    1
     9    12    14    1
    10    14    15    1
    11    10    16    1
    12    16    17    1
    13    18    19    1
    14    10    20    1
    15    19    20    1
    16    20    21    1
    17    21    22    1
    18    21    23    1
    19    22    24    1
    20    17    18    1
    21     1     2   ar
    22     2     3   ar
    23     3     4   ar
    24     4     5   ar
    25     5     6   ar
    26     6     1   ar
