@<TRIPOS>MOLECULE
No_2675-gen_results/8p0m/2024-11-26-14-13-15/
 17 18 0 0 0
SMALL
GASTEIGER

@<TRIPOS>ATOM
      1 C         -28.0162   -0.8135   28.8779 C.ar    1  UNL1       -0.0039
      2 C         -28.4690   -0.7850   29.8287 C.ar    1  UNL1       -0.0003
      3 C         -26.5042   -0.7777   28.8766 C.ar    1  UNL1       -0.0181
      4 C         -25.6540   -0.6597   27.7191 C.3     1  UNL1        0.0480
      5 C         -27.9180   -0.9374   31.1824 C.ar    1  UNL1       -0.0000
      6 C         -26.5423   -0.9399   31.2606 C.ar    1  UNL1       -0.0003
      7 C         -25.7832   -0.8935   30.1201 C.ar    1  UNL1       -0.0039
      8 C         -25.8989    0.3149   26.7473 C.2     1  UNL1       -0.0435
      9 C         -26.7729    0.4751   26.2575 C.2     1  UNL1       -0.0295
     10 C         -26.9520    1.5350   25.1864 C.3     1  UNL1        0.0517
     11 C         -28.1917    1.8421   24.6418 C.ar    1  UNL1       -0.0178
     12 C         -29.2276    0.9387   24.7259 C.ar    1  UNL1       -0.0039
     13 C         -30.4574    1.3089   24.3447 C.ar    1  UNL1       -0.0003
     14 C         -30.6191    2.6248   23.8051 C.ar    1  UNL1       -0.0000
     15 C         -29.6092    3.5288   23.7831 C.ar    1  UNL1       -0.0003
     16 C         -28.3908    3.1956   24.2665 C.ar    1  UNL1       -0.0039
     17 C         -24.6004    0.8431   26.2271 C.3     1  UNL1        0.0264
@<TRIPOS>BOND
     1     3     4    1
     2     4     8    1
     3     8     9    2
     4     9    10    1
     5    10    11    1
     6     8    17    1
     7    11    12   ar
     8    12    13   ar
     9    13    14   ar
    10    14    15   ar
    11    15    16   ar
    12    16    11   ar
    13     1     2   ar
    14     2     5   ar
    15     5     6   ar
    16     6     7   ar
    17     7     3   ar
    18     3     1   ar
