@<TRIPOS>MOLECULE
No_2676-gen_results/8p0m/2024-11-26-14-13-15/
 25 27 0 0 0
SMALL
GASTEIGER

@<TRIPOS>ATOM
      1 O         -28.1229   -1.3353   28.4874 O.2     1  UNL1       -0.2743
      2 C         -28.5208   -0.4363   29.0779 C.2     1  UNL1        0.2362
      3 C         -27.6655    0.1129   30.0346 C.3     1  UNL1        0.1752
      4 N         -29.5662    0.3302   28.6099 N.am    1  UNL1       -0.2752
      5 C         -27.6931    1.3673   30.4369 C.3     1  UNL1        0.0224
      6 C         -29.7366    1.4215   29.0565 C.3     1  UNL1        0.0979
      7 C         -28.9256    2.1193   29.9967 C.3     1  UNL1        0.0254
      8 C         -30.8714    2.2634   28.5669 C.ar    1  UNL1       -0.0043
      9 C         -31.4525    2.2731   27.5560 C.ar    1  UNL1       -0.0027
     10 C         -32.5745    3.0712   27.1119 C.ar    1  UNL1       -0.0003
     11 C         -33.0423    4.0166   28.0539 C.ar    1  UNL1       -0.0000
     12 C         -32.4507    4.1011   29.2522 C.ar    1  UNL1       -0.0003
     13 C         -31.3538    3.3021   29.6103 C.ar    1  UNL1       -0.0027
     14 C         -30.4030   -0.3216   27.6473 C.3     1  UNL1        0.1151
     15 C         -26.4829   -0.7171   30.5269 C.2     1  UNL1        0.3256
     16 O         -26.4319   -1.0089   31.5469 O.2     1  UNL1       -0.2496
     17 O         -25.6806   -1.1523   29.5644 O.3     1  UNL1       -0.4432
     18 C         -24.2998   -1.0074   29.8819 C.3     1  UNL1        0.2345
     19 C         -23.6558    0.1639   29.6018 C.2     1  UNL1        0.0169
     20 C         -22.3704    0.0636   28.9802 C.2     1  UNL1       -0.0186
     21 C         -21.7366    1.2504   28.5708 C.3     1  UNL1        0.0656
     22 C         -20.9211    1.2434   27.5335 C.2     1  UNL1       -0.0177
     23 C         -20.8077    2.5258   26.9689 C.2     1  UNL1       -0.0042
     24 C         -22.1459    3.1418   26.9070 C.2     1  UNL1       -0.0042
     25 C         -22.9247    2.2189   27.8259 C.2     1  UNL1       -0.0177
@<TRIPOS>BOND
     1     1     2    2
     2     2     3    1
     3     2     4   am
     4     4     6    1
     5     5     7    1
     6     6     8    1
     7     4    14    1
     8     3    15    1
     9    15    16    2
    10    15    17    1
    11    17    18    1
    12    18    19    1
    13    19    20    2
    14    20    21    1
    15    21    22    1
    16    22    23    2
    17    23    24    1
    18    21    25    1
    19    24    25    2
    20     3     5    1
    21     7     6    1
    22     8     9   ar
    23     9    10   ar
    24    10    11   ar
    25    11    12   ar
    26    12    13   ar
    27    13     8   ar
