@<TRIPOS>MOLECULE
No_2677-gen_results/8p0m/2024-11-26-14-13-15/
 20 20 0 0 0
SMALL
GASTEIGER

@<TRIPOS>ATOM
      1 C         -28.0162   -0.8135   28.8779 C.2     1  UNL1       -0.0124
      2 C         -27.0636   -0.1189   28.6079 C.2     1  UNL1       -0.0445
      3 C         -26.8756    1.1325   28.9134 C.3     1  UNL1        0.0225
      4 C         -25.6883    1.9515   28.5672 C.3     1  UNL1        0.0135
      5 C         -24.6394    1.2834   27.8753 C.3     1  UNL1        0.0805
      6 C         -23.4556    1.9996   27.5653 C.2     1  UNL1        0.2603
      7 C         -25.8432   -0.7373   27.9210 C.3     1  UNL1        0.0225
      8 C         -24.6903   -0.0521   27.5832 C.3     1  UNL1        0.0135
      9 N         -22.2280    2.1389   27.8751 N.am    1  UNL1       -0.0878
     10 O         -23.6663    2.7858   26.3732 O.2     1  UNL1       -0.2717
     11 C         -27.8568   -1.4160   30.2772 C.2     1  UNL1       -0.0184
     12 C         -26.7884   -1.4934   30.7811 C.2     1  UNL1       -0.0043
     13 C         -29.0976   -2.1381   30.7962 C.3     1  UNL1        0.0523
     14 C         -30.1345   -1.6635   30.8120 C.2     1  UNL1       -0.0214
     15 C         -30.3433   -0.3805   30.5889 C.2     1  UNL1       -0.0042
     16 C         -29.5652    0.5067   30.9376 C.2     1  UNL1       -0.0003
     17 C         -29.8452    1.5075   31.6454 C.2     1  UNL1       -0.0003
     18 C         -28.9513    2.6364   31.9738 C.2     1  UNL1       -0.0046
     19 C         -27.6216    2.4552   31.5487 C.2     1  UNL1       -0.0258
     20 C         -27.2390    1.3140   30.9237 C.3     1  UNL1        0.0307
@<TRIPOS>BOND
     1     1     2    2
     2     2     3    1
     3     3     4    1
     4     4     5    1
     5     5     6    1
     6     2     7    1
     7     5     8    1
     8     7     8    1
     9     6     9   am
    10     6    10    2
    11     1    11    1
    12    11    12    2
    13    11    13    1
    14    13    14    1
    15    14    15    2
    16    15    16    1
    17    16    17    2
    18    17    18    1
    19    18    19    2
    20    19    20    1
