@<TRIPOS>MOLECULE
No_2678-gen_results/8p0m/2024-11-26-14-13-15/
 26 27 0 0 0
SMALL
GASTEIGER

@<TRIPOS>ATOM
      1 C         -28.0162   -0.8135   28.8779 C.ar    1  UNL1        0.0042
      2 C         -28.4690   -0.7850   29.8287 C.ar    1  UNL1        0.0539
      3 C         -26.5042   -0.7777   28.8766 C.ar    1  UNL1       -0.0041
      4 C         -25.8103   -0.8531   30.1028 C.ar    1  UNL1       -0.0223
      5 C         -27.9906   -0.8916   31.2257 C.ar    1  UNL1        0.0042
      6 C         -26.6042   -0.8676   31.2652 C.ar    1  UNL1       -0.0041
      7 C         -24.3894   -0.8049   30.1638 C.3     1  UNL1        0.0291
      8 C         -23.8172    0.4762   29.9118 C.3     1  UNL1        0.1071
      9 C         -22.5010    0.5449   29.4097 C.3     1  UNL1        0.0116
     10 C         -21.7696   -0.6524   29.2129 C.3     1  UNL1        0.0006
     11 C         -23.6812   -1.3591   31.3252 C.3     1  UNL1        0.0049
     12 C         -23.9055   -1.9011   29.0197 C.3     1  UNL1        0.0046
     13 C         -22.3671   -1.8896   29.1213 C.3     1  UNL1        0.0004
     14 C         -24.5035    1.7207   30.1692 C.2     1  UNL1        0.3646
     15 O         -24.7349    2.1752   31.2868 O.co2   1  UNL1       -0.2457
     16 O         -25.4001    2.1175   29.1809 O.co2   1  UNL1       -0.2457
     17 C         -30.0783   -0.8498   29.8228 C.2     1  UNL1        0.2528
     18 O         -30.7412   -1.6319   30.3162 O.2     1  UNL1       -0.2696
     19 N         -30.6311    0.1719   29.0836 N.am    1  UNL1       -0.2522
     20 C         -32.0561    0.2244   28.8812 C.3     1  UNL1        0.1204
     21 C         -29.8982    1.2869   28.4782 C.2     1  UNL1        0.0678
     22 C         -30.2288    2.5358   29.1735 C.2     1  UNL1        0.0162
     23 C         -29.8816    2.7611   30.3357 C.2     1  UNL1        0.0013
     24 C         -29.8094    3.6735   31.0406 C.2     1  UNL1        0.0000
     25 C         -30.3702    4.9020   30.4220 C.2     1  UNL1        0.0000
     26 C         -30.7806    4.8371   29.1241 C.2     1  UNL1        0.0000
@<TRIPOS>BOND
     1     4     7    1
     2     7     8    1
     3     9    10    1
     4     7    11    1
     5     7    12    1
     6    10    13    1
     7    12    13    1
     8     8    14    1
     9    14    15   ar
    10    14    16   ar
    11     2    17    1
    12    17    18    2
    13    17    19   am
    14    19    20    1
    15    19    21    1
    16    21    22    2
    17    22    23    1
    18    23    24    2
    19    24    25    1
    20    25    26    2
    21     8     9    1
    22     1     2   ar
    23     2     5   ar
    24     5     6   ar
    25     6     4   ar
    26     4     3   ar
    27     3     1   ar
