@<TRIPOS>MOLECULE
No_2679-gen_results/8p0m/2024-11-26-14-13-15/
 10 10 0 0 0
SMALL
GASTEIGER

@<TRIPOS>ATOM
      1 O         -28.1229   -1.3353   28.4874 O.2     1  UNL1       -0.2733
      2 C         -27.4806   -0.4044   28.7094 C.2     1  UNL1        0.2416
      3 C         -27.1904    0.2460   29.5268 C.3     1  UNL1        0.0869
      4 N         -26.8157    0.1371   27.4262 N.am    1  UNL1       -0.2027
      5 C         -26.3550    1.4196   29.7643 C.3     1  UNL1        0.0117
      6 C         -25.9888    1.2374   27.3937 C.3     1  UNL1        0.1169
      7 C         -25.3670    1.6719   26.2222 C.2     1  UNL1       -0.0095
      8 C         -25.7157    1.9137   28.6150 C.3     1  UNL1        0.0267
      9 C         -25.1221    1.0328   25.2608 C.2     1  UNL1       -0.0287
     10 C         -25.7883   -0.3012   25.2915 C.3     1  UNL1        0.0304
@<TRIPOS>BOND
     1     1     2    2
     2     2     3    1
     3     2     4   am
     4     3     5    1
     5     6     7    1
     6     6     8    1
     7     7     9    2
     8     9    10    1
     9     5     8    1
    10     6     4    1
