@<TRIPOS>MOLECULE
No_268-gen_results/8p0m/2024-11-26-14-13-15/
 12 12 0 0 0
SMALL
GASTEIGER

@<TRIPOS>ATOM
      1 C         -28.0162   -0.8135   28.8779 C.1     1  UNL1        0.1004
      2 C         -27.0636   -0.1189   28.6079 C.ar    1  UNL1        0.0684
      3 C         -25.7923   -0.4302   29.0761 C.ar    1  UNL1        0.0102
      4 C         -24.5456    0.3494   28.8225 C.ar    1  UNL1        0.0045
      5 C         -24.6586    1.4196   27.8878 C.ar    1  UNL1        0.0715
      6 C         -25.9471    1.6811   27.3792 C.ar    1  UNL1        0.0045
      7 C         -27.0439    0.9739   27.6871 C.ar    1  UNL1        0.0102
      8 N         -29.1882   -0.1472   29.0918 N.1     1  UNL1       -0.1908
      9 C         -23.4493    2.1414   27.5972 C.3     1  UNL1        0.4186
     10 F         -22.5138    2.0017   28.2347 F       1  UNL1       -0.1659
     11 F         -23.7122    3.4850   27.4799 F       1  UNL1       -0.1659
     12 F         -23.0699    1.7692   26.2729 F       1  UNL1       -0.1659
@<TRIPOS>BOND
     1     1     2    1
     2     1     8    3
     3     5     9    1
     4     9    10    1
     5     9    11    1
     6     9    12    1
     7     2     3   ar
     8     3     4   ar
     9     4     5   ar
    10     5     6   ar
    11     6     7   ar
    12     7     2   ar
