@<TRIPOS>MOLECULE
No_2680-gen_results/8p0m/2024-11-26-14-13-15/
 35 36 0 0 0
SMALL
GASTEIGER

@<TRIPOS>ATOM
      1 C         -28.0162   -0.8135   28.8779 C.3     1  UNL1        0.2017
      2 C         -28.4690   -0.7850   29.8287 C.3     1  UNL1        0.2186
      3 C         -26.5042   -0.7777   28.8766 C.3     1  UNL1        0.0465
      4 C         -25.8305   -1.6807   29.6849 C.3     1  UNL1        0.0062
      5 C         -28.1490   -1.8854   30.9031 C.3     1  UNL1        0.1519
      6 C         -26.6460   -1.9561   31.0330 C.3     1  UNL1        0.0325
      7 O         -28.6274   -1.7308   32.1858 O.3     1  UNL1       -0.3241
      8 O         -30.0168   -0.9269   29.8771 O.3     1  UNL1       -0.2166
      9 C         -24.6534   -2.3030   29.3807 C.3     1  UNL1        0.0002
     10 C         -23.3568   -1.8979   29.8520 C.3     1  UNL1        0.0000
     11 C         -24.6504   -3.6906   28.8594 C.3     1  UNL1        0.0000
     12 O         -28.3766    0.3636   28.0472 O.3     1  UNL1       -0.4465
     13 C         -23.3489   -0.5910   30.4861 C.3     1  UNL1        0.0001
     14 C         -22.8647    0.5637   29.7362 C.3     1  UNL1        0.0020
     15 C         -23.6799    0.9169   28.6942 C.3     1  UNL1        0.0276
     16 C         -23.6933    2.4019   28.3902 C.3     1  UNL1        0.1620
     17 C         -25.0702    2.9931   28.3605 C.2     1  UNL1        0.3789
     18 O         -25.1342    4.0678   27.8925 O.co2   1  UNL1       -0.2442
     19 O         -25.9337    2.4277   28.9981 O.co2   1  UNL1       -0.2442
     20 C         -29.2750    1.1273   28.1465 C.2     1  UNL1        0.3412
     21 C         -29.4606    2.2615   28.2908 C.ar    1  UNL1        0.0756
     22 C         -28.3634    3.1150   28.1485 C.ar    1  UNL1        0.0064
     23 C         -28.5390    4.4889   28.6390 C.ar    1  UNL1        0.0002
     24 C         -29.5970    4.7949   28.9746 C.ar    1  UNL1        0.0000
     25 C         -30.4877    2.9628   28.9684 C.ar    1  UNL1        0.0064
     26 C         -30.6789    4.1848   29.2574 C.ar    1  UNL1        0.0002
     27 O         -30.4662    0.4549   27.7303 O.2     1  UNL1       -0.2449
     28 C         -29.5267   -2.6490   32.7056 C.3     1  UNL1        0.3364
     29 C         -30.3226   -3.3734   31.9097 C.3     1  UNL1        0.3767
     30 F         -29.9156   -4.3354   31.6207 F       1  UNL1       -0.1926
     31 F         -31.4967   -3.5901   32.6026 F       1  UNL1       -0.1926
     32 O         -30.3018   -1.8041   33.6583 O.3     1  UNL1       -0.1835
     33 N         -23.0872    2.5487   27.0576 N.3     1  UNL1       -0.2623
     34 C         -23.7470    2.7772   25.9844 C.3     1  UNL1        0.0901
     35 C         -21.9273    1.6304   26.8875 C.3     1  UNL1        0.0901
@<TRIPOS>BOND
     1     1     2    1
     2     1     3    1
     3     3     4    1
     4     2     5    1
     5     4     6    1
     6     5     6    1
     7     5     7    1
     8     2     8    1
     9     4     9    1
    10     9    10    1
    11     9    11    1
    12     1    12    1
    13    10    13    1
    14    13    14    1
    15    14    15    1
    16    15    16    1
    17    16    17    1
    18    17    18   ar
    19    17    19   ar
    20    12    20    1
    21    20    21    1
    22    20    27    2
    23     7    28    1
    24    28    29    1
    25    29    30    1
    26    29    31    1
    27    28    32    1
    28    16    33    1
    29    33    34    1
    30    33    35    1
    31    21    22   ar
    32    22    23   ar
    33    23    24   ar
    34    24    26   ar
    35    26    25   ar
    36    25    21   ar
