@<TRIPOS>MOLECULE
No_2681-gen_results/8p0m/2024-11-26-14-13-15/
 17 18 0 0 0
SMALL
GASTEIGER

@<TRIPOS>ATOM
      1 C         -28.0162   -0.8135   28.8779 C.ar    1  UNL1       -0.0046
      2 C         -27.0636   -0.1190   28.6079 C.ar    1  UNL1       -0.0261
      3 C         -26.8756    1.1325   28.9134 C.ar    1  UNL1       -0.0259
      4 C         -25.6883    1.9515   28.5672 C.3     1  UNL1        0.0345
      5 C         -24.6394    1.2834   27.8753 C.3     1  UNL1        0.0998
      6 C         -24.8068   -0.0513   27.6040 C.3     1  UNL1        0.0135
      7 C         -25.9019   -0.7670   27.9511 C.3     1  UNL1        0.0263
      8 C         -28.6455   -0.5282   30.2428 C.ar    1  UNL1       -0.0003
      9 C         -28.9122    0.7961   30.4353 C.ar    1  UNL1       -0.0003
     10 C         -27.6444    1.6294   30.2030 C.ar    1  UNL1       -0.0046
     11 C         -23.2953    1.6344   28.2348 C.3     1  UNL1        0.3978
     12 F         -22.5679    1.7336   27.1232 F       1  UNL1       -0.1700
     13 F         -23.1853    2.9472   28.7619 F       1  UNL1       -0.1700
     14 F         -22.6706    0.8280   29.0766 F       1  UNL1       -0.1700
     15 C         -27.4582    2.9480   30.7293 C.2     1  UNL1       -0.0049
     16 C         -27.8390    4.0391   30.0450 C.2     1  UNL1       -0.0258
     17 C         -27.4466    5.2722   30.5806 C.3     1  UNL1        0.0307
@<TRIPOS>BOND
     1     3     4    1
     2     4     5    1
     3     5     6    1
     4     2     7    1
     5     6     7    1
     6     5    11    1
     7    11    12    1
     8    11    13    1
     9    11    14    1
    10    10    15    1
    11    15    16    2
    12    16    17    1
    13     1     2   ar
    14     2     3   ar
    15     3    10   ar
    16    10     9   ar
    17     9     8   ar
    18     8     1   ar
