@<TRIPOS>MOLECULE
No_2682-gen_results/8p0m/2024-11-26-14-13-15/
 19 20 0 0 0
SMALL
GASTEIGER

@<TRIPOS>ATOM
      1 C         -28.0162   -0.8135   28.8779 C.ar    1  UNL1        0.0006
      2 C         -28.4690   -0.7850   29.8287 C.ar    1  UNL1        0.0551
      3 C         -26.5042   -0.7777   28.8766 C.ar    1  UNL1       -0.0176
      4 C         -25.6540   -0.6597   27.7191 C.3     1  UNL1        0.0526
      5 C         -27.9180   -0.9374   31.1824 C.ar    1  UNL1        0.0046
      6 C         -26.5423   -0.9399   31.2606 C.ar    1  UNL1       -0.0002
      7 C         -25.7832   -0.8935   30.1201 C.ar    1  UNL1       -0.0039
      8 C         -25.2204    0.6866   27.3939 C.ar    1  UNL1       -0.0178
      9 C         -23.9014    0.8981   27.7598 C.ar    1  UNL1       -0.0039
     10 C         -23.2620    2.1173   27.2513 C.ar    1  UNL1       -0.0003
     11 C         -23.9515    2.9749   26.4625 C.ar    1  UNL1       -0.0000
     12 C         -25.8717    1.4893   26.4729 C.ar    1  UNL1       -0.0039
     13 C         -25.2452    2.6238   26.0239 C.ar    1  UNL1       -0.0003
     14 C         -30.0573   -0.7965   29.8589 C.2     1  UNL1        0.2690
     15 O         -30.7368   -1.6018   30.3113 O.2     1  UNL1       -0.2680
     16 N         -30.5689    0.2607   29.1765 N.am    1  UNL1       -0.1745
     17 C         -31.9883    0.4014   28.9861 C.2     1  UNL1        0.0844
     18 C         -32.2953    1.1259   27.9905 C.2     1  UNL1       -0.0079
     19 C         -33.5186    1.3569   27.5713 C.3     1  UNL1        0.0321
@<TRIPOS>BOND
     1     3     4    1
     2     4     8    1
     3     2    14    1
     4    14    15    2
     5    14    16   am
     6    16    17    1
     7    17    18    2
     8    18    19    1
     9     1     2   ar
    10     2     5   ar
    11     5     6   ar
    12     6     7   ar
    13     7     3   ar
    14     3     1   ar
    15     8     9   ar
    16     9    10   ar
    17    10    11   ar
    18    11    13   ar
    19    13    12   ar
    20    12     8   ar
