@<TRIPOS>MOLECULE
No_2683-gen_results/8p0m/2024-11-26-14-13-15/
 35 39 0 0 0
SMALL
GASTEIGER

@<TRIPOS>ATOM
      1 C         -28.0162   -0.8135   28.8779 C.3     1  UNL1        0.1375
      2 C         -27.0636   -0.1190   28.6079 C.ar    1  UNL1        0.0037
      3 C         -25.7923   -0.4302   29.0761 C.ar    1  UNL1        0.0550
      4 C         -24.5456    0.3494   28.8225 C.ar    1  UNL1        0.0339
      5 C         -24.6586    1.4196   27.8878 C.ar    1  UNL1        0.1403
      6 C         -25.9471    1.6811   27.3792 C.ar    1  UNL1        0.0294
      7 C         -27.0439    0.9739   27.6871 C.ar    1  UNL1       -0.0001
      8 N         -29.1882   -0.1472   29.0918 N.am    1  UNL1       -0.2005
      9 C         -30.2017   -0.7833   29.7303 C.2     1  UNL1        0.2501
     10 F         -23.5963    2.0984   27.6349 F       1  UNL1       -0.2042
     11 C         -29.9461   -1.9665   30.3502 C.3     1  UNL1        0.1580
     12 C         -28.7083   -2.5804   30.3497 C.3     1  UNL1        0.0422
     13 C         -27.6858   -1.9074   29.7878 C.3     1  UNL1        0.1206
     14 N         -26.3559   -2.2011   29.9238 N.am    1  UNL1       -0.2013
     15 C         -25.4841   -1.5674   29.8384 C.2     1  UNL1        0.2646
     16 O         -31.3780   -0.3212   29.6204 O.2     1  UNL1       -0.2728
     17 O         -24.2803   -1.8903   30.1044 O.2     1  UNL1       -0.2684
     18 C         -31.0909   -2.7098   31.0192 C.2     1  UNL1        0.2540
     19 O         -31.0654   -3.8155   31.2420 O.2     1  UNL1       -0.2725
     20 N         -32.1548   -1.9503   31.4272 N.am    1  UNL1       -0.1788
     21 C         -33.0541   -2.3583   32.2513 C.ar    1  UNL1        0.0734
     22 C         -33.7233   -1.8626   32.8207 C.ar    1  UNL1        0.0166
     23 C         -34.6953   -2.3263   33.8768 C.ar    1  UNL1        0.0013
     24 C         -34.7269   -3.7097   34.0086 C.ar    1  UNL1        0.0001
     25 C         -33.8676   -4.4675   33.2626 C.ar    1  UNL1        0.0013
     26 C         -33.0091   -3.9024   32.4377 C.ar    1  UNL1        0.0166
     27 C         -35.6853   -4.3208   34.9744 C.ar    1  UNL1        0.0000
     28 C         -36.4741   -4.9948   35.0010 C.ar    1  UNL1       -0.0000
     29 C         -37.2805   -5.5002   36.1047 C.ar    1  UNL1       -0.0000
     30 C         -36.9943   -4.9686   37.3718 C.ar    1  UNL1       -0.0003
     31 C         -35.9915   -4.0717   37.4824 C.ar    1  UNL1       -0.0000
     32 C         -35.2394   -3.6249   36.3881 C.ar    1  UNL1       -0.0000
     33 C         -37.7791   -5.4227   38.5187 C.2     1  UNL1       -0.0046
     34 C         -38.6601   -6.1574   38.5475 C.2     1  UNL1       -0.0258
     35 C         -39.4235   -6.6010   39.7238 C.3     1  UNL1        0.0307
@<TRIPOS>BOND
     1     1     2    1
     2     1     8    1
     3     8     9   am
     4     5    10    1
     5     9    11    1
     6     1    13    1
     7    12    13    1
     8     3    15    1
     9    14    15   am
    10     9    16    2
    11    15    17    2
    12    11    18    1
    13    18    19    2
    14    18    20   am
    15    20    21    1
    16    24    27    1
    17    30    33    1
    18    33    34    2
    19    34    35    1
    20    12    11    1
    21    13    14    1
    22    27    28   ar
    23    28    29   ar
    24    29    30   ar
    25    30    31   ar
    26    31    32   ar
    27    32    27   ar
    28     2     7   ar
    29     7     6   ar
    30     6     5   ar
    31     5     4   ar
    32     4     3   ar
    33     3     2   ar
    34    21    22   ar
    35    22    23   ar
    36    23    24   ar
    37    24    25   ar
    38    25    26   ar
    39    26    21   ar
