@<TRIPOS>MOLECULE
No_2684-gen_results/8p0m/2024-11-26-14-13-15/
 35 38 0 0 0
SMALL
GASTEIGER

@<TRIPOS>ATOM
      1 C         -28.0162   -0.8135   28.8779 C.2     1  UNL1        0.2490
      2 C         -27.0636   -0.1189   28.6079 C.ar    1  UNL1        0.0497
      3 C         -25.7923   -0.4302   29.0761 C.ar    1  UNL1       -0.0161
      4 C         -24.5456    0.3494   28.8225 C.ar    1  UNL1       -0.0002
      5 C         -24.6586    1.4196   27.8878 C.ar    1  UNL1        0.0711
      6 C         -25.9471    1.6811   27.3792 C.ar    1  UNL1        0.0040
      7 C         -27.0439    0.9739   27.6871 C.ar    1  UNL1        0.0041
      8 N         -27.9517   -1.7518   29.9375 N.am    1  UNL1       -0.2707
      9 O         -29.2110   -0.3383   28.7434 O.2     1  UNL1       -0.2699
     10 C         -26.8048   -2.3569   30.3683 C.3     1  UNL1        0.0987
     11 C         -25.5836   -1.6019   29.9654 C.3     1  UNL1        0.0480
     12 C         -29.1541   -2.5828   30.3420 C.3     1  UNL1        0.1330
     13 C         -30.0672   -2.0803   30.8811 C.3     1  UNL1        0.0275
     14 C         -31.1596   -2.7689   31.2715 C.3     1  UNL1        0.0057
     15 C         -29.0782   -3.9721   30.2510 C.2     1  UNL1        0.1686
     16 C         -30.0590   -4.7751   30.6968 C.3     1  UNL1        0.0693
     17 C         -31.1432   -4.1903   31.2635 C.3     1  UNL1        0.0444
     18 C         -23.4643    2.1774   27.5331 C.3     1  UNL1        0.4186
     19 F         -22.8152    2.5598   28.4875 F       1  UNL1       -0.1659
     20 F         -23.7968    3.2869   26.7663 F       1  UNL1       -0.1659
     21 F         -22.6051    1.4317   26.7776 F       1  UNL1       -0.1659
     22 O         -27.9026   -4.5874   29.7629 O.2     1  UNL1       -0.2943
     23 C         -32.2969   -5.0156   31.7551 C.3     1  UNL1        0.1833
     24 F         -33.3291   -4.6465   32.1794 F       1  UNL1       -0.2324
     25 C         -32.1193   -6.4487   31.5665 C.2     1  UNL1        0.0084
     26 C         -33.1320   -7.1029   31.2663 C.2     1  UNL1       -0.0019
     27 C         -34.3213   -6.5572   30.9785 C.ar    1  UNL1       -0.0002
     28 C         -35.3576   -7.1916   30.6218 C.ar    1  UNL1       -0.0000
     29 C         -36.6160   -6.5278   30.3679 C.ar    1  UNL1       -0.0000
     30 C         -36.6564   -5.4604   30.3054 C.ar    1  UNL1       -0.0000
     31 C         -35.6306   -4.4856   30.5769 C.ar    1  UNL1       -0.0000
     32 C         -34.4393   -5.0370   30.8750 C.ar    1  UNL1       -0.0003
     33 C         -33.6116   -4.6292   29.5773 C.2     1  UNL1       -0.0046
     34 C         -33.8021   -3.3382   29.1211 C.2     1  UNL1       -0.0258
     35 C         -32.9976   -2.8722   28.0254 C.3     1  UNL1        0.0307
@<TRIPOS>BOND
     1     1     2    1
     2     1     8   am
     3     1     9    2
     4     8    10    1
     5     3    11    1
     6     8    12    1
     7    12    13    1
     8    12    15    1
     9    15    16    1
    10    14    17    1
    11     5    18    1
    12    18    19    1
    13    18    20    1
    14    18    21    1
    15    15    22    2
    16    17    23    1
    17    23    24    1
    18    23    25    1
    19    25    26    2
    20    26    27    1
    21    32    33    1
    22    33    34    2
    23    34    35    1
    24    11    10    1
    25    13    14    1
    26    17    16    1
    27     2     7   ar
    28     7     6   ar
    29     6     5   ar
    30     5     4   ar
    31     4     3   ar
    32     3     2   ar
    33    27    28   ar
    34    28    29   ar
    35    29    30   ar
    36    30    31   ar
    37    31    32   ar
    38    32    27   ar
