@<TRIPOS>MOLECULE
No_2686-gen_results/8p0m/2024-11-26-14-13-15/
 11 11 0 0 0
SMALL
GASTEIGER

@<TRIPOS>ATOM
      1 C         -28.0162   -0.8135   28.8779 C.2     1  UNL1        0.0000
      2 C         -27.0636   -0.1189   28.6079 C.ar    1  UNL1        0.0000
      3 C         -25.7923   -0.4302   29.0761 C.ar    1  UNL1        0.0000
      4 C         -24.5456    0.3494   28.8225 C.ar    1  UNL1        0.0000
      5 C         -24.6586    1.4196   27.8878 C.ar    1  UNL1        0.0000
      6 C         -25.9471    1.6811   27.3792 C.ar    1  UNL1        0.0000
      7 C         -27.0439    0.9739   27.6871 C.ar    1  UNL1        0.0000
      8 C         -28.0485   -1.5981   30.1629 C.2     1  UNL1        0.0009
      9 C         -26.7598   -2.0713   30.6119 C.2     1  UNL1        0.0122
     10 C         -25.6104   -1.4023   30.1708 C.2     1  UNL1        0.0682
     11 CL        -24.1145   -1.7550   30.7884 Cl      1  UNL1       -0.0814
@<TRIPOS>BOND
     1     1     2    1
     2     1     8    2
     3     8     9    1
     4     9    10    2
     5    10    11    1
     6     2     3   ar
     7     3     4   ar
     8     4     5   ar
     9     5     6   ar
    10     6     7   ar
    11     7     2   ar
