@<TRIPOS>MOLECULE
No_2687-gen_results/8p0m/2024-11-26-14-13-15/
 3 2 0 0 0
SMALL
GASTEIGER

@<TRIPOS>ATOM
      1 O         -28.1229   -1.3353   28.4874 O.2     1  UNL1       -0.2831
      2 C         -27.0637   -0.8242   28.8687 C.2     1  UNL1        0.2344
      3 C         -26.0496   -0.9362   28.7578 C.2     1  UNL1        0.0488
@<TRIPOS>BOND
     1     1     2    1
     2     2     3    2
