@<TRIPOS>MOLECULE
No_2688-gen_results/8p0m/2024-11-26-14-13-15/
 15 15 0 0 0
SMALL
GASTEIGER

@<TRIPOS>ATOM
      1 C         -28.0162   -0.8135   28.8779 C.ar    1  UNL1        0.0413
      2 C         -27.0636   -0.1189   28.6079 C.ar    1  UNL1        0.0744
      3 C         -26.9287    1.1713   29.0083 C.ar    1  UNL1        0.0041
      4 C         -27.9560    1.7411   29.7840 C.ar    1  UNL1        0.0031
      5 C         -29.0569   -0.3271   29.7466 C.ar    1  UNL1        0.1454
      6 C         -28.9828    0.9722   30.1516 C.ar    1  UNL1        0.0375
      7 C         -25.8907   -0.6263   27.7857 C.3     1  UNL1        0.4187
      8 F         -25.5296   -1.7103   28.1045 F       1  UNL1       -0.1659
      9 F         -24.7309    0.2337   27.8305 F       1  UNL1       -0.1659
     10 F         -26.1889   -0.4828   26.4075 F       1  UNL1       -0.1659
     11 O         -30.0343   -1.1787   30.1181 O.3     1  UNL1       -0.4504
     12 C         -30.9421   -0.7879   30.9485 C.2     1  UNL1        0.1795
     13 C         -32.0208   -1.6582   31.1227 C.2     1  UNL1        0.0407
     14 C         -31.9925   -2.8475   30.5624 C.2     1  UNL1        0.0032
     15 C         -31.4237   -2.9509   29.4653 C.2     1  UNL1        0.0001
@<TRIPOS>BOND
     1     2     7    1
     2     7     8    1
     3     7     9    1
     4     7    10    1
     5     5    11    1
     6    11    12    1
     7    12    13    2
     8    13    14    1
     9    14    15    2
    10     1     2   ar
    11     2     3   ar
    12     3     4   ar
    13     4     6   ar
    14     6     5   ar
    15     5     1   ar
