@<TRIPOS>MOLECULE
No_269-gen_results/8p0m/2024-11-26-14-13-15/
 25 26 0 0 0
SMALL
GASTEIGER

@<TRIPOS>ATOM
      1 C         -28.0162   -0.8135   28.8779 C.2     1  UNL1        0.2649
      2 C         -27.0636   -0.1189   28.6079 C.ar    1  UNL1        0.0550
      3 C         -27.0010    0.6913   27.4910 C.ar    1  UNL1        0.0045
      4 C         -25.8548    1.4825   27.0830 C.ar    1  UNL1        0.0040
      5 C         -24.9008    1.3894   27.5922 C.ar    1  UNL1        0.0714
      6 C         -24.6783    0.5764   28.8299 C.ar    1  UNL1        0.0040
      7 C         -25.7704   -0.2051   29.2800 C.ar    1  UNL1        0.0045
      8 N         -27.8957   -1.5414   30.0594 N.am    1  UNL1       -0.1990
      9 C         -23.5769    2.1908   27.3210 C.3     1  UNL1        0.4186
     10 F         -23.5816    2.7557   26.2476 F       1  UNL1       -0.1659
     11 F         -23.2333    3.0786   28.2852 F       1  UNL1       -0.1659
     12 F         -22.4516    1.3675   27.2519 F       1  UNL1       -0.1659
     13 O         -29.0889   -0.8138   28.3889 O.2     1  UNL1       -0.2684
     14 C         -29.0059   -2.4450   30.6140 C.3     1  UNL1        0.1474
     15 C         -28.8275   -3.7811   30.2713 C.3     1  UNL1        0.1657
     16 O         -29.0375   -4.6151   31.2014 O.3     1  UNL1       -0.3526
     17 C         -30.3902   -4.8717   31.4549 C.3     1  UNL1        0.1116
     18 C         -31.0049   -4.3985   32.4734 C.ar    1  UNL1        0.0020
     19 C         -31.6859   -3.5353   32.5051 C.ar    1  UNL1       -0.0020
     20 C         -31.5634   -2.4290   33.4267 C.ar    1  UNL1       -0.0002
     21 C         -30.9874   -2.7153   34.7355 C.ar    1  UNL1       -0.0000
     22 C         -30.2440   -3.9240   34.7880 C.ar    1  UNL1       -0.0002
     23 C         -30.1356   -4.7050   33.6887 C.ar    1  UNL1       -0.0020
     24 C         -30.3282   -6.4673   31.4260 C.3     1  UNL1        0.0342
     25 C         -31.1935   -4.6696   30.1864 C.3     1  UNL1        0.0342
@<TRIPOS>BOND
     1     1     2    1
     2     1     8   am
     3     5     9    1
     4     9    10    1
     5     9    11    1
     6     9    12    1
     7     1    13    2
     8     8    14    1
     9    14    15    1
    10    15    16    1
    11    16    17    1
    12    17    18    1
    13    17    24    1
    14    17    25    1
    15    18    19   ar
    16    19    20   ar
    17    20    21   ar
    18    21    22   ar
    19    22    23   ar
    20    23    18   ar
    21     2     3   ar
    22     3     4   ar
    23     4     5   ar
    24     5     6   ar
    25     6     7   ar
    26     7     2   ar
