@<TRIPOS>MOLECULE
No_2690-gen_results/8p0m/2024-11-26-14-13-15/
 14 14 0 0 0
SMALL
GASTEIGER

@<TRIPOS>ATOM
      1 C         -28.0162   -0.8135   28.8779 C.ar    1  UNL1        0.0041
      2 C         -28.4690   -0.7850   29.8287 C.ar    1  UNL1        0.0031
      3 C         -28.1960    0.3478   28.0550 C.ar    1  UNL1        0.0744
      4 C         -29.0191    1.3501   28.3782 C.ar    1  UNL1        0.0413
      5 C         -29.4107    0.1803   30.3782 C.ar    1  UNL1        0.0375
      6 C         -29.6059    1.2495   29.6193 C.ar    1  UNL1        0.1454
      7 C         -27.4478    0.3799   26.7122 C.3     1  UNL1        0.4187
      8 F         -28.0583    0.1371   25.7461 F       1  UNL1       -0.1659
      9 F         -26.3526   -0.4665   26.8003 F       1  UNL1       -0.1659
     10 F         -26.9557    1.6777   26.6078 F       1  UNL1       -0.1659
     11 O         -30.4555    2.2508   30.0060 O.3     1  UNL1       -0.4508
     12 C         -30.0428    3.0156   30.9515 C.2     1  UNL1        0.1750
     13 C         -29.4704    2.8499   31.9357 C.2     1  UNL1        0.0148
     14 C         -29.0262    3.8208   32.9126 C.3     1  UNL1        0.0341
@<TRIPOS>BOND
     1     3     7    1
     2     7     8    1
     3     7     9    1
     4     7    10    1
     5     6    11    1
     6    11    12    1
     7    12    13    2
     8    13    14    1
     9     1     2   ar
    10     2     5   ar
    11     5     6   ar
    12     6     4   ar
    13     4     3   ar
    14     3     1   ar
