@<TRIPOS>MOLECULE
No_2691-gen_results/8p0m/2024-11-26-14-13-15/
 11 11 0 0 0
SMALL
GASTEIGER

@<TRIPOS>ATOM
      1 O         -28.1229   -1.3353   28.4874 O.2     1  UNL1       -0.2718
      2 C         -27.4806   -0.4044   28.7094 C.2     1  UNL1        0.2575
      3 C         -27.1904    0.2460   29.5268 C.3     1  UNL1        0.1505
      4 N         -26.6021   -0.1576   27.5515 N.am    1  UNL1       -0.2000
      5 C         -25.6421    0.9031   27.5822 C.3     1  UNL1        0.1343
      6 C         -24.6412    1.0988   26.6164 C.2     1  UNL1       -0.0080
      7 C         -25.6501    1.8847   28.6196 C.3     1  UNL1        0.1152
      8 N         -26.5030    1.0210   29.8902 N.3     1  UNL1       -0.2080
      9 C         -23.7887    1.8052   26.5490 C.2     1  UNL1       -0.0286
     10 C         -22.7887    1.9582   25.5311 C.3     1  UNL1        0.0304
     11 C         -28.0796   -0.1859   30.8944 C.3     1  UNL1        0.0287
@<TRIPOS>BOND
     1     1     2    2
     2     2     3    1
     3     2     4   am
     4     4     5    1
     5     5     6    1
     6     5     7    1
     7     3     8    1
     8     7     8    1
     9     6     9    2
    10     9    10    1
    11     3    11    1
