@<TRIPOS>MOLECULE
No_2692-gen_results/8p0m/2024-11-26-14-13-15/
 16 17 0 0 0
SMALL
GASTEIGER

@<TRIPOS>ATOM
      1 C         -28.0162   -0.8135   28.8779 C.2     1  UNL1        0.0584
      2 C         -27.0636   -0.1189   28.6079 C.2     1  UNL1        0.0218
      3 C         -25.7647   -0.3897   29.0360 C.3     1  UNL1        0.0554
      4 C         -24.5516    0.4058   28.7646 C.ar    1  UNL1       -0.0212
      5 C         -24.6957    1.4480   27.7988 C.ar    1  UNL1       -0.0181
      6 C         -25.9755    1.7250   27.3077 C.3     1  UNL1        0.0948
      7 C         -27.0718    1.0134   27.6535 C.2     1  UNL1        0.1739
      8 C         -28.6043   -0.4743   30.2323 C.2     1  UNL1        0.2648
      9 O         -28.2997    0.2196   30.9512 O.2     1  UNL1       -0.2684
     10 N         -29.7858   -1.3413   30.4505 N.am    1  UNL1       -0.1998
     11 C         -23.5037    2.2389   27.5075 C.ar    1  UNL1       -0.0041
     12 C         -22.2279    1.8090   27.9014 C.ar    1  UNL1       -0.0003
     13 C         -22.1654    0.7250   28.8269 C.ar    1  UNL1       -0.0003
     14 C         -23.3127   -0.0450   29.2144 C.ar    1  UNL1       -0.0042
     15 C         -30.5101   -1.1627   31.7452 C.3     1  UNL1        0.1388
     16 O         -28.2753    1.2991   27.1723 O.2     1  UNL1       -0.2913
@<TRIPOS>BOND
     1     1     2    2
     2     2     3    1
     3     3     4    1
     4     5     6    1
     5     2     7    1
     6     6     7    1
     7     1     8    1
     8     8     9    2
     9     8    10   am
    10    10    15    1
    11     7    16    2
    12     4     5   ar
    13     5    11   ar
    14    11    12   ar
    15    12    13   ar
    16    13    14   ar
    17    14     4   ar
