@<TRIPOS>MOLECULE
No_2693-gen_results/8p0m/2024-11-26-14-13-15/
 25 27 0 0 0
SMALL
GASTEIGER

@<TRIPOS>ATOM
      1 CL        -28.1493   -0.8198   28.9079 Cl      1  UNL1       -0.0782
      2 C         -26.9116   -0.0797   28.9452 C.ar    1  UNL1        0.1027
      3 C         -26.0490   -0.0718   27.8591 C.ar    1  UNL1        0.1598
      4 C         -24.6574   -0.0370   27.9638 C.ar    1  UNL1        0.0416
      5 C         -24.0330    0.3795   29.2055 C.ar    1  UNL1        0.0415
      6 C         -24.8800    0.4305   30.3096 C.ar    1  UNL1        0.0156
      7 C         -26.1988    0.1664   30.1892 C.ar    1  UNL1        0.0713
      8 C         -22.6193    0.6104   29.2241 C.ar    1  UNL1        0.1854
      9 N         -21.8026    1.4068   28.9086 N.ar    1  UNL1       -0.2016
     10 N         -21.9009   -0.6120   29.7378 N.ar    1  UNL1       -0.1269
     11 C         -20.5439    0.9547   28.5704 C.ar    1  UNL1        0.2230
     12 N         -20.6412   -0.2621   29.1641 N.ar    1  UNL1       -0.1237
     13 CL        -27.2001    0.2212   31.6326 Cl      1  UNL1       -0.0813
     14 O         -26.5101   -0.4330   26.6331 O.3     1  UNL1       -0.4230
     15 C         -26.5191    0.6493   25.7168 C.2     1  UNL1        0.3260
     16 C         -27.6024    0.3720   24.8275 C.3     1  UNL1        0.1360
     17 C         -28.5729   -0.5053   25.1502 C.2     1  UNL1       -0.0145
     18 C         -29.7262   -0.6437   24.1532 C.2     1  UNL1       -0.0040
     19 C         -30.7172   -0.1016   24.4234 C.ar    1  UNL1       -0.0003
     20 C         -30.8984    0.9678   25.2587 C.ar    1  UNL1       -0.0000
     21 C         -31.9926    1.8410   24.9630 C.ar    1  UNL1       -0.0000
     22 C         -33.0900    1.4093   24.2240 C.ar    1  UNL1       -0.0000
     23 C         -32.9764    0.2838   23.4281 C.ar    1  UNL1       -0.0000
     24 C         -31.8054   -0.4271   23.4341 C.ar    1  UNL1       -0.0000
     25 O         -25.6956    1.4662   25.5945 O.2     1  UNL1       -0.2493
@<TRIPOS>BOND
     1     1     2    1
     2     5     8    1
     3     8     9   ar
     4     8    10   ar
     5     9    11   ar
     6    10    12   ar
     7    11    12   ar
     8     7    13    1
     9     3    14    1
    10    14    15    1
    11    15    16    1
    12    16    17    1
    13    17    18    2
    14    18    19    1
    15    15    25    2
    16     2     3   ar
    17     3     4   ar
    18     4     5   ar
    19     5     6   ar
    20     6     7   ar
    21     7     2   ar
    22    19    20   ar
    23    20    21   ar
    24    21    22   ar
    25    22    23   ar
    26    23    24   ar
    27    24    19   ar
