@<TRIPOS>MOLECULE
No_2694-gen_results/8p0m/2024-11-26-14-13-15/
 14 15 0 0 0
SMALL
GASTEIGER

@<TRIPOS>ATOM
      1 C         -28.0162   -0.8135   28.8779 C.ar    1  UNL1        0.0729
      2 C         -27.0636   -0.1189   28.6079 C.ar    1  UNL1        0.0039
      3 C         -27.0010    0.6913   27.4910 C.ar    1  UNL1        0.0015
      4 C         -28.1373    0.7363   26.6350 C.ar    1  UNL1        0.0191
      5 C         -29.2360    0.0765   27.0690 C.ar    1  UNL1        0.0813
      6 C         -29.2177   -0.6429   28.1747 C.ar    1  UNL1        0.0216
      7 N         -30.2580    0.2555   26.0835 N.ar    1  UNL1       -0.2438
      8 C         -31.3287   -0.4493   26.2990 C.ar    1  UNL1        0.0988
      9 C         -31.5203   -1.0998   27.5316 C.ar    1  UNL1        0.0207
     10 C         -30.4720   -1.2918   28.4052 C.ar    1  UNL1        0.0030
     11 C         -28.0191   -1.6414   30.1564 C.3     1  UNL1        0.4186
     12 F         -28.8004   -1.7301   30.8877 F       1  UNL1       -0.1659
     13 F         -27.6694   -2.9966   29.6777 F       1  UNL1       -0.1659
     14 F         -26.7935   -1.4310   30.8656 F       1  UNL1       -0.1659
@<TRIPOS>BOND
     1     1    11    1
     2    11    12    1
     3    11    13    1
     4    11    14    1
     5     1     2   ar
     6     2     3   ar
     7     3     4   ar
     8     4     5   ar
     9     6     1   ar
    10     5     6   ar
    11     6    10   ar
    12    10     9   ar
    13     9     8   ar
    14     8     7   ar
    15     7     5   ar
