@<TRIPOS>MOLECULE
No_2695-gen_results/8p0m/2024-11-26-14-13-15/
 16 17 0 0 0
SMALL
GASTEIGER

@<TRIPOS>ATOM
      1 C         -28.0162   -0.8135   28.8779 C.ar    1  UNL1        0.0145
      2 C         -28.4690   -0.7850   29.8287 C.ar    1  UNL1        0.0579
      3 C         -26.5042   -0.7777   28.8766 C.ar    1  UNL1        0.0384
      4 C         -25.8103   -0.8531   30.1028 C.ar    1  UNL1        0.1455
      5 C         -27.9906   -0.8916   31.2257 C.ar    1  UNL1        0.0145
      6 C         -26.6042   -0.8676   31.2652 C.ar    1  UNL1        0.0384
      7 O         -24.5004   -0.7818   30.1446 O.3     1  UNL1       -0.4504
      8 C         -23.8204   -0.0416   30.9033 C.2     1  UNL1        0.1795
      9 CL        -30.3189   -0.8782   29.8208 Cl      1  UNL1       -0.0822
     10 C         -23.9851    0.9616   31.3821 C.2     1  UNL1        0.0407
     11 C         -24.5767    2.1417   30.8337 C.ar    1  UNL1        0.0031
     12 C         -24.9509    3.3209   31.5234 C.ar    1  UNL1        0.0001
     13 C         -25.5082    4.4508   30.9196 C.ar    1  UNL1        0.0000
     14 C         -25.8370    4.3854   29.5716 C.ar    1  UNL1        0.0000
     15 C         -25.4963    3.2414   28.8604 C.ar    1  UNL1        0.0000
     16 C         -24.9025    2.1500   29.4772 C.ar    1  UNL1        0.0001
@<TRIPOS>BOND
     1     4     7    1
     2     7     8    1
     3     2     9    1
     4     8    10    2
     5    10    11    1
     6    11    12   ar
     7    12    13   ar
     8    13    14   ar
     9    14    15   ar
    10    15    16   ar
    11    16    11   ar
    12     1     2   ar
    13     2     5   ar
    14     5     6   ar
    15     6     4   ar
    16     4     3   ar
    17     3     1   ar
