@<TRIPOS>MOLECULE
No_2696-gen_results/8p0m/2024-11-26-14-13-15/
 23 23 0 0 0
SMALL
GASTEIGER

@<TRIPOS>ATOM
      1 C         -28.0162   -0.8135   28.8779 C.3     1  UNL1        0.0463
      2 C         -27.0636   -0.1190   28.6079 C.ar    1  UNL1       -0.0174
      3 C         -26.9287    1.1713   29.0083 C.ar    1  UNL1        0.0677
      4 C         -25.7702    2.0341   28.6884 C.ar    1  UNL1        0.0100
      5 C         -24.7141    1.4431   27.9188 C.ar    1  UNL1        0.0756
      6 C         -24.8590    0.0783   27.5836 C.ar    1  UNL1        0.0061
      7 C         -25.9647   -0.6606   27.9164 C.ar    1  UNL1       -0.0041
      8 C         -28.0422   -1.5426   30.2417 C.3     1  UNL1        0.2021
      9 C         -27.0190   -1.6622   30.7927 C.2     1  UNL1        0.3730
     10 C         -29.3225   -2.1909   30.6052 C.3     1  UNL1        0.4080
     11 F         -29.2121   -3.2952   30.8973 F       1  UNL1       -0.1694
     12 F         -30.2347   -2.0780   29.6528 F       1  UNL1       -0.1694
     13 F         -29.7283   -1.4665   31.6853 F       1  UNL1       -0.1694
     14 C         -23.5302    2.1722   27.5761 C.2     1  UNL1        0.3413
     15 O         -23.3591    3.0023   27.0232 O.2     1  UNL1       -0.2449
     16 O         -22.4018    1.6960   28.3143 O.3     1  UNL1       -0.4413
     17 C         -21.7290    0.5792   27.8556 C.3     1  UNL1        0.2560
     18 O         -26.4492   -0.8390   31.5968 O.co2   1  UNL1       -0.2453
     19 O         -26.3335   -2.8401   30.9146 O.co2   1  UNL1       -0.2453
     20 C         -27.9614    1.9800   29.7901 C.3     1  UNL1        0.4183
     21 F         -27.9709    3.0082   29.6474 F       1  UNL1       -0.1659
     22 F         -27.7291    1.4973   31.1221 F       1  UNL1       -0.1659
     23 F         -29.1799    1.4461   29.3270 F       1  UNL1       -0.1659
@<TRIPOS>BOND
     1     1     2    1
     2     1     8    1
     3     8     9    1
     4     8    10    1
     5    10    11    1
     6    10    12    1
     7    10    13    1
     8     5    14    1
     9    14    15    2
    10    14    16    1
    11    16    17    1
    12     9    18   ar
    13     9    19   ar
    14     3    20    1
    15    20    21    1
    16    20    22    1
    17    20    23    1
    18     2     3   ar
    19     3     4   ar
    20     4     5   ar
    21     5     6   ar
    22     6     7   ar
    23     7     2   ar
