@<TRIPOS>MOLECULE
No_2697-gen_results/8p0m/2024-11-26-14-13-15/
 10 10 0 0 0
SMALL
GASTEIGER

@<TRIPOS>ATOM
      1 C         -28.0162   -0.8135   28.8779 C.ar    1  UNL1        0.0039
      2 C         -28.4690   -0.7850   29.8287 C.ar    1  UNL1       -0.0001
      3 C         -27.1356    0.2359   28.5352 C.ar    1  UNL1        0.0714
      4 C         -26.3351    0.2900   27.2835 C.3     1  UNL1        0.4186
      5 C         -28.3692    0.1957   30.9236 C.ar    1  UNL1       -0.0000
      6 C         -27.5158    1.2655   30.6540 C.ar    1  UNL1       -0.0001
      7 C         -26.8411    1.2942   29.4761 C.ar    1  UNL1        0.0039
      8 F         -26.1245    1.4167   27.0537 F       1  UNL1       -0.1659
      9 F         -25.2198   -0.4470   27.4083 F       1  UNL1       -0.1659
     10 F         -27.0790   -0.1920   26.2280 F       1  UNL1       -0.1659
@<TRIPOS>BOND
     1     3     4    1
     2     4     8    1
     3     4     9    1
     4     4    10    1
     5     1     2   ar
     6     2     5   ar
     7     5     6   ar
     8     6     7   ar
     9     7     3   ar
    10     3     1   ar
