@<TRIPOS>MOLECULE
No_2698-gen_results/8p0m/2024-11-26-14-13-15/
 33 34 0 0 0
SMALL
GASTEIGER

@<TRIPOS>ATOM
      1 C         -28.0162   -0.8135   28.8779 C.3     1  UNL1        0.0996
      2 C         -27.0636   -0.1189   28.6079 C.ar    1  UNL1       -0.0017
      3 C         -27.0010    0.6913   27.4910 C.ar    1  UNL1        0.0525
      4 C         -25.8548    1.4825   27.0830 C.ar    1  UNL1        0.0084
      5 C         -24.6901    1.4526   27.8807 C.ar    1  UNL1        0.0503
      6 C         -24.7379    0.6010   29.0416 C.ar    1  UNL1        0.0038
      7 C         -25.8234   -0.1688   29.3887 C.ar    1  UNL1       -0.0026
      8 N         -28.7300   -0.5298   30.0429 N.3     1  UNL1       -0.2628
      9 C         -28.9322    0.3226   30.5381 C.3     1  UNL1        0.1008
     10 C         -29.3038    1.0059   31.2658 C.2     1  UNL1        0.0426
     11 C         -29.7293    2.1285   31.9743 C.2     1  UNL1        0.2080
     12 C         -23.5223    2.2331   27.5849 C.2     1  UNL1        0.2536
     13 CL        -22.8702    2.1513   26.1027 Cl      1  UNL1       -0.0382
     14 C         -29.9372    3.0685   32.6885 C.3     1  UNL1        0.4438
     15 F         -30.8399    3.5708   32.5697 F       1  UNL1       -0.1638
     16 F         -29.7605    2.6107   33.9717 F       1  UNL1       -0.1638
     17 F         -30.6944    2.4331   31.1941 F       1  UNL1       -0.2007
     18 F         -28.6783    3.7033   32.6508 F       1  UNL1       -0.1638
     19 C         -29.2945   -1.8282   30.6692 C.3     1  UNL1        0.1108
     20 O         -22.6709    2.3909   28.6061 O.2     1  UNL1       -0.2739
     21 C         -29.3227   -1.8789   32.0564 C.3     1  UNL1        0.1932
     22 O         -28.6286   -2.7430   32.4445 O.3     1  UNL1       -0.2165
     23 C         -28.1638    0.8594   26.6280 C.2     1  UNL1        0.2646
     24 O         -28.2630    0.4791   25.5335 O.2     1  UNL1       -0.2684
     25 N         -29.2978    1.4361   27.2333 N.am    1  UNL1       -0.1998
     26 C         -30.5533    1.5780   26.5823 C.3     1  UNL1        0.1388
     27 C         -29.9100   -0.0014   32.5457 C.3     1  UNL1        0.1887
     28 C         -30.4871   -2.7508   32.1719 C.2     1  UNL1        0.0247
     29 C         -30.3952   -0.0412   33.7873 C.3     1  UNL1        0.0521
     30 O         -31.0287   -0.4187   32.1914 O.2     1  UNL1       -0.4649
     31 C         -31.8640   -1.1887   32.4783 C.2     1  UNL1        0.2151
     32 C         -31.8043   -2.3648   32.2163 C.1     1  UNL1       -0.0679
     33 C         -30.2935   -4.1948   32.1390 C.3     1  UNL1        0.0374
@<TRIPOS>BOND
     1     1     2    1
     2     1     8    1
     3     8     9    1
     4     9    10    1
     5    10    11    2
     6     5    12    1
     7    12    13    1
     8    11    14    1
     9    14    15    1
    10    14    16    1
    11    11    17    1
    12    14    18    1
    13     8    19    1
    14    12    20    2
    15    19    21    1
    16    21    22    1
    17     3    23    1
    18    23    24    2
    19    23    25   am
    20    25    26    1
    21    10    27    1
    22    21    28    1
    23    27    29    1
    24    27    30    1
    25    30    31    1
    26    28    32    2
    27    31    32    2
    28    28    33    1
    29     2     3   ar
    30     3     4   ar
    31     4     5   ar
    32     5     6   ar
    33     6     7   ar
    34     7     2   ar
