@<TRIPOS>MOLECULE
No_2699-gen_results/8p0m/2024-11-26-14-13-15/
 35 36 0 0 0
SMALL
GASTEIGER

@<TRIPOS>ATOM
      1 C         -28.0162   -0.8135   28.8779 C.ar    1  UNL1        0.0103
      2 C         -28.4690   -0.7850   29.8287 C.ar    1  UNL1        0.0756
      3 C         -26.5041   -0.7777   28.8766 C.ar    1  UNL1        0.0716
      4 C         -25.6540   -0.6597   27.7191 C.3     1  UNL1        0.4186
      5 C         -27.9180   -0.9374   31.1824 C.ar    1  UNL1        0.0064
      6 C         -26.5423   -0.9399   31.2606 C.ar    1  UNL1        0.0002
      7 C         -25.7832   -0.8935   30.1201 C.ar    1  UNL1        0.0039
      8 F         -26.1493   -0.9221   26.6964 F       1  UNL1       -0.1659
      9 F         -24.4712   -1.4359   27.8608 F       1  UNL1       -0.1659
     10 F         -25.0850    0.6517   27.6455 F       1  UNL1       -0.1659
     11 C         -30.0541   -0.7985   29.8757 C.2     1  UNL1        0.3428
     12 O         -30.4701   -0.2495   28.9599 O.3     1  UNL1       -0.4198
     13 O         -30.7196   -1.2765   30.8258 O.2     1  UNL1       -0.2448
     14 C         -31.8221   -0.4809   28.4203 C.3     1  UNL1        0.3625
     15 C         -32.2712    0.7120   27.7425 C.3     1  UNL1        0.4557
     16 F         -31.8236    1.8090   28.0005 F       1  UNL1       -0.1649
     17 F         -33.6590    0.7800   27.9644 F       1  UNL1       -0.1649
     18 F         -32.1665    0.4443   26.3881 F       1  UNL1       -0.1649
     19 N         -31.7939   -1.6780   27.6833 N.am    1  UNL1       -0.1490
     20 C         -32.2606   -2.8707   28.2039 C.2     1  UNL1        0.3439
     21 O         -32.5541   -2.8950   29.3351 O.2     1  UNL1       -0.2611
     22 C         -32.1177   -4.0316   27.2346 C.2     1  UNL1        0.3976
     23 O         -32.3784   -3.8831   26.1337 O.2     1  UNL1       -0.2397
     24 O         -31.8145   -5.1500   27.7527 O.3     1  UNL1       -0.4373
     25 C         -31.2048   -5.2841   28.9497 C.3     1  UNL1        0.2355
     26 C         -31.7309   -6.3047   29.8525 C.ar    1  UNL1        0.0213
     27 C         -32.3787   -7.2847   29.4356 C.ar    1  UNL1       -0.0007
     28 C         -32.8389   -8.3622   30.2818 C.ar    1  UNL1       -0.0002
     29 C         -32.5043   -8.2795   31.6498 C.ar    1  UNL1       -0.0000
     30 C         -31.6984   -7.2380   32.1293 C.ar    1  UNL1       -0.0002
     31 C         -31.2674   -6.2405   31.3016 C.ar    1  UNL1       -0.0007
     32 C         -33.6254   -9.4342   29.8034 C.2     1  UNL1       -0.0000
     33 C         -33.7713   -9.6103   28.6489 C.2     1  UNL1       -0.0000
     34 C         -34.5602  -10.6600   28.0463 C.2     1  UNL1       -0.0000
     35 C         -35.1101  -11.5336   28.9728 C.2     1  UNL1        0.0000
@<TRIPOS>BOND
     1     3     4    1
     2     4     8    1
     3     4     9    1
     4     4    10    1
     5     2    11    1
     6    11    12    1
     7    11    13    2
     8    12    14    1
     9    14    15    1
    10    15    16    1
    11    15    17    1
    12    15    18    1
    13    14    19    1
    14    19    20   am
    15    20    21    2
    16    20    22    1
    17    22    23    2
    18    22    24    1
    19    24    25    1
    20    28    32    1
    21    32    33    2
    22    33    34    1
    23    34    35    2
    24    25    26    1
    25    26    27   ar
    26    27    28   ar
    27    28    29   ar
    28    29    30   ar
    29    30    31   ar
    30    31    26   ar
    31     1     2   ar
    32     2     5   ar
    33     5     6   ar
    34     6     7   ar
    35     7     3   ar
    36     3     1   ar
