@<TRIPOS>MOLECULE
No_27-gen_results/8p0m/2024-11-26-14-13-15/
 24 26 0 0 0
SMALL
GASTEIGER

@<TRIPOS>ATOM
      1 CL        -28.1493   -0.8198   28.9079 Cl      1  UNL1       -0.0822
      2 C         -28.5324   -0.0471   29.7727 C.ar    1  UNL1        0.0599
      3 C         -27.6024    0.7852   30.3185 C.ar    1  UNL1        0.0107
      4 C         -27.9263    1.8091   31.3693 C.ar    1  UNL1        0.0031
      5 C         -29.2820    1.8300   31.7435 C.ar    1  UNL1        0.0297
      6 C         -30.1642    1.0016   31.2423 C.ar    1  UNL1        0.1410
      7 C         -29.8161    0.0491   30.2948 C.ar    1  UNL1        0.0410
      8 F         -31.4232    1.0170   31.6693 F       1  UNL1       -0.2041
      9 C         -26.1638    0.8029   29.9500 C.ar    1  UNL1        0.0006
     10 C         -25.5764    1.0099   28.8954 C.ar    1  UNL1       -0.0025
     11 C         -24.1356    0.9574   28.6743 C.ar    1  UNL1        0.0012
     12 C         -23.3079    0.6398   29.7750 C.ar    1  UNL1       -0.0025
     13 C         -23.9442    0.3226   30.9900 C.ar    1  UNL1       -0.0003
     14 C         -25.3484    0.3941   31.1617 C.ar    1  UNL1        0.0000
     15 C         -23.4426    1.2336   27.4371 C.3     1  UNL1        0.1615
     16 N         -23.2467    2.3124   27.0637 N.pl3   1  UNL1       -0.1387
     17 N         -23.7973    3.3361   27.7240 N.2     1  UNL1       -0.1616
     18 C         -24.4345    4.3638   26.8671 C.2     1  UNL1        0.1192
     19 C         -25.0097    5.4738   27.5308 C.ar    1  UNL1        0.0207
     20 C         -25.6706    5.4200   28.5923 C.ar    1  UNL1        0.0016
     21 C         -26.1923    6.6030   29.2512 C.ar    1  UNL1        0.0000
     22 C         -26.0538    7.7810   28.5601 C.ar    1  UNL1        0.0000
     23 C         -24.8593    6.8047   26.9127 C.ar    1  UNL1        0.0016
     24 C         -25.3485    7.9335   27.4447 C.ar    1  UNL1        0.0000
@<TRIPOS>BOND
     1     1     2    1
     2     6     8    1
     3     3     9    1
     4    11    15    1
     5    15    16    1
     6    16    17    1
     7    17    18    2
     8    18    19    1
     9     2     3   ar
    10     3     4   ar
    11     4     5   ar
    12     5     6   ar
    13     6     7   ar
    14     7     2   ar
    15     9    10   ar
    16    10    11   ar
    17    11    12   ar
    18    12    13   ar
    19    13    14   ar
    20    14     9   ar
    21    19    20   ar
    22    20    21   ar
    23    21    22   ar
    24    22    24   ar
    25    24    23   ar
    26    23    19   ar
