@<TRIPOS>MOLECULE
No_2700-gen_results/8p0m/2024-11-26-14-13-15/
 30 33 0 0 0
SMALL
GASTEIGER

@<TRIPOS>ATOM
      1 C         -28.0162   -0.8135   28.8779 C.ar    1  UNL1        0.0740
      2 C         -28.4690   -0.7850   29.8287 C.ar    1  UNL1        0.1421
      3 C         -26.5455   -0.8762   28.8500 C.ar    1  UNL1        0.1443
      4 C         -25.8041   -1.0324   30.0571 C.ar    1  UNL1        0.0129
      5 C         -27.9437   -0.9869   31.2075 C.ar    1  UNL1        0.0368
      6 C         -26.5825   -1.0386   31.2231 C.ar    1  UNL1        0.0019
      7 O         -29.9267   -0.7257   29.8772 O.3     1  UNL1       -0.4705
      8 C         -30.5256    0.4218   30.2407 C.3     1  UNL1        0.2320
      9 C         -31.4524    0.8312   29.5589 C.ar    1  UNL1        0.0212
     10 C         -31.9827    0.1141   28.4232 C.ar    1  UNL1       -0.0007
     11 C         -32.9803    0.6145   27.5374 C.ar    1  UNL1       -0.0002
     12 C         -33.4953    1.8888   27.8797 C.ar    1  UNL1       -0.0000
     13 C         -33.0808    2.6264   28.9079 C.ar    1  UNL1       -0.0002
     14 C         -32.0478    2.1540   29.7397 C.ar    1  UNL1       -0.0007
     15 C         -24.3681   -1.1409   30.0636 C.3     1  UNL1        0.0338
     16 C         -23.6992    0.0580   29.8427 C.3     1  UNL1        0.0268
     17 C         -23.8254    1.1487   30.5648 C.ar    1  UNL1       -0.0222
     18 C         -23.2815    2.4003   30.1880 C.ar    1  UNL1       -0.0043
     19 C         -23.9807    3.4721   30.4821 C.ar    1  UNL1       -0.0003
     20 C         -24.9808    3.4611   31.5682 C.ar    1  UNL1       -0.0000
     21 C         -25.4167    2.2441   32.0282 C.ar    1  UNL1       -0.0003
     22 C         -24.9168    1.1250   31.5169 C.ar    1  UNL1       -0.0043
     23 C         -22.1617   -0.2530   29.6461 C.3     1  UNL1        0.0050
     24 O         -25.8232   -0.7949   27.7112 O.3     1  UNL1       -0.4537
     25 C         -26.0554    0.1707   26.7995 C.ar    1  UNL1        0.1453
     26 C         -25.2211    0.2304   25.7485 C.ar    1  UNL1        0.0375
     27 C         -26.9199    1.2547   26.9512 C.ar    1  UNL1        0.0375
     28 C         -27.0876    2.2246   26.0384 C.ar    1  UNL1        0.0031
     29 C         -25.3092    1.1757   24.7168 C.ar    1  UNL1        0.0031
     30 C         -26.2438    2.1879   24.8925 C.ar    1  UNL1        0.0002
@<TRIPOS>BOND
     1     2     7    1
     2     7     8    1
     3     4    15    1
     4    15    16    1
     5    16    23    1
     6     3    24    1
     7    24    25    1
     8    16    17    1
     9     8     9    1
    10     9    10   ar
    11    10    11   ar
    12    11    12   ar
    13    12    13   ar
    14    13    14   ar
    15    14     9   ar
    16    17    18   ar
    17    18    19   ar
    18    19    20   ar
    19    20    21   ar
    20    21    22   ar
    21    22    17   ar
    22     1     2   ar
    23     2     5   ar
    24     5     6   ar
    25     6     4   ar
    26     4     3   ar
    27     3     1   ar
    28    25    26   ar
    29    26    29   ar
    30    29    30   ar
    31    30    28   ar
    32    28    27   ar
    33    27    25   ar
