@<TRIPOS>MOLECULE
No_2702-gen_results/8p0m/2024-11-26-14-13-15/
 14 15 0 0 0
SMALL
GASTEIGER

@<TRIPOS>ATOM
      1 O         -28.1229   -1.3353   28.4874 O.2     1  UNL1       -0.2726
      2 C         -27.4806   -0.4044   28.7094 C.2     1  UNL1        0.2508
      3 C         -27.1904    0.2460   29.5268 C.3     1  UNL1        0.1047
      4 N         -26.6021   -0.1576   27.5515 N.am    1  UNL1       -0.1603
      5 C         -25.6421    0.9031   27.5822 C.ar    1  UNL1        0.1537
      6 C         -25.5004    1.6142   28.7368 C.ar    1  UNL1        0.0312
      7 C         -26.0185    1.3516   29.6201 C.3     1  UNL1        0.0444
      8 N         -24.9275    1.1075   26.4221 N.ar    1  UNL1       -0.2074
      9 C         -23.9378    2.1213   26.5635 C.ar    1  UNL1        0.2001
     10 N         -23.6671    2.7901   27.6045 N.ar    1  UNL1       -0.2227
     11 C         -24.3557    2.6205   28.5967 C.ar    1  UNL1        0.0992
     12 C         -27.9562    0.0388   30.9088 C.2     1  UNL1       -0.0215
     13 C         -27.4675    0.3524   31.9733 C.2     1  UNL1       -0.0299
     14 C         -26.4221    1.4059   32.0913 C.3     1  UNL1        0.0304
@<TRIPOS>BOND
     1     1     2    2
     2     2     3    1
     3     2     4   am
     4     4     5    1
     5     3    12    1
     6    12    13    2
     7    13    14    1
     8     3     7    1
     9     7     6    1
    10     5     6   ar
    11     6    11   ar
    12    11    10   ar
    13    10     9   ar
    14     9     8   ar
    15     8     5   ar
